REMARK  7 active torsions:
REMARK  status: ('A' for Active; 'I' for Inactive)
REMARK       I    between atoms: C1_2  and  N1_3 
REMARK    1  A    between atoms: C1_2  and  C8_12 
REMARK    2  A    between atoms: N1_3  and  C2_4 
REMARK    3  A    between atoms: C2_4  and  C3_5 
REMARK    4  A    between atoms: C14_19  and  C15_20 
REMARK    5  A    between atoms: C15_20  and  N4_21 
REMARK    6  A    between atoms: C17_23  and  C18_24 
REMARK    7  A    between atoms: C18_24  and  C19_25 
ROOT
HETATM    1  C8  UNL     1       3.307  -1.598  -1.196  1.00  0.00     0.110 C 
HETATM    2  C9  UNL     1       2.342  -0.900  -0.222  1.00  0.00     0.287 C 
HETATM    3  N3  UNL     1       1.127  -0.414  -0.936  1.00  0.00     0.095 N 
HETATM    4  C10 UNL     1       1.541   0.675  -1.847  1.00  0.00     0.273 C 
HETATM    5  C11 UNL     1       2.614   0.211  -2.842  1.00  0.00     0.036 C 
HETATM    6  C12 UNL     1       2.875  -1.292  -2.649  1.00  0.00     0.004 C 
HETATM    7  C13 UNL     1       1.504  -1.973  -2.859  1.00  0.00     0.043 C 
HETATM    8  C14 UNL     1       0.550  -1.566  -1.705  1.00  0.00     0.242 C 
ENDROOT
BRANCH   8   9
HETATM    9  C15 UNL     1      -0.880  -1.322  -2.224  1.00  0.00     0.181 C 
BRANCH   9  10
HETATM   10  N4  UNL     1      -1.864  -1.321  -1.165  1.00  0.00    -0.283 N 
HETATM   11  C16 UNL     1      -2.266  -0.278  -0.387  1.00  0.00     0.134 A 
HETATM   12  C17 UNL     1      -3.237  -0.825   0.423  1.00  0.00     0.041 A 
HETATM   13  N5  UNL     1      -3.392  -2.149   0.106  1.00  0.00    -0.287 N 
HETATM   14  N6  UNL     1      -2.550  -2.441  -0.876  1.00  0.00    -0.020 NA
ATOM     15  H5  UNL     1      -4.043  -2.798   0.549  1.00  0.00     0.184 HD
BRANCH  12  16
HETATM   16  C18 UNL     1      -4.045  -0.192   1.497  1.00  0.00     0.064 C 
BRANCH  16  17
HETATM   17  C19 UNL     1      -5.247   0.610   0.965  1.00  0.00    -0.009 C 
HETATM   18  C20 UNL     1      -5.868   1.439   2.103  1.00  0.00     0.005 C 
HETATM   19  C21 UNL     1      -7.090   2.225   1.634  1.00  0.00     0.000 C 
HETATM   20  C22 UNL     1      -8.133   1.313   0.998  1.00  0.00     0.000 C 
HETATM   21  C23 UNL     1      -7.534   0.486  -0.135  1.00  0.00     0.000 C 
HETATM   22  C24 UNL     1      -6.310  -0.303   0.328  1.00  0.00     0.005 C 
ENDBRANCH  16  17
ENDBRANCH  12  16
ENDBRANCH   9  10
ENDBRANCH   8   9
BRANCH   1  23
HETATM   23  C1  UNL     1       4.781  -1.331  -0.917  1.00  0.00     0.224 C 
HETATM   24  O1  UNL     1       5.579  -2.259  -0.804  1.00  0.00    -0.273 OA
HETATM   25  N1  UNL     1       5.172  -0.016  -0.845  1.00  0.00    -0.356 N 
HETATM   26  H1  UNL     1       4.472   0.706  -0.761  1.00  0.00     0.162 HD
BRANCH  25  27
HETATM   27  C2  UNL     1       6.526   0.349  -0.484  1.00  0.00     0.162 C 
BRANCH  27  28
HETATM   28  C3  UNL     1       6.619   0.670   0.977  1.00  0.00    -0.025 A 
HETATM   29  C4  UNL     1       6.478   1.977   1.454  1.00  0.00     0.011 A 
HETATM   30  C5  UNL     1       6.548   2.223   2.822  1.00  0.00     0.018 A 
HETATM   31  C6  UNL     1       6.750   1.150   3.673  1.00  0.00     0.087 A 
HETATM   32  N2  UNL     1       6.880  -0.126   3.251  1.00  0.00    -0.375 N 
HETATM   33  C7  UNL     1       6.809  -0.338   1.917  1.00  0.00     0.096 A 
ATOM     34  H2  UNL     1       7.025  -0.894   3.907  1.00  0.00     0.164 HD
ENDBRANCH  27  28
ENDBRANCH  25  27
ENDBRANCH   1  23
TORSDOF 7
