REMARK  7 active torsions:
REMARK  status: ('A' for Active; 'I' for Inactive)
REMARK       I    between atoms: C1_2  and  N1_3 
REMARK    1  A    between atoms: C1_2  and  C8_12 
REMARK    2  A    between atoms: N1_3  and  C2_4 
REMARK    3  A    between atoms: C2_4  and  C3_5 
REMARK    4  A    between atoms: C14_19  and  C15_20 
REMARK    5  A    between atoms: C15_20  and  N4_21 
REMARK    6  A    between atoms: C17_23  and  C18_24 
REMARK    7  A    between atoms: C18_24  and  C19_25 
ROOT
HETATM    1  C8  UNL     1      -3.139  -1.045   0.201  1.00  0.00     0.110 C 
HETATM    2  C9  UNL     1      -2.716  -1.479  -1.216  1.00  0.00     0.287 C 
HETATM    3  N3  UNL     1      -1.434  -2.236  -1.205  1.00  0.00     0.095 N 
HETATM    4  C10 UNL     1      -1.522  -3.290  -0.161  1.00  0.00     0.273 C 
HETATM    5  C11 UNL     1      -1.605  -2.678   1.250  1.00  0.00     0.036 C 
HETATM    6  C12 UNL     1      -1.908  -1.172   1.127  1.00  0.00     0.004 C 
HETATM    7  C13 UNL     1      -0.691  -0.514   0.441  1.00  0.00     0.043 C 
HETATM    8  C14 UNL     1      -0.312  -1.317  -0.828  1.00  0.00     0.242 C 
ENDROOT
BRANCH   8   9
HETATM    9  C15 UNL     1       0.123  -0.418  -2.001  1.00  0.00     0.181 C 
BRANCH   9  10
HETATM   10  N4  UNL     1       1.412   0.200  -1.773  1.00  0.00    -0.283 N 
HETATM   11  C16 UNL     1       2.643  -0.296  -2.079  1.00  0.00     0.134 A 
HETATM   12  C17 UNL     1       3.510   0.687  -1.655  1.00  0.00     0.041 A 
HETATM   13  N5  UNL     1       2.786   1.726  -1.131  1.00  0.00    -0.287 N 
HETATM   14  N6  UNL     1       1.499   1.417  -1.213  1.00  0.00    -0.020 NA
ATOM     15  H5  UNL     1       3.171   2.588  -0.745  1.00  0.00     0.184 HD
BRANCH  12  16
HETATM   16  C18 UNL     1       4.995   0.734  -1.705  1.00  0.00     0.064 C 
BRANCH  16  17
HETATM   17  C19 UNL     1       5.668   0.009  -0.521  1.00  0.00    -0.009 C 
HETATM   18  C20 UNL     1       7.193  -0.100  -0.737  1.00  0.00     0.005 C 
HETATM   19  C21 UNL     1       7.959   1.009  -0.027  1.00  0.00     0.000 C 
HETATM   20  C22 UNL     1       7.739   0.971   1.486  1.00  0.00     0.000 C 
HETATM   21  C23 UNL     1       6.375   0.409   1.888  1.00  0.00     0.000 C 
HETATM   22  C24 UNL     1       5.320   0.685   0.824  1.00  0.00     0.005 C 
ENDBRANCH  16  17
ENDBRANCH  12  16
ENDBRANCH   9  10
ENDBRANCH   8   9
BRANCH   1  23
HETATM   23  C1  UNL     1      -3.771   0.342   0.207  1.00  0.00     0.224 C 
HETATM   24  O1  UNL     1      -3.339   1.275   0.873  1.00  0.00    -0.273 OA
HETATM   25  N1  UNL     1      -4.899   0.442  -0.582  1.00  0.00    -0.356 N 
HETATM   26  H1  UNL     1      -5.336  -0.406  -0.918  1.00  0.00     0.162 HD
BRANCH  25  27
HETATM   27  C2  UNL     1      -5.696   1.650  -0.611  1.00  0.00     0.162 C 
BRANCH  27  28
HETATM   28  C3  UNL     1      -6.875   1.542   0.310  1.00  0.00    -0.025 A 
HETATM   29  C4  UNL     1      -6.735   1.694   1.693  1.00  0.00     0.011 A 
HETATM   30  C5  UNL     1      -7.849   1.568   2.518  1.00  0.00     0.018 A 
HETATM   31  C6  UNL     1      -9.071   1.289   1.932  1.00  0.00     0.087 A 
HETATM   32  N2  UNL     1      -9.246   1.129   0.602  1.00  0.00    -0.375 N 
HETATM   33  C7  UNL     1      -8.148   1.261  -0.175  1.00  0.00     0.096 A 
ATOM     34  H2  UNL     1     -10.161   0.919   0.204  1.00  0.00     0.164 HD
ENDBRANCH  27  28
ENDBRANCH  25  27
ENDBRANCH   1  23
TORSDOF 7
