REMARK  7 active torsions:
REMARK  status: ('A' for Active; 'I' for Inactive)
REMARK       I    between atoms: C1_2  and  N1_3 
REMARK    1  A    between atoms: C1_2  and  C8_12 
REMARK    2  A    between atoms: N1_3  and  C2_4 
REMARK    3  A    between atoms: C2_4  and  C3_5 
REMARK    4  A    between atoms: C14_19  and  C15_20 
REMARK    5  A    between atoms: C15_20  and  N4_21 
REMARK    6  A    between atoms: C17_23  and  C18_24 
REMARK    7  A    between atoms: C18_24  and  C19_25 
ROOT
HETATM    1  C8  UNL     1      -3.144  -1.005   0.227  1.00  0.00     0.110 C 
HETATM    2  C9  UNL     1      -2.721  -1.490  -1.174  1.00  0.00     0.287 C 
HETATM    3  N3  UNL     1      -1.443  -2.251  -1.136  1.00  0.00     0.095 N 
HETATM    4  C10 UNL     1      -1.535  -3.267  -0.054  1.00  0.00     0.273 C 
HETATM    5  C11 UNL     1      -1.615  -2.603   1.334  1.00  0.00     0.036 C 
HETATM    6  C12 UNL     1      -1.913  -1.103   1.156  1.00  0.00     0.004 C 
HETATM    7  C13 UNL     1      -0.694  -0.473   0.447  1.00  0.00     0.043 C 
HETATM    8  C14 UNL     1      -0.317  -1.324  -0.791  1.00  0.00     0.242 C 
ENDROOT
BRANCH   8   9
HETATM    9  C15 UNL     1       0.124  -0.472  -1.995  1.00  0.00     0.181 C 
BRANCH   9  10
HETATM   10  N4  UNL     1       1.417   0.146  -1.789  1.00  0.00    -0.283 N 
HETATM   11  C16 UNL     1       2.645  -0.370  -2.075  1.00  0.00     0.134 A 
HETATM   12  C17 UNL     1       3.519   0.620  -1.683  1.00  0.00     0.041 A 
HETATM   13  N5  UNL     1       2.801   1.682  -1.197  1.00  0.00    -0.287 N 
HETATM   14  N6  UNL     1       1.512   1.380  -1.271  1.00  0.00    -0.020 NA
ATOM     15  H5  UNL     1       3.191   2.554  -0.840  1.00  0.00     0.184 HD
BRANCH  12  16
HETATM   16  C18 UNL     1       5.004   0.653  -1.728  1.00  0.00     0.064 C 
BRANCH  16  17
HETATM   17  C19 UNL     1       5.666  -0.052  -0.526  1.00  0.00    -0.009 C 
HETATM   18  C20 UNL     1       7.191  -0.176  -0.734  1.00  0.00     0.005 C 
HETATM   19  C21 UNL     1       7.962   0.942  -0.041  1.00  0.00     0.000 C 
HETATM   20  C22 UNL     1       7.734   0.935   1.471  1.00  0.00     0.000 C 
HETATM   21  C23 UNL     1       6.364   0.391   1.876  1.00  0.00     0.000 C 
HETATM   22  C24 UNL     1       5.316   0.653   0.802  1.00  0.00     0.005 C 
ENDBRANCH  16  17
ENDBRANCH  12  16
ENDBRANCH   9  10
ENDBRANCH   8   9
BRANCH   1  23
HETATM   23  C1  UNL     1      -3.773   0.383   0.183  1.00  0.00     0.224 C 
HETATM   24  O1  UNL     1      -3.337   1.339   0.814  1.00  0.00    -0.273 OA
HETATM   25  N1  UNL     1      -4.902   0.456  -0.606  1.00  0.00    -0.356 N 
HETATM   26  H1  UNL     1      -5.342  -0.402  -0.909  1.00  0.00     0.162 HD
BRANCH  25  27
HETATM   27  C2  UNL     1      -5.699   1.663  -0.672  1.00  0.00     0.162 C 
BRANCH  27  28
HETATM   28  C3  UNL     1      -6.870   1.589   0.263  1.00  0.00    -0.025 A 
HETATM   29  C4  UNL     1      -6.720   1.798   1.637  1.00  0.00     0.011 A 
HETATM   30  C5  UNL     1      -7.825   1.702   2.477  1.00  0.00     0.018 A 
HETATM   31  C6  UNL     1      -9.051   1.393   1.913  1.00  0.00     0.087 A 
HETATM   32  N2  UNL     1      -9.237   1.178   0.593  1.00  0.00    -0.375 N 
HETATM   33  C7  UNL     1      -8.146   1.283  -0.199  1.00  0.00     0.096 A 
ATOM     34  H2  UNL     1     -10.155   0.948   0.212  1.00  0.00     0.164 HD
ENDBRANCH  27  28
ENDBRANCH  25  27
ENDBRANCH   1  23
TORSDOF 7
