REMARK  8 active torsions:
REMARK  status: ('A' for Active; 'I' for Inactive)
REMARK    1  A    between atoms: O1_2  and  C2_3 
REMARK    2  A    between atoms: C2_3  and  C3_4 
REMARK    3  A    between atoms: C3_4  and  O2_5 
REMARK    4  A    between atoms: O2_5  and  C4_6 
REMARK    5  A    between atoms: C7_9  and  C8_10 
REMARK    6  A    between atoms: C9_14  and  C10_15 
REMARK    7  A    between atoms: N2_19  and  C14_20 
REMARK    8  A    between atoms: C14_20  and  C15_21 
ROOT
HETATM    1  C8  UNL     1       1.043  -0.372   1.395  1.00  0.00     0.139 A 
HETATM    2  N1  UNL     1       0.148  -0.046   2.342  1.00  0.00    -0.242 N 
ATOM      3  H1  UNL     1       0.308   0.464   3.211  1.00  0.00     0.196 HD
HETATM    4  O3  UNL     1      -1.051  -0.569   1.859  1.00  0.00    -0.220 OA
HETATM    5  C9  UNL     1      -0.759  -1.178   0.674  1.00  0.00     0.182 A 
HETATM    6  N4  UNL     1       0.515  -1.101   0.353  1.00  0.00    -0.321 N 
ATOM      7  H4  UNL     1       0.992  -1.485  -0.463  1.00  0.00     0.169 HD
ENDROOT
BRANCH   5   8
HETATM    8  C10 UNL     1      -1.903  -1.842  -0.040  1.00  0.00     0.299 C 
HETATM    9  C11 UNL     1      -1.540  -3.265  -0.468  1.00  0.00     0.046 C 
HETATM   10  C12 UNL     1      -1.074  -3.149  -1.913  1.00  0.00     0.033 C 
HETATM   11  C13 UNL     1      -1.326  -1.702  -2.310  1.00  0.00     0.274 C 
HETATM   12  N2  UNL     1      -2.238  -1.140  -1.303  1.00  0.00     0.105 N 
BRANCH  12  13
HETATM   13  C14 UNL     1      -3.641  -1.320  -1.701  1.00  0.00     0.314 C 
BRANCH  13  14
HETATM   14  C15 UNL     1      -4.558  -0.614  -0.746  1.00  0.00    -0.002 A 
HETATM   15  C16 UNL     1      -5.585  -1.193  -0.022  1.00  0.00     0.100 A 
HETATM   16  N3  UNL     1      -6.190  -0.220   0.727  1.00  0.00    -0.360 N 
HETATM   17  C17 UNL     1      -7.305  -0.441   1.620  1.00  0.00     0.155 C 
HETATM   18  C18 UNL     1      -5.586   0.999   0.509  1.00  0.00     0.044 A 
HETATM   19  C19 UNL     1      -5.852   2.269   1.045  1.00  0.00     0.030 A 
HETATM   20  C23 UNL     1      -4.558   0.781  -0.413  1.00  0.00     0.000 A 
HETATM   21  C20 UNL     1      -5.049   3.338   0.635  1.00  0.00     0.002 A 
HETATM   22  C21 UNL     1      -4.018   3.148  -0.279  1.00  0.00     0.001 A 
HETATM   23  C22 UNL     1      -3.766   1.879  -0.811  1.00  0.00     0.014 A 
ENDBRANCH  13  14
ENDBRANCH  12  13
ENDBRANCH   5   8
BRANCH   1  24
HETATM   24  C7  UNL     1       2.447  -0.007   1.448  1.00  0.00     0.025 A 
HETATM   25  C6  UNL     1       2.998   0.689   2.529  1.00  0.00     0.021 A 
HETATM   26  C5  UNL     1       4.354   1.018   2.521  1.00  0.00     0.057 A 
HETATM   27  C4  UNL     1       5.121   0.641   1.431  1.00  0.00     0.141 A 
HETATM   28  N5  UNL     1       4.629  -0.028   0.370  1.00  0.00    -0.346 N 
HETATM   29  C24 UNL     1       3.307  -0.336   0.404  1.00  0.00     0.105 A 
ATOM     30  H5  UNL     1       5.220  -0.290  -0.419  1.00  0.00     0.167 HD
BRANCH  27  31
HETATM   31  O2  UNL     1       6.451   1.001   1.466  1.00  0.00    -0.334 OA
BRANCH  31  32
HETATM   32  C3  UNL     1       7.218   0.578   0.335  1.00  0.00     0.203 C 
BRANCH  32  33
HETATM   33  C2  UNL     1       7.101   1.568  -0.827  1.00  0.00     0.193 C 
BRANCH  33  34
HETATM   34  O1  UNL     1       7.991   1.247  -1.899  1.00  0.00    -0.394 OA
HETATM   35  C1  UNL     1       9.299   1.767  -1.708  1.00  0.00     0.201 C 
ENDBRANCH  33  34
ENDBRANCH  32  33
ENDBRANCH  31  32
ENDBRANCH  27  31
ENDBRANCH   1  24
TORSDOF 8
