REMARK  11 active torsions:
REMARK  status: ('A' for Active; 'I' for Inactive)
REMARK    1  A    between atoms: O1_2  and  C2_3 
REMARK    2  A    between atoms: C5_6  and  N1_7 
REMARK    3  A    between atoms: N1_7  and  C6_8 
REMARK    4  A    between atoms: C6_8  and  C7_9 
REMARK    5  A    between atoms: C7_9  and  C8_10 
REMARK    6  A    between atoms: C8_10  and  C9_11 
REMARK    7  A    between atoms: C9_11  and  C10_12 
REMARK    8  A    between atoms: C10_12  and  O2_13 
REMARK    9  A    between atoms: O2_13  and  N2_14 
REMARK   10  A    between atoms: C13_23  and  O5_24 
REMARK   11  A    between atoms: C15_26  and  O6_27 
ROOT
HETATM    1  C2  UNL     1      -3.533  -1.156   0.653  1.00  0.00     0.105 A 
HETATM    2  C3  UNL     1      -2.168  -0.906   0.523  1.00  0.00     0.057 A 
HETATM    3  C4  UNL     1      -1.684   0.306  -0.043  1.00  0.00     0.035 A 
HETATM    4  C5  UNL     1      -0.317   0.608  -0.216  1.00  0.00     0.093 A 
HETATM    5  N3  UNL     1       0.101   1.784  -0.712  1.00  0.00    -0.342 N 
ATOM      6  H3  UNL     1       1.093   2.000  -0.814  1.00  0.00     0.167 HD
HETATM    7  C11 UNL     1      -0.846   2.655  -1.065  1.00  0.00     0.182 A 
HETATM    8  N4  UNL     1      -2.164   2.466  -0.972  1.00  0.00    -0.349 N 
ATOM      9  H4  UNL     1      -2.825   3.180  -1.277  1.00  0.00     0.166 HD
HETATM   10  C12 UNL     1      -2.586   1.297  -0.460  1.00  0.00     0.083 A 
HETATM   11  C13 UNL     1      -3.954   1.031  -0.318  1.00  0.00     0.132 A 
HETATM   12  C15 UNL     1      -4.426  -0.186   0.197  1.00  0.00     0.137 A 
ENDROOT
BRANCH   4  13
HETATM   13  N1  UNL     1       0.653  -0.356   0.151  1.00  0.00    -0.278 NA
HETATM   14  H5  UNL     1       0.457  -1.209  -0.368  1.00  0.00     0.129 HD
BRANCH  13  15
HETATM   15  C6  UNL     1       2.040   0.072  -0.029  1.00  0.00     0.094 C 
BRANCH  15  16
HETATM   16  C7  UNL     1       2.970  -1.044   0.453  1.00  0.00     0.015 C 
BRANCH  16  17
HETATM   17  C8  UNL     1       4.450  -0.652   0.443  1.00  0.00     0.003 C 
BRANCH  17  18
HETATM   18  C9  UNL     1       5.001  -0.396  -0.964  1.00  0.00     0.029 C 
BRANCH  18  19
HETATM   19  C10 UNL     1       6.512  -0.158  -0.958  1.00  0.00     0.208 C 
BRANCH  19  20
HETATM   20  O2  UNL     1       6.789   1.023  -0.212  1.00  0.00    -0.221 OA
BRANCH  20  21
HETATM   21  N2  UNL     1       8.172   1.318  -0.152  1.00  0.00     0.004 N 
HETATM   22  O3  UNL     1       8.939   0.549  -0.734  1.00  0.00    -0.511 OA
HETATM   23  O4  UNL     1       8.415   2.334   0.496  1.00  0.00    -0.511 OA
ENDBRANCH  20  21
ENDBRANCH  19  20
ENDBRANCH  18  19
ENDBRANCH  17  18
ENDBRANCH  16  17
ENDBRANCH  15  16
ENDBRANCH  13  15
ENDBRANCH   4  13
BRANCH   1  24
HETATM   24  O1  UNL     1      -4.079  -2.295   1.178  1.00  0.00    -0.353 OA
HETATM   25  C1  UNL     1      -3.204  -3.185   1.860  1.00  0.00     0.210 C 
ENDBRANCH   1  24
BRANCH  11  26
HETATM   26  O5  UNL     1      -4.879   1.959  -0.758  1.00  0.00    -0.351 OA
HETATM   27  C14 UNL     1      -5.170   2.884   0.289  1.00  0.00     0.210 C 
ENDBRANCH  11  26
BRANCH  12  28
HETATM   28  O6  UNL     1      -5.781  -0.384   0.337  1.00  0.00    -0.351 OA
HETATM   29  C16 UNL     1      -6.307  -0.978  -0.850  1.00  0.00     0.210 C 
ENDBRANCH  12  28
TORSDOF 11
