REMARK  5 active torsions:
REMARK  status: ('A' for Active; 'I' for Inactive)
REMARK    1  A    between atoms: O1_2  and  C2_3 
REMARK    2  A    between atoms: C6_11  and  N3_12 
REMARK    3  A    between atoms: C9_15  and  O2_16 
REMARK    4  A    between atoms: O2_16  and  C10_17 
REMARK    5  A    between atoms: C23_30  and  O3_31 
ROOT
HETATM    1  C2  UNL     1      -5.435   0.373   1.001  1.00  0.00     0.103 A 
HETATM    2  C3  UNL     1      -5.001   1.659   0.656  1.00  0.00     0.070 A 
HETATM    3  C4  UNL     1      -3.744   1.890   0.110  1.00  0.00     0.049 A 
HETATM    4  N1  UNL     1      -3.399   3.146  -0.193  1.00  0.00    -0.351 N 
ATOM      5  H1  UNL     1      -4.032   3.929  -0.031  1.00  0.00     0.166 HD
HETATM    6  C5  UNL     1      -2.182   3.323  -0.720  1.00  0.00     0.182 A 
HETATM    7  N2  UNL     1      -1.284   2.369  -0.978  1.00  0.00    -0.342 N 
ATOM      8  H2  UNL     1      -0.378   2.584  -1.394  1.00  0.00     0.167 HD
HETATM    9  C6  UNL     1      -1.637   1.110  -0.661  1.00  0.00     0.096 A 
HETATM   10  C21 UNL     1      -2.892   0.802  -0.103  1.00  0.00     0.032 A 
HETATM   11  C22 UNL     1      -3.320  -0.503   0.244  1.00  0.00     0.056 A 
HETATM   12  C23 UNL     1      -4.582  -0.723   0.795  1.00  0.00     0.102 A 
ENDROOT
BRANCH   9  13
HETATM   13  N3  UNL     1      -0.735   0.056  -0.948  1.00  0.00    -0.266 NA
HETATM   14  C7  UNL     1      -0.773  -0.268  -2.389  1.00  0.00     0.099 C 
HETATM   15  C8  UNL     1       0.609   0.076  -2.924  1.00  0.00     0.048 C 
HETATM   16  C9  UNL     1       1.513  -0.201  -1.729  1.00  0.00     0.143 C 
HETATM   17  C20 UNL     1       0.665   0.376  -0.586  1.00  0.00     0.129 C 
BRANCH  16  18
HETATM   18  O2  UNL     1       2.748   0.476  -1.926  1.00  0.00    -0.345 OA
BRANCH  18  19
HETATM   19  C10 UNL     1       3.777   0.218  -1.064  1.00  0.00     0.070 A 
HETATM   20  C11 UNL     1       4.888   1.044  -1.232  1.00  0.00     0.037 A 
HETATM   21  C12 UNL     1       6.015   0.899  -0.420  1.00  0.00     0.015 A 
HETATM   22  C13 UNL     1       6.051  -0.085   0.577  1.00  0.00    -0.026 A 
HETATM   23  C14 UNL     1       7.174  -0.247   1.405  1.00  0.00     0.012 A 
HETATM   24  C18 UNL     1       4.933  -0.932   0.749  1.00  0.00    -0.023 A 
HETATM   25  C15 UNL     1       7.194  -1.232   2.393  1.00  0.00     0.001 A 
HETATM   26  C16 UNL     1       6.095  -2.067   2.564  1.00  0.00     0.001 A 
HETATM   27  C17 UNL     1       4.972  -1.919   1.748  1.00  0.00     0.012 A 
HETATM   28  C19 UNL     1       3.806  -0.770  -0.080  1.00  0.00     0.049 A 
ENDBRANCH  18  19
ENDBRANCH  16  18
ENDBRANCH   9  13
BRANCH  12  29
HETATM   29  O3  UNL     1      -5.071  -1.952   1.156  1.00  0.00    -0.353 OA
HETATM   30  C24 UNL     1      -4.197  -3.067   1.048  1.00  0.00     0.210 C 
ENDBRANCH  12  29
BRANCH   1  31
HETATM   31  O1  UNL     1      -6.664   0.088   1.542  1.00  0.00    -0.353 OA
HETATM   32  C1  UNL     1      -7.539   1.177   1.803  1.00  0.00     0.210 C 
ENDBRANCH   1  31
TORSDOF 5
