REMARK  5 active torsions:
REMARK  status: ('A' for Active; 'I' for Inactive)
REMARK    1  A    between atoms: C1_2  and  C2_3 
REMARK       I    between atoms: C1_2  and  N3_15 
REMARK    2  A    between atoms: C2_3  and  C3_4 
REMARK    3  A    between atoms: C5_7  and  N1_8 
REMARK    4  A    between atoms: N3_15  and  C10_16 
REMARK    5  A    between atoms: C10_16  and  C11_17 
ROOT
HETATM    1  O1  UNL     1      -0.077  -3.303  -1.589  1.00  0.00    -0.273 OA
HETATM    2  C1  UNL     1       0.650  -2.311  -1.613  1.00  0.00     0.223 C 
HETATM    3  N3  UNL     1       0.255  -1.070  -1.153  1.00  0.00    -0.360 N 
HETATM    4  H8  UNL     1       0.877  -0.281  -1.310  1.00  0.00     0.162 HD
ENDROOT
BRANCH   2   5
HETATM    5  C2  UNL     1       2.048  -2.354  -2.198  1.00  0.00     0.160 C 
BRANCH   5   6
HETATM    6  C3  UNL     1       3.059  -1.804  -1.248  1.00  0.00     0.026 A 
HETATM    7  C4  UNL     1       3.673  -2.482  -0.209  1.00  0.00     0.078 A 
HETATM    8  S1  UNL     1       4.759  -1.441   0.617  1.00  0.00    -0.063 SA
HETATM    9  C5  UNL     1       4.328  -0.181  -0.446  1.00  0.00     0.154 A 
HETATM   10  N2  UNL     1       3.433  -0.468  -1.369  1.00  0.00    -0.339 N 
ATOM     11  H2  UNL     1       3.071   0.186  -2.063  1.00  0.00     0.168 HD
BRANCH   9  12
HETATM   12  N1  UNL     1       4.912   1.088  -0.313  1.00  0.00    -0.313 N 
HETATM   13  C6  UNL     1       5.851   1.528   0.609  1.00  0.00     0.098 A 
HETATM   14  C7  UNL     1       6.142   2.854   0.372  1.00  0.00     0.019 A 
HETATM   15  C8  UNL     1       5.364   3.264  -0.731  1.00  0.00     0.019 A 
HETATM   16  C9  UNL     1       4.627   2.173  -1.133  1.00  0.00     0.098 A 
ENDBRANCH   9  12
ENDBRANCH   5   6
ENDBRANCH   2   5
BRANCH   3  17
HETATM   17  C10 UNL     1      -1.085  -0.838  -0.651  1.00  0.00     0.129 C 
BRANCH  17  18
HETATM   18  C11 UNL     1      -1.209   0.484   0.131  1.00  0.00     0.037 C 
HETATM   19  C12 UNL     1      -0.245   0.534   1.341  1.00  0.00     0.010 C 
HETATM   20  C13 UNL     1      -0.911   0.208   2.678  1.00  0.00     0.031 C 
HETATM   21  C14 UNL     1      -2.136  -0.684   2.513  1.00  0.00     0.273 C 
HETATM   22  N4  UNL     1      -3.159  -0.033   1.696  1.00  0.00     0.093 N 
HETATM   23  C15 UNL     1      -4.255  -0.928   1.338  1.00  0.00     0.273 C 
HETATM   24  C19 UNL     1      -2.659   0.805   0.591  1.00  0.00     0.228 C 
HETATM   25  C16 UNL     1      -5.464  -0.133   0.829  1.00  0.00     0.030 C 
HETATM   26  C17 UNL     1      -5.084   1.047  -0.068  1.00  0.00     0.004 C 
HETATM   27  C18 UNL     1      -3.656   0.904  -0.585  1.00  0.00     0.036 C 
ENDBRANCH  17  18
ENDBRANCH   3  17
TORSDOF 5
