REMARK  2 active torsions:
REMARK  status: ('A' for Active; 'I' for Inactive)
REMARK    1  A    between atoms: C1_2  and  C2_3 
REMARK       I    between atoms: C1_2  and  N2_16 
REMARK    2  A    between atoms: C10_14  and  O2_15 
ROOT
HETATM    1  O1  UNL     1       0.678   0.438   0.744  1.00  0.00    -0.267 OA
HETATM    2  C1  UNL     1       1.351  -0.327   0.059  1.00  0.00     0.258 C 
HETATM    3  N2  UNL     1       0.895  -1.026  -1.060  1.00  0.00    -0.339 N 
HETATM    4  C11 UNL     1       1.801  -1.257  -2.202  1.00  0.00     0.127 C 
HETATM    5  C12 UNL     1       1.183  -0.886  -3.557  1.00  0.00     0.024 C 
HETATM    6  C13 UNL     1       0.234   0.303  -3.430  1.00  0.00     0.037 C 
HETATM    7  C14 UNL     1      -0.873  -0.030  -2.468  1.00  0.00    -0.060 C 
HETATM    8  C15 UNL     1      -2.078   0.631  -2.450  1.00  0.00    -0.015 C 
HETATM    9  C16 UNL     1      -3.279   0.206  -1.529  1.00  0.00     0.031 C 
HETATM   10  C17 UNL     1      -2.936  -1.210  -1.175  1.00  0.00     0.019 C 
HETATM   11  C18 UNL     1      -1.628  -0.924  -0.383  1.00  0.00     0.031 C 
HETATM   12  C19 UNL     1      -2.060  -0.992   1.046  1.00  0.00     0.124 C 
HETATM   13  N3  UNL     1      -3.095   0.112   1.168  1.00  0.00    -0.407 N 
HETATM   14  C20 UNL     1      -4.174  -0.210   2.088  1.00  0.00     0.117 C 
HETATM   15  C21 UNL     1      -4.923   1.050   2.519  1.00  0.00     0.019 C 
HETATM   16  C22 UNL     1      -5.283   1.979   1.361  1.00  0.00     0.004 C 
HETATM   17  C23 UNL     1      -4.970   1.365   0.004  1.00  0.00     0.026 C 
HETATM   18  C24 UNL     1      -3.501   0.903  -0.087  1.00  0.00     0.086 C 
HETATM   19  C25 UNL     1      -0.526  -1.150  -1.395  1.00  0.00     0.122 C 
ENDROOT
BRANCH   2  20
HETATM   20  C2  UNL     1       2.757  -0.482   0.494  1.00  0.00     0.081 A 
HETATM   21  C3  UNL     1       3.396  -1.703   0.446  1.00  0.00     0.108 A 
HETATM   22  N1  UNL     1       4.682  -1.896   0.821  1.00  0.00    -0.363 N 
HETATM   23  C4  UNL     1       5.395  -0.848   1.308  1.00  0.00     0.067 A 
ATOM     24  H1  UNL     1       5.111  -2.818   0.739  1.00  0.00     0.165 HD
HETATM   25  C5  UNL     1       6.733  -0.988   1.708  1.00  0.00     0.061 A 
HETATM   26  C9  UNL     1       4.810   0.432   1.440  1.00  0.00     0.026 A 
HETATM   27 CL1  UNL     1       7.537  -2.521   1.578  1.00  0.00    -0.082 Cl
HETATM   28  C6  UNL     1       7.478   0.079   2.224  1.00  0.00     0.026 A 
HETATM   29  C7  UNL     1       6.892   1.330   2.354  1.00  0.00     0.003 A 
HETATM   30  C8  UNL     1       5.567   1.503   1.965  1.00  0.00     0.017 A 
HETATM   31  C10 UNL     1       3.468   0.587   1.038  1.00  0.00     0.095 A 
BRANCH  31  32
HETATM   32  O2  UNL     1       2.878   1.822   1.201  1.00  0.00    -0.359 OA
HETATM   33  H5  UNL     1       1.901   1.701   1.147  1.00  0.00     0.217 HD
ENDBRANCH  31  32
ENDBRANCH   2  20
TORSDOF 2
