REMARK  7 active torsions:
REMARK  status: ('A' for Active; 'I' for Inactive)
REMARK       I    between atoms: C1_2  and  N1_3 
REMARK    1  A    between atoms: C1_2  and  C8_12 
REMARK    2  A    between atoms: N1_3  and  C2_4 
REMARK    3  A    between atoms: C2_4  and  C3_5 
REMARK    4  A    between atoms: C14_19  and  C15_20 
REMARK    5  A    between atoms: C15_20  and  N4_21 
REMARK    6  A    between atoms: C17_23  and  C18_24 
REMARK    7  A    between atoms: C18_24  and  C19_25 
ROOT
HETATM    1  C8  UNL     1       3.308  -1.607  -1.186  1.00  0.00     0.110 C 
HETATM    2  C9  UNL     1       2.347  -0.903  -0.211  1.00  0.00     0.287 C 
HETATM    3  N3  UNL     1       1.133  -0.414  -0.924  1.00  0.00     0.095 N 
HETATM    4  C10 UNL     1       1.550   0.672  -1.837  1.00  0.00     0.273 C 
HETATM    5  C11 UNL     1       2.621   0.203  -2.832  1.00  0.00     0.036 C 
HETATM    6  C12 UNL     1       2.876  -1.301  -2.638  1.00  0.00     0.004 C 
HETATM    7  C13 UNL     1       1.502  -1.977  -2.846  1.00  0.00     0.043 C 
HETATM    8  C14 UNL     1       0.550  -1.565  -1.691  1.00  0.00     0.242 C 
ENDROOT
BRANCH   8   9
HETATM    9  C15 UNL     1      -0.879  -1.317  -2.209  1.00  0.00     0.181 C 
BRANCH   9  10
HETATM   10  N4  UNL     1      -1.863  -1.305  -1.149  1.00  0.00    -0.283 N 
HETATM   11  C16 UNL     1      -2.275  -0.250  -0.393  1.00  0.00     0.134 A 
HETATM   12  C17 UNL     1      -3.239  -0.789   0.429  1.00  0.00     0.041 A 
HETATM   13  N5  UNL     1      -3.382  -2.121   0.138  1.00  0.00    -0.287 N 
HETATM   14  N6  UNL     1      -2.538  -2.425  -0.839  1.00  0.00    -0.020 NA
ATOM     15  H5  UNL     1      -4.026  -2.767   0.594  1.00  0.00     0.184 HD
BRANCH  12  16
HETATM   16  C18 UNL     1      -4.052  -0.143   1.492  1.00  0.00     0.064 C 
BRANCH  16  17
HETATM   17  C19 UNL     1      -5.268   0.630   0.946  1.00  0.00    -0.009 C 
HETATM   18  C20 UNL     1      -5.890   1.484   2.064  1.00  0.00     0.005 C 
HETATM   19  C21 UNL     1      -7.127   2.239   1.583  1.00  0.00     0.000 C 
HETATM   20  C22 UNL     1      -8.163   1.294   0.985  1.00  0.00     0.000 C 
HETATM   21  C23 UNL     1      -7.562   0.441  -0.128  1.00  0.00     0.000 C 
HETATM   22  C24 UNL     1      -6.323  -0.316   0.345  1.00  0.00     0.005 C 
ENDBRANCH  16  17
ENDBRANCH  12  16
ENDBRANCH   9  10
ENDBRANCH   8   9
BRANCH   1  23
HETATM   23  C1  UNL     1       4.784  -1.346  -0.909  1.00  0.00     0.224 C 
HETATM   24  O1  UNL     1       5.578  -2.278  -0.794  1.00  0.00    -0.273 OA
HETATM   25  N1  UNL     1       5.182  -0.033  -0.840  1.00  0.00    -0.356 N 
HETATM   26  H1  UNL     1       4.486   0.693  -0.757  1.00  0.00     0.162 HD
BRANCH  25  27
HETATM   27  C2  UNL     1       6.538   0.325  -0.484  1.00  0.00     0.162 C 
BRANCH  27  28
HETATM   28  C3  UNL     1       6.637   0.654   0.976  1.00  0.00    -0.025 A 
HETATM   29  C4  UNL     1       6.535   1.967   1.444  1.00  0.00     0.011 A 
HETATM   30  C5  UNL     1       6.613   2.221   2.811  1.00  0.00     0.018 A 
HETATM   31  C6  UNL     1       6.783   1.148   3.668  1.00  0.00     0.087 A 
HETATM   32  N2  UNL     1       6.874  -0.134   3.256  1.00  0.00    -0.375 N 
HETATM   33  C7  UNL     1       6.797  -0.353   1.924  1.00  0.00     0.096 A 
ATOM     34  H2  UNL     1       6.995  -0.901   3.918  1.00  0.00     0.164 HD
ENDBRANCH  27  28
ENDBRANCH  25  27
ENDBRANCH   1  23
TORSDOF 7
