REMARK  5 active torsions:
REMARK  status: ('A' for Active; 'I' for Inactive)
REMARK    1  A    between atoms: O1_2  and  C2_3 
REMARK    2  A    between atoms: C6_11  and  N3_12 
REMARK    3  A    between atoms: C9_15  and  O2_16 
REMARK    4  A    between atoms: O2_16  and  C10_17 
REMARK    5  A    between atoms: C21_32  and  O3_33 
ROOT
HETATM    1  N3  UNL     1      -0.604  -0.345  -0.320  1.00  0.00    -0.266 NA
HETATM    2  C7  UNL     1      -0.099  -1.685   0.087  1.00  0.00     0.099 C 
HETATM    3  C8  UNL     1       1.291  -1.807  -0.539  1.00  0.00     0.048 C 
HETATM    4  C9  UNL     1       1.772  -0.352  -0.532  1.00  0.00     0.145 C 
HETATM    5  C18 UNL     1       0.507   0.374  -1.003  1.00  0.00     0.129 C 
ENDROOT
BRANCH   1   6
HETATM    6  C6  UNL     1      -1.744  -0.469  -1.149  1.00  0.00     0.096 A 
HETATM    7  N2  UNL     1      -1.596  -0.993  -2.380  1.00  0.00    -0.342 N 
HETATM    8  C5  UNL     1      -2.711  -1.103  -3.115  1.00  0.00     0.182 A 
ATOM      9  H2  UNL     1      -0.686  -1.290  -2.733  1.00  0.00     0.167 HD
HETATM   10  N1  UNL     1      -3.950  -0.755  -2.742  1.00  0.00    -0.351 N 
HETATM   11  C4  UNL     1      -4.081  -0.245  -1.512  1.00  0.00     0.049 A 
ATOM     12  H1  UNL     1      -4.751  -0.873  -3.363  1.00  0.00     0.166 HD
HETATM   13  C3  UNL     1      -5.349   0.120  -1.076  1.00  0.00     0.070 A 
HETATM   14  C19 UNL     1      -2.996  -0.069  -0.647  1.00  0.00     0.032 A 
HETATM   15  C2  UNL     1      -5.569   0.663   0.196  1.00  0.00     0.103 A 
HETATM   16  C21 UNL     1      -4.480   0.856   1.062  1.00  0.00     0.102 A 
HETATM   17  C20 UNL     1      -3.204   0.481   0.642  1.00  0.00     0.056 A 
BRANCH  15  18
HETATM   18  O1  UNL     1      -6.797   1.046   0.675  1.00  0.00    -0.353 OA
HETATM   19  C1  UNL     1      -7.930   0.804  -0.146  1.00  0.00     0.210 C 
ENDBRANCH  15  18
BRANCH  16  20
HETATM   20  O3  UNL     1      -4.760   1.373   2.302  1.00  0.00    -0.353 OA
HETATM   21  C22 UNL     1      -3.683   2.029   2.971  1.00  0.00     0.210 C 
ENDBRANCH  16  20
ENDBRANCH   1   6
BRANCH   4  22
HETATM   22  O2  UNL     1       2.856  -0.146  -1.440  1.00  0.00    -0.328 OA
BRANCH  22  23
HETATM   23  C10 UNL     1       4.055   0.011  -0.774  1.00  0.00     0.159 A 
HETATM   24  C11 UNL     1       4.991   0.883  -1.302  1.00  0.00     0.144 A 
HETATM   25  N4  UNL     1       6.174   1.141  -0.698  1.00  0.00    -0.360 N 
HETATM   26  C12 UNL     1       6.405   0.467   0.440  1.00  0.00     0.059 A 
ATOM     27  H4  UNL     1       6.847   1.804  -1.082  1.00  0.00     0.165 HD
HETATM   28  C13 UNL     1       7.587   0.694   1.138  1.00  0.00     0.032 A 
HETATM   29  C17 UNL     1       5.470  -0.479   0.948  1.00  0.00     0.061 A 
HETATM   30  C14 UNL     1       7.881  -0.006   2.312  1.00  0.00     0.002 A 
HETATM   31  C15 UNL     1       6.983  -0.963   2.796  1.00  0.00     0.002 A 
HETATM   32  C16 UNL     1       5.784  -1.186   2.116  1.00  0.00     0.032 A 
HETATM   33  N5  UNL     1       4.290  -0.707   0.336  1.00  0.00    -0.334 N 
ATOM     34  H5  UNL     1       3.617  -1.384   0.695  1.00  0.00     0.168 HD
ENDBRANCH  22  23
ENDBRANCH   4  22
TORSDOF 5
