REMARK  4 active torsions:
REMARK  status: ('A' for Active; 'I' for Inactive)
REMARK    1  A    between atoms: O1_2  and  C2_3 
REMARK    2  A    between atoms: C6_9  and  C7_10 
REMARK       I    between atoms: C7_10  and  N2_12 
REMARK    3  A    between atoms: C23_29  and  O3_30 
REMARK    4  A    between atoms: C26_33  and  O4_34 
ROOT
HETATM    1  C7  UNL     1       0.058  -0.377  -1.973  1.00  0.00     0.258 C 
HETATM    2  O2  UNL     1      -0.594  -1.335  -2.383  1.00  0.00    -0.267 OA
HETATM    3  N2  UNL     1      -0.515   0.841  -1.609  1.00  0.00    -0.339 N 
HETATM    4  C8  UNL     1       0.237   2.089  -1.422  1.00  0.00     0.127 C 
HETATM    5  C9  UNL     1      -0.356   3.205  -2.269  1.00  0.00     0.024 C 
HETATM    6  C10 UNL     1      -1.787   3.526  -1.850  1.00  0.00     0.037 C 
HETATM    7  C11 UNL     1      -2.485   2.355  -1.215  1.00  0.00    -0.060 C 
HETATM    8  C12 UNL     1      -3.438   2.529  -0.237  1.00  0.00    -0.015 C 
HETATM    9  C13 UNL     1      -4.276   1.351   0.375  1.00  0.00     0.031 C 
HETATM   10  C14 UNL     1      -4.139   0.272  -0.660  1.00  0.00     0.019 C 
HETATM   11  C15 UNL     1      -2.620   0.057  -0.550  1.00  0.00     0.031 C 
HETATM   12  C16 UNL     1      -2.452  -1.131   0.346  1.00  0.00     0.124 C 
HETATM   13  N3  UNL     1      -3.036  -0.676   1.665  1.00  0.00    -0.407 N 
HETATM   14  C17 UNL     1      -3.565  -1.756   2.483  1.00  0.00     0.117 C 
HETATM   15  C18 UNL     1      -5.068  -1.940   2.299  1.00  0.00     0.019 C 
HETATM   16  C19 UNL     1      -5.858  -0.638   2.444  1.00  0.00     0.004 C 
HETATM   17  C20 UNL     1      -4.962   0.561   2.738  1.00  0.00     0.026 C 
HETATM   18  C21 UNL     1      -3.782   0.660   1.752  1.00  0.00     0.086 C 
HETATM   19  C22 UNL     1      -1.980   0.908  -1.632  1.00  0.00     0.122 C 
ENDROOT
BRANCH   1  20
HETATM   20  C6  UNL     1       1.503  -0.565  -1.801  1.00  0.00     0.081 A 
HETATM   21  C5  UNL     1       2.250  -0.934  -2.904  1.00  0.00     0.108 A 
HETATM   22  N1  UNL     1       3.589  -1.134  -2.871  1.00  0.00    -0.364 N 
HETATM   23  C4  UNL     1       4.223  -1.002  -1.690  1.00  0.00     0.048 A 
ATOM     24  H1  UNL     1       4.103  -1.378  -3.717  1.00  0.00     0.165 HD
HETATM   25  C3  UNL     1       5.594  -1.216  -1.645  1.00  0.00     0.070 A 
HETATM   26  C24 UNL     1       3.549  -0.659  -0.500  1.00  0.00     0.028 A 
HETATM   27  C2  UNL     1       6.322  -1.109  -0.453  1.00  0.00     0.103 A 
HETATM   28  C26 UNL     1       5.656  -0.776   0.738  1.00  0.00     0.102 A 
HETATM   29  C25 UNL     1       4.278  -0.550   0.705  1.00  0.00     0.056 A 
HETATM   30  C23 UNL     1       2.158  -0.443  -0.577  1.00  0.00     0.095 A 
BRANCH  27  31
HETATM   31  O1  UNL     1       7.674  -1.323  -0.348  1.00  0.00    -0.353 OA
HETATM   32  C1  UNL     1       8.393  -1.598  -1.542  1.00  0.00     0.210 C 
ENDBRANCH  27  31
BRANCH  28  33
HETATM   33  O4  UNL     1       6.432  -0.687   1.865  1.00  0.00    -0.353 OA
HETATM   34  C27 UNL     1       5.770  -0.475   3.105  1.00  0.00     0.210 C 
ENDBRANCH  28  33
BRANCH  30  35
HETATM   35  O3  UNL     1       1.492  -0.123   0.584  1.00  0.00    -0.359 OA
HETATM   36  H29 UNL     1       0.533  -0.060   0.421  1.00  0.00     0.217 HD
ENDBRANCH  30  35
ENDBRANCH   1  20
TORSDOF 4
