REMARK  2 active torsions:
REMARK  status: ('A' for Active; 'I' for Inactive)
REMARK    1  A    between atoms: C1_2  and  C2_3 
REMARK       I    between atoms: C1_2  and  N2_16 
REMARK    2  A    between atoms: C10_14  and  O2_15 
ROOT
HETATM    1  O1  UNL     1       0.692  -2.223   0.087  1.00  0.00    -0.267 OA
HETATM    2  C1  UNL     1       1.280  -1.267  -0.420  1.00  0.00     0.258 C 
HETATM    3  N2  UNL     1       0.729  -0.465  -1.430  1.00  0.00    -0.339 N 
HETATM    4  C11 UNL     1       1.530  -0.271  -2.644  1.00  0.00     0.127 C 
HETATM    5  C12 UNL     1       1.044   0.910  -3.469  1.00  0.00     0.024 C 
HETATM    6  C13 UNL     1      -0.409   0.709  -3.871  1.00  0.00     0.037 C 
HETATM    7  C14 UNL     1      -1.249   0.471  -2.651  1.00  0.00    -0.060 C 
HETATM    8  C15 UNL     1      -2.367   1.222  -2.373  1.00  0.00    -0.015 C 
HETATM    9  C16 UNL     1      -3.335   0.919  -1.175  1.00  0.00     0.031 C 
HETATM   10  C17 UNL     1      -3.020  -0.514  -0.862  1.00  0.00     0.019 C 
HETATM   11  C18 UNL     1      -1.556  -0.324  -0.422  1.00  0.00     0.031 C 
HETATM   12  C19 UNL     1      -1.602  -0.273   1.074  1.00  0.00     0.124 C 
HETATM   13  N3  UNL     1      -2.461   0.934   1.377  1.00  0.00    -0.407 N 
HETATM   14  C20 UNL     1      -3.230   0.823   2.610  1.00  0.00     0.117 C 
HETATM   15  C21 UNL     1      -4.669   0.386   2.355  1.00  0.00     0.019 C 
HETATM   16  C22 UNL     1      -5.388   1.263   1.327  1.00  0.00     0.004 C 
HETATM   17  C23 UNL     1      -4.468   2.303   0.692  1.00  0.00     0.026 C 
HETATM   18  C24 UNL     1      -3.129   1.694   0.229  1.00  0.00     0.086 C 
HETATM   19  C25 UNL     1      -0.711  -0.643  -1.644  1.00  0.00     0.122 C 
ENDROOT
BRANCH   2  20
HETATM   20  C2  UNL     1       2.620  -0.938   0.112  1.00  0.00     0.081 A 
HETATM   21  C3  UNL     1       3.072   0.369   0.158  1.00  0.00     0.108 A 
HETATM   22  N1  UNL     1       4.285   0.736   0.640  1.00  0.00    -0.364 N 
HETATM   23  C4  UNL     1       5.088  -0.222   1.136  1.00  0.00     0.046 A 
ATOM     24  H1  UNL     1       4.580   1.712   0.627  1.00  0.00     0.165 HD
HETATM   25  C5  UNL     1       6.327   0.144   1.639  1.00  0.00     0.054 A 
HETATM   26  C9  UNL     1       4.713  -1.583   1.173  1.00  0.00     0.025 A 
HETATM   27  C6  UNL     1       7.195  -0.802   2.181  1.00  0.00     0.036 A 
HETATM   28 CL1  UNL     1       8.720  -0.306   2.805  1.00  0.00    -0.084 Cl
HETATM   29  C7  UNL     1       6.838  -2.143   2.226  1.00  0.00     0.025 A 
HETATM   30  C8  UNL     1       5.600  -2.534   1.722  1.00  0.00     0.018 A 
HETATM   31  C10 UNL     1       3.445  -1.920   0.660  1.00  0.00     0.095 A 
BRANCH  31  32
HETATM   32  O2  UNL     1       3.046  -3.237   0.724  1.00  0.00    -0.359 OA
HETATM   33  H5  UNL     1       2.074  -3.268   0.576  1.00  0.00     0.217 HD
ENDBRANCH  31  32
ENDBRANCH   2  20
TORSDOF 2
