REMARK  2 active torsions:
REMARK  status: ('A' for Active; 'I' for Inactive)
REMARK    1  A    between atoms: C1_2  and  C2_3 
REMARK       I    between atoms: C1_2  and  N3_14 
REMARK    2  A    between atoms: C3_7  and  C4_8 
ROOT
HETATM    1  O1  UNL     1       1.020   0.564   1.994  1.00  0.00    -0.266 OA
HETATM    2  C1  UNL     1       1.448  -0.269   1.190  1.00  0.00     0.272 C 
HETATM    3  N3  UNL     1       0.657  -1.363   0.806  1.00  0.00    -0.338 N 
HETATM    4  C9  UNL     1       1.222  -2.613   0.300  1.00  0.00     0.127 C 
HETATM    5  C10 UNL     1       0.553  -3.827   0.928  1.00  0.00     0.024 C 
HETATM    6  C11 UNL     1      -0.920  -3.890   0.557  1.00  0.00     0.037 C 
HETATM    7  C12 UNL     1      -1.566  -2.534   0.544  1.00  0.00    -0.060 C 
HETATM    8  C13 UNL     1      -2.764  -2.328  -0.102  1.00  0.00    -0.015 C 
HETATM    9  C14 UNL     1      -3.547  -0.971  -0.060  1.00  0.00     0.031 C 
HETATM   10  C15 UNL     1      -2.961  -0.286   1.138  1.00  0.00     0.019 C 
HETATM   11  C16 UNL     1      -1.515  -0.150   0.618  1.00  0.00     0.031 C 
HETATM   12  C17 UNL     1      -1.418   1.253   0.106  1.00  0.00     0.124 C 
HETATM   13  N4  UNL     1      -2.459   1.323  -0.996  1.00  0.00    -0.407 N 
HETATM   14  C18 UNL     1      -3.126   2.616  -1.057  1.00  0.00     0.117 C 
HETATM   15  C19 UNL     1      -3.834   2.802  -2.398  1.00  0.00     0.019 C 
HETATM   16  C20 UNL     1      -4.674   1.599  -2.822  1.00  0.00     0.004 C 
HETATM   17  C21 UNL     1      -4.759   0.539  -1.732  1.00  0.00     0.026 C 
HETATM   18  C22 UNL     1      -3.359   0.104  -1.251  1.00  0.00     0.086 C 
HETATM   19  C23 UNL     1      -0.752  -1.328   1.196  1.00  0.00     0.122 C 
ENDROOT
BRANCH   2  20
HETATM   20  C2  UNL     1       2.795  -0.091   0.601  1.00  0.00     0.118 A 
HETATM   21  N1  UNL     1       3.223  -0.682  -0.534  1.00  0.00    -0.295 N 
HETATM   22  N2  UNL     1       4.458  -0.191  -0.722  1.00  0.00    -0.299 N 
ATOM     23  H1  UNL     1       2.721  -1.351  -1.118  1.00  0.00     0.187 HD
HETATM   24  C3  UNL     1       4.854   0.692   0.237  1.00  0.00     0.061 A 
HETATM   25  H1  UNL     1       4.980  -0.504  -1.533  1.00  0.00     0.187 HD
HETATM   26  C8  UNL     1       3.797   0.788   1.108  1.00  0.00     0.068 A 
BRANCH  24  27
HETATM   27  C4  UNL     1       6.219   1.432   0.306  1.00  0.00    -0.001 A 
HETATM   28  C5  UNL     1       7.209   1.277  -0.639  1.00  0.00     0.063 A 
HETATM   29  S1  UNL     1       8.592   2.227  -0.287  1.00  0.00    -0.113 SA
HETATM   30  C6  UNL     1       7.872   2.844   1.135  1.00  0.00     0.050 A 
HETATM   31  C7  UNL     1       6.604   2.342   1.334  1.00  0.00     0.021 A 
ENDBRANCH  24  27
ENDBRANCH   2  20
TORSDOF 2
