REMARK  5 active torsions:
REMARK  status: ('A' for Active; 'I' for Inactive)
REMARK    1  A    between atoms: C2_2  and  C3_3 
REMARK    2  A    between atoms: C3_3  and  N1_4 
REMARK    3  A    between atoms: C4_5  and  S1_6 
REMARK    4  A    between atoms: S1_6  and  C5_7 
REMARK    5  A    between atoms: C21_31  and  C22_32 
ROOT
HETATM    1  C5  UNL     1      -1.998  -0.567  -0.445  1.00  0.00     0.093 A 
HETATM    2  C6  UNL     1      -2.593  -1.496   0.356  1.00  0.00    -0.016 A 
HETATM    3  C7  UNL     1      -2.050  -2.910   0.514  1.00  0.00     0.042 C 
HETATM    4  C8  UNL     1      -3.011  -3.933   1.103  1.00  0.00     0.005 C 
HETATM    5  C9  UNL     1      -3.643  -3.376   2.360  1.00  0.00     0.005 C 
HETATM    6  C10 UNL     1      -4.476  -2.152   2.010  1.00  0.00     0.041 C 
HETATM    7  C11 UNL     1      -3.773  -1.101   1.162  1.00  0.00    -0.025 A 
HETATM    8  C12 UNL     1      -4.240   0.174   1.124  1.00  0.00     0.096 A 
HETATM    9  C13 UNL     1      -5.391   0.576   1.875  1.00  0.00     0.104 C 
HETATM   10  N2  UNL     1      -6.336   0.840   2.497  1.00  0.00    -0.191 NA
HETATM   11  C14 UNL     1      -3.616   1.141   0.284  1.00  0.00     0.135 A 
HETATM   12  N3  UNL     1      -3.925   2.408   0.115  1.00  0.00    -0.339 N 
ATOM     13  H3  UNL     1      -4.662   2.931   0.588  1.00  0.00     0.167 HD
HETATM   14  C15 UNL     1      -3.057   2.876  -0.822  1.00  0.00     0.061 A 
HETATM   15  C16 UNL     1      -2.982   4.172  -1.359  1.00  0.00     0.032 A 
HETATM   16  C17 UNL     1      -2.034   4.447  -2.345  1.00  0.00     0.002 A 
HETATM   17  C18 UNL     1      -1.181   3.446  -2.795  1.00  0.00     0.002 A 
HETATM   18  C19 UNL     1      -1.243   2.149  -2.268  1.00  0.00     0.032 A 
HETATM   19  C20 UNL     1      -2.187   1.877  -1.260  1.00  0.00     0.068 A 
HETATM   20  N4  UNL     1      -2.530   0.748  -0.503  1.00  0.00    -0.287 N 
ENDROOT
BRANCH   1  21
HETATM   21  S1  UNL     1      -0.553  -0.964  -1.351  1.00  0.00    -0.033 SA
BRANCH  21  22
HETATM   22  C4  UNL     1       0.618  -0.459  -0.173  1.00  0.00     0.169 A 
HETATM   23  N1  UNL     1       1.968  -0.427  -0.403  1.00  0.00    -0.307 N 
HETATM   24  C21 UNL     1       2.533   0.030   0.772  1.00  0.00     0.135 A 
HETATM   25  N6  UNL     1       1.569   0.213   1.655  1.00  0.00    -0.283 N 
HETATM   26  N5  UNL     1       0.369  -0.077   1.057  1.00  0.00    -0.278 N 
ATOM     27  H6  UNL     1       1.695   0.519   2.620  1.00  0.00     0.188 HD
ATOM     28  H5  UNL     1      -0.552  -0.008   1.491  1.00  0.00     0.189 HD
BRANCH  23  29
HETATM   29  C3  UNL     1       2.681  -0.906  -1.575  1.00  0.00     0.159 C 
BRANCH  29  30
HETATM   30  C2  UNL     1       2.783   0.135  -2.654  1.00  0.00    -0.017 C 
HETATM   31  C1  UNL     1       3.934   0.542  -3.206  1.00  0.00     0.008 C 
ENDBRANCH  29  30
ENDBRANCH  23  29
BRANCH  24  32
HETATM   32  C22 UNL     1       3.955   0.226   1.024  1.00  0.00     0.009 A 
HETATM   33  C23 UNL     1       4.595  -0.532   2.013  1.00  0.00     0.015 A 
HETATM   34  C24 UNL     1       5.958  -0.361   2.262  1.00  0.00     0.001 A 
HETATM   35  C25 UNL     1       6.689   0.575   1.533  1.00  0.00     0.000 A 
HETATM   36  C26 UNL     1       6.056   1.349   0.561  1.00  0.00     0.001 A 
HETATM   37  C27 UNL     1       4.693   1.179   0.311  1.00  0.00     0.015 A 
ENDBRANCH  24  32
ENDBRANCH  21  22
ENDBRANCH   1  21
TORSDOF 5
