REMARK  11 active torsions:
REMARK  status: ('A' for Active; 'I' for Inactive)
REMARK    1  A    between atoms: C2_2  and  C3_3 
REMARK    2  A    between atoms: C3_3  and  O1_4 
REMARK    3  A    between atoms: O1_4  and  C4_5 
REMARK    4  A    between atoms: C6_7  and  N1_8 
REMARK    5  A    between atoms: C9_11  and  C10_12 
REMARK    6  A    between atoms: C10_12  and  O3_14 
REMARK    7  A    between atoms: O3_14  and  C11_15 
REMARK    8  A    between atoms: C11_15  and  C12_16 
REMARK    9  A    between atoms: C12_16  and  N2_17 
REMARK   10  A    between atoms: N2_17  and  C13_18 
REMARK   11  A    between atoms: N2_17  and  C15_20 
ROOT
HETATM    1  C4  UNL     1       2.379   0.246  -0.706  1.00  0.00     0.086 A 
HETATM    2  C5  UNL     1       3.569   0.947  -0.936  1.00  0.00     0.061 A 
HETATM    3  C6  UNL     1       3.745   1.689  -2.107  1.00  0.00     0.008 A 
HETATM    4  C7  UNL     1       2.746   1.651  -3.083  1.00  0.00     0.024 A 
HETATM    5  C8  UNL     1       1.546   0.972  -2.851  1.00  0.00     0.022 A 
HETATM    6  C9  UNL     1       1.350   0.277  -1.651  1.00  0.00     0.072 A 
ENDROOT
BRANCH   6   7
HETATM    7  C10 UNL     1       0.089  -0.467  -1.427  1.00  0.00     0.296 C 
HETATM    8  O2  UNL     1       0.025  -1.594  -0.966  1.00  0.00    -0.259 OA
BRANCH   7   9
HETATM    9  O3  UNL     1      -0.945   0.305  -1.840  1.00  0.00    -0.316 OA
BRANCH   9  10
HETATM   10  C11 UNL     1      -2.265  -0.211  -1.598  1.00  0.00     0.198 C 
BRANCH  10  11
HETATM   11  C12 UNL     1      -3.024   0.728  -0.643  1.00  0.00     0.143 C 
BRANCH  11  12
HETATM   12  N2  UNL     1      -2.451   0.856   0.705  1.00  0.00    -0.411 N 
BRANCH  12  13
HETATM   13  C13 UNL     1      -2.938   2.014   1.461  1.00  0.00     0.112 C 
HETATM   14  C14 UNL     1      -4.437   2.299   1.419  1.00  0.00     0.026 C 
ENDBRANCH  12  13
BRANCH  12  15
HETATM   15  C15 UNL     1      -2.364  -0.384   1.483  1.00  0.00     0.112 C 
HETATM   16  C16 UNL     1      -3.680  -1.044   1.872  1.00  0.00     0.026 C 
ENDBRANCH  12  15
ENDBRANCH  11  12
ENDBRANCH  10  11
ENDBRANCH   9  10
ENDBRANCH   7   9
ENDBRANCH   6   7
BRANCH   1  17
HETATM   17  O1  UNL     1       2.218  -0.389   0.498  1.00  0.00    -0.350 OA
BRANCH  17  18
HETATM   18  C3  UNL     1       2.875  -1.664   0.490  1.00  0.00     0.175 C 
BRANCH  18  19
HETATM   19  C2  UNL     1       2.361  -2.464   1.681  1.00  0.00     0.022 C 
HETATM   20  C1  UNL     1       3.003  -3.838   1.759  1.00  0.00     0.007 C 
ENDBRANCH  18  19
ENDBRANCH  17  18
ENDBRANCH   1  17
BRANCH   3  21
HETATM   21  N1  UNL     1       4.984   2.275  -2.390  1.00  0.00    -0.303 NA
HETATM   22  H9  UNL     1       4.940   3.028  -3.069  1.00  0.00     0.124 HD
HETATM   23  H10 UNL     1       5.517   2.532  -1.566  1.00  0.00     0.124 HD
ENDBRANCH   3  21
TORSDOF 11
