REMARK  13 active torsions:
REMARK  status: ('A' for Active; 'I' for Inactive)
REMARK    1  A    between atoms: C10_1  and  C09_15 
REMARK    2  A    between atoms: C22_4  and  N23_40 
REMARK    3  A    between atoms: C26_6  and  C25_21 
REMARK    4  A    between atoms: C26_6  and  N27_41 
REMARK    5  A    between atoms: C12_16  and  N13_36 
REMARK    6  A    between atoms: C14_17  and  N13_36 
REMARK    7  A    between atoms: C16_18  and  N17_38 
REMARK    8  A    between atoms: C18_19  and  C19_20 
REMARK       I    between atoms: C18_19  and  N17_38 
REMARK    9  A    between atoms: C25_21  and  N23_40 
REMARK   10  A    between atoms: C31_24  and  O32_45 
REMARK   11  A    between atoms: C36_27  and  C37_28 
REMARK   12  A    between atoms: C37_28  and  O38_46 
REMARK   13  A    between atoms: C39_29  and  O38_46 
ROOT
HETATM    1  C10 R28 A1101       0.172  52.557 -22.297  1.00 53.94     0.079 A 
HETATM    2  C12 R28 A1101       1.222  53.485 -20.390  1.00 53.89     0.683 A 
HETATM    3  C35 R28 A1101       1.612  54.471 -22.425  1.00 51.23     0.126 A 
HETATM    4  C36 R28 A1101       0.801  53.559 -23.090  1.00 55.18     0.083 A 
HETATM    5  N11 R28 A1101       0.404  52.553 -20.971  1.00 53.88    -0.190 N 
ATOM      6  H11 R28 A1101      -0.038  51.842 -20.388  1.00  0.00     0.184 HD
HETATM    7  N34 R28 A1101       1.842  54.459 -21.109  1.00 53.71    -0.201 N 
ATOM      8  H34 R28 A1101       2.452  55.146 -20.666  1.00  0.00     0.183 HD
ENDROOT
BRANCH   2   9
HETATM    9  N13 R28 A1101       1.464  53.471 -18.993  1.00 59.84    -0.189 N 
ATOM     10  H13 R28 A1101       2.134  54.172 -18.677  1.00  0.00     0.184 HD
BRANCH   9  11
HETATM   11  C14 R28 A1101       0.935  52.648 -17.946  1.00 58.23     0.084 A 
HETATM   12  C15 R28 A1101      -0.293  51.974 -18.081  1.00 58.26     0.065 A 
HETATM   13  C16 R28 A1101      -0.903  51.155 -17.106  1.00 58.07     0.064 A 
HETATM   14  C22 R28 A1101      -0.226  50.980 -15.864  1.00 65.64     0.059 A 
HETATM   15  C30 R28 A1101       0.993  51.649 -15.720  1.00 66.10     0.070 A 
HETATM   16  C31 R28 A1101       1.568  52.456 -16.712  1.00 58.13     0.097 A 
BRANCH  13  17
HETATM   17  N17 R28 A1101      -2.165  50.498 -17.330  1.00 58.64    -0.322 N 
HETATM   18  C18 R28 A1101      -3.229  50.886 -18.155  1.00 57.89     0.244 C 
HETATM   19  O21 R28 A1101      -3.154  51.910 -18.807  1.00 66.72    -0.268 OA
ATOM     20  H17 R28 A1101      -2.304  49.628 -16.816  1.00  0.00     0.169 HD
BRANCH  18  21
HETATM   21  C19 R28 A1101      -4.505  50.120 -18.304  1.00 65.43     0.064 C 
HETATM   22  C20 R28 A1101      -5.684  50.715 -18.021  1.00 61.58     0.017 C 
ENDBRANCH  18  21
ENDBRANCH  13  17
BRANCH  14  23
HETATM   23  N23 R28 A1101      -0.789  50.167 -14.825  1.00 76.41    -0.382 N 
HETATM   24  C24 R28 A1101      -0.189  48.877 -14.525  1.00 72.39     0.150 C 
BRANCH  23  25
HETATM   25  C25 R28 A1101      -1.980  50.550 -14.012  1.00 77.79     0.152 C 
BRANCH  25  26
HETATM   26  C26 R28 A1101      -2.158  49.752 -12.671  1.00 85.43     0.291 C 
BRANCH  26  27
HETATM   27  N27 R28 A1101      -1.273  50.251 -11.552  1.00 95.51     0.081 N 
HETATM   28  C28 R28 A1101      -2.012  50.249 -10.249  1.00 97.21     0.309 C 
HETATM   29  C29 R28 A1101      -0.854  51.653 -11.820  1.00 93.22     0.309 C 
ENDBRANCH  26  27
ENDBRANCH  25  26
ENDBRANCH  23  25
ENDBRANCH  14  23
BRANCH  16  30
HETATM   30  O32 R28 A1101       2.758  53.074 -16.487  1.00 62.08    -0.354 OA
HETATM   31  C33 R28 A1101       3.681  52.372 -15.709  1.00 63.35     0.210 C 
ENDBRANCH  16  30
ENDBRANCH   9  11
ENDBRANCH   2   9
BRANCH   1  32
HETATM   32  C09 R28 A1101      -0.741  51.495 -22.779  1.00 56.97     0.020 A 
HETATM   33  C04 R28 A1101      -1.115  50.272 -22.118  1.00 59.96     0.005 A 
HETATM   34  C03 R28 A1101      -2.031  49.559 -22.915  1.00 64.39     0.045 A 
HETATM   35  C05 R28 A1101      -0.760  49.685 -20.916  1.00 62.31     0.014 A 
HETATM   36  C08 R28 A1101      -2.575  48.326 -22.553  1.00 70.62     0.030 A 
HETATM   37  N02 R28 A1101      -2.240  50.316 -24.045  1.00 64.62    -0.360 N 
HETATM   38  C07 R28 A1101      -2.189  47.791 -21.352  1.00 67.15     0.002 A 
HETATM   39  C06 R28 A1101      -1.281  48.474 -20.539  1.00 67.84     0.001 A 
HETATM   40  C01 R28 A1101      -3.116  49.947 -25.129  1.00 71.07     0.156 C 
HETATM   41  C43 R28 A1101      -1.475  51.475 -23.950  1.00 58.82     0.105 A 
ENDBRANCH   1  32
BRANCH   4  42
HETATM   42  C37 R28 A1101       0.637  53.687 -24.510  1.00 54.98     0.297 C 
HETATM   43  O42 R28 A1101      -0.236  54.304 -24.963  1.00 67.63    -0.259 OA
BRANCH  42  44
HETATM   44  O38 R28 A1101       1.520  53.179 -25.359  1.00 57.59    -0.313 OA
BRANCH  44  45
HETATM   45  C39 R28 A1101       1.306  51.887 -25.900  1.00 58.82     0.124 C 
HETATM   46  C40 R28 A1101       2.569  51.364 -26.573  1.00 53.79     0.040 C 
HETATM   47  C41 R28 A1101       0.176  51.996 -26.918  1.00 56.69     0.040 C 
ENDBRANCH  44  45
ENDBRANCH  42  44
ENDBRANCH   4  42
TORSDOF 13
