REMARK  7 active torsions:
REMARK  status: ('A' for Active; 'I' for Inactive)
REMARK    1  A    between atoms: C3_3  and  N5_38 
REMARK    2  A    between atoms: C9_8  and  C11_10 
REMARK    3  A    between atoms: C11_10  and  O1_25 
REMARK    4  A    between atoms: C13_12  and  C14_13 
REMARK    5  A    between atoms: C13_12  and  N4_24 
REMARK    6  A    between atoms: C20_17  and  N5_38 
REMARK    7  A    between atoms: C5_31  and  C4_32 
ROOT
HETATM    1  C7  LHZ A 401      -1.978   4.533  12.350  1.00 26.10     0.177 A 
HETATM    2  C8  LHZ A 401      -0.647   4.628  11.692  1.00 25.60     0.288 C 
HETATM    3  C9  LHZ A 401       0.039   6.277  13.449  1.00 28.46     0.130 C 
HETATM    4  C10 LHZ A 401      -1.107   5.804  14.320  1.00 28.18     0.157 C 
HETATM    5  N4  LHZ A 401       0.271   5.463  12.243  1.00 27.32    -0.333 N 
HETATM    6  N2  LHZ A 401      -2.187   5.264  13.490  1.00 24.85    -0.334 N 
HETATM    7  C6  LHZ A 401      -3.513   5.172  13.777  1.00 24.47     0.124 A 
HETATM    8  O   LHZ A 401      -0.404   3.946  10.704  1.00 27.29    -0.264 OA
HETATM    9  N3  LHZ A 401      -3.097   3.913  11.961  1.00 24.50    -0.335 N 
ATOM     10  H3  LHZ A 401      -3.219   3.297  11.157  1.00  0.00     0.168 HD
HETATM   11  C5  LHZ A 401      -4.047   4.286  12.881  1.00 25.19     0.077 A 
ENDROOT
BRANCH  11  12
HETATM   12  C4  LHZ A 401      -5.433   3.799  12.809  1.00 24.98     0.084 A 
HETATM   13  C1  LHZ A 401      -5.941   2.633  12.007  1.00 24.80    -0.016 A 
HETATM   14  C2  LHZ A 401      -7.279   2.316  12.207  1.00 25.60     0.115 A 
HETATM   15  C   LHZ A 401      -5.081   1.759  11.125  1.00 23.05     0.052 C 
HETATM   16  N   LHZ A 401      -8.120   3.001  12.990  1.00 24.53    -0.201 N 
HETATM   17  C3  LHZ A 401      -7.591   4.075  13.595  1.00 25.18     0.684 A 
ATOM     18  HN  LHZ A 401      -9.094   2.726  13.118  1.00  0.00     0.183 HD
HETATM   19  N1  LHZ A 401      -6.309   4.485  13.560  1.00 26.17    -0.189 N 
ATOM     20  H1  LHZ A 401      -6.009   5.301  14.094  1.00  0.00     0.184 HD
BRANCH  17  21
HETATM   21  N5  LHZ A 401      -8.434   4.905  14.300  1.00 26.09    -0.175 N 
ATOM     22  H5  LHZ A 401      -9.431   4.761  14.138  1.00  0.00     0.186 HD
BRANCH  21  23
HETATM   23  C20 LHZ A 401      -8.113   5.913  15.203  1.00 27.47     0.138 A 
HETATM   24  C21 LHZ A 401      -6.992   6.135  15.972  1.00 24.01     0.069 A 
HETATM   25  C22 LHZ A 401      -7.375   7.116  16.879  1.00 23.33     0.111 A 
HETATM   26  N6  LHZ A 401      -8.629   7.513  16.699  1.00 26.31    -0.308 N 
HETATM   27  N7  LHZ A 401      -9.064   6.755  15.655  1.00 28.31    -0.281 N 
ATOM     28  H6  LHZ A 401      -9.146   8.221  17.221  1.00  0.00     0.186 HD
HETATM   29  C23 LHZ A 401     -10.399   7.000  15.117  1.00 29.79     0.179 C 
ENDBRANCH  21  23
ENDBRANCH  17  21
ENDBRANCH  11  12
BRANCH   3  30
HETATM   30  C11 LHZ A 401      -0.179   7.737  13.090  1.00 28.76     0.194 C 
BRANCH  30  31
HETATM   31  O1  LHZ A 401      -1.356   7.844  12.318  1.00 30.76    -0.394 OA
HETATM   32  C12 LHZ A 401      -1.570   9.168  11.868  1.00 33.63     0.201 C 
ENDBRANCH  30  31
ENDBRANCH   3  30
BRANCH   5  33
HETATM   33  C13 LHZ A 401       1.630   5.488  11.697  1.00 25.75     0.165 C 
BRANCH  33  34
HETATM   34  C14 LHZ A 401       1.861   6.429  10.530  1.00 28.09    -0.037 A 
HETATM   35  C15 LHZ A 401       3.154   6.653  10.070  1.00 29.66     0.012 A 
HETATM   36  C16 LHZ A 401       3.403   7.511   9.013  1.00 32.05     0.046 A 
HETATM   37  C17 LHZ A 401       2.344   8.149   8.419  1.00 34.70     0.154 A 
HETATM   38  F1  LHZ A 401       2.567   9.044   7.429  1.00 40.22    -0.203 F 
HETATM   39  C18 LHZ A 401       1.062   7.933   8.853  1.00 33.48     0.155 A 
HETATM   40  C19 LHZ A 401       0.800   7.081   9.901  1.00 30.63     0.054 A 
HETATM   41  F   LHZ A 401       0.045   8.596   8.253  1.00 34.40    -0.203 F 
ENDBRANCH  33  34
ENDBRANCH   5  33
TORSDOF 7
