REMARK  9 active torsions:
REMARK  status: ('A' for Active; 'I' for Inactive)
REMARK    1  A    between atoms: O02_2  and  CAX_26 
REMARK    2  A    between atoms: CAC_3  and  CAM_13 
REMARK    3  A    between atoms: CAC_3  and  NBH_36 
REMARK    4  A    between atoms: CAM_13  and  CAN_14 
REMARK    5  A    between atoms: CAN_14  and  OAW_25 
REMARK    6  A    between atoms: NAU_22  and  CBB_30 
REMARK    7  A    between atoms: NAU_22  and  CBE_33 
REMARK    8  A    between atoms: OAV_24  and  CBC_31 
REMARK    9  A    between atoms: OAW_25  and  CBD_32 
ROOT
HETATM    1  NAD DB8 B 601       9.081  -1.495  32.194  1.00 25.83    -0.191 NA
HETATM    2  CAG DB8 B 601       8.234  -2.142  31.795  1.00 23.99     0.103 C 
HETATM    3  CAH DB8 B 601       5.734  -2.503  31.182  1.00 22.57     0.113 A 
HETATM    4  CAK DB8 B 601       3.812  -5.339  29.398  1.00 25.26     0.124 A 
HETATM    5  CAL DB8 B 601       6.558  -6.563  29.599  1.00 25.55     0.110 A 
HETATM    6  NAT DB8 B 601       4.661  -3.305  30.685  1.00 22.57    -0.367 N 
ATOM      7  HAT DB8 B 601       3.718  -2.917  30.660  1.00  0.00     0.165 HD
HETATM    8  CBA DB8 B 601       7.134  -3.019  31.275  1.00 24.14     0.087 A 
HETATM    9  CBC DB8 B 601       5.475  -7.230  28.812  1.00 26.84     0.079 A 
HETATM   10  CBD DB8 B 601       4.122  -6.633  28.714  1.00 23.50     0.081 A 
HETATM   11  CBE DB8 B 601       7.428  -4.431  30.818  1.00 22.29     0.063 A 
HETATM   12  CBF DB8 B 601       4.883  -4.645  30.220  1.00 25.31     0.024 A 
HETATM   13  CBG DB8 B 601       6.265  -5.267  30.293  1.00 23.52    -0.001 A 
ENDROOT
BRANCH  11  14
HETATM   14  NAU DB8 B 601       8.781  -4.984  30.834  1.00 21.69    -0.356 N 
ATOM     15  HAU DB8 B 601       9.079  -5.663  30.134  1.00  0.00     0.166 HD
BRANCH  14  16
HETATM   16  CBB DB8 B 601       9.689  -4.538  31.877  1.00 25.59     0.034 A 
HETATM   17  CAJ DB8 B 601       9.261  -4.615  33.316  1.00 27.52     0.124 A 
HETATM   18  CAX DB8 B 601      10.193  -4.144  34.386  1.00 29.05     0.069 A 
HETATM   19  CAY DB8 B 601      11.537  -3.613  34.018  1.00 31.77     0.046 A 
HETATM   20 CL1  DB8 B 601      12.595  -3.091  35.259  1.00 39.66    -0.086 Cl
HETATM   21  CAI DB8 B 601      11.972  -3.532  32.598  1.00 33.31     0.107 A 
HETATM   22  CAZ DB8 B 601      11.043  -3.996  31.532  1.00 28.44     0.040 A 
HETATM   23 CL2  DB8 B 601      11.521  -3.896  29.878  1.00 31.02    -0.086 Cl
BRANCH  18  24
HETATM   24  O02 DB8 B 601       9.821  -4.207  35.709  1.00 32.20    -0.358 OA
HETATM   25  C01 DB8 B 601       8.485  -4.444  36.029  1.00 32.58     0.209 C 
ENDBRANCH  18  24
ENDBRANCH  14  16
ENDBRANCH  11  14
BRANCH   9  26
HETATM   26  OAV DB8 B 601       5.780  -8.412  28.193  1.00 29.46    -0.357 OA
HETATM   27  CAA DB8 B 601       6.957  -9.042  28.579  1.00 28.64     0.209 C 
ENDBRANCH   9  26
BRANCH  10  28
HETATM   28  OAW DB8 B 601       3.122  -7.271  27.976  1.00 27.07    -0.352 OA
BRANCH  28  29
HETATM   29  CAN DB8 B 601       1.804  -6.817  28.103  1.00 30.18     0.177 C 
BRANCH  29  30
HETATM   30  CAM DB8 B 601       0.828  -7.887  27.608  1.00 34.95     0.046 C 
BRANCH  30  31
HETATM   31  CAC DB8 B 601       1.444  -8.634  26.441  1.00 40.32     0.119 C 
BRANCH  31  32
HETATM   32  NBH DB8 B 601       0.341  -9.043  25.512  1.00 47.74    -0.409 N 
HETATM   33  CAP DB8 B 601       0.486  -8.975  24.054  1.00 47.04     0.136 C 
HETATM   34  CAR DB8 B 601      -0.629  -9.798  23.381  1.00 53.26     0.135 C 
HETATM   35  NBI DB8 B 601      -1.912  -9.327  23.842  1.00 61.63    -0.414 N 
HETATM   36  CAO DB8 B 601      -3.054  -9.581  22.968  1.00 55.89     0.143 C 
HETATM   37  CAS DB8 B 601      -2.017  -9.455  25.265  1.00 54.15     0.135 C 
HETATM   38  CAQ DB8 B 601      -0.973  -8.596  25.910  1.00 48.39     0.136 C 
ENDBRANCH  31  32
ENDBRANCH  30  31
ENDBRANCH  29  30
ENDBRANCH  28  29
ENDBRANCH  10  28
TORSDOF 9
