REMARK  13 active torsions:
REMARK  status: ('A' for Active; 'I' for Inactive)
REMARK    1  A    between atoms: C1_1  and  C_15 
REMARK    2  A    between atoms: C5_5  and  C6_6 
REMARK       I    between atoms: C6_6  and  N1_10 
REMARK    3  A    between atoms: C7_7  and  N1_10 
REMARK    4  A    between atoms: C_15  and  P_22 
REMARK       I    between atoms: N6_26  and  C34_27 
REMARK    5  A    between atoms: C9_36  and  C10_37 
REMARK       I    between atoms: C10_37  and  N3_39 
REMARK    6  A    between atoms: N3_39  and  C11_41 
REMARK    7  A    between atoms: C11_41  and  C12_42 
REMARK    8  A    between atoms: C11_41  and  C15_49 
REMARK    9  A    between atoms: C12_42  and  C13_43 
REMARK   10  A    between atoms: C13_43  and  C14_44 
REMARK       I    between atoms: C14_44  and  N4_46 
REMARK       I    between atoms: C15_49  and  N5_51 
REMARK   11  A    between atoms: N5_51  and  C16_53 
REMARK   12  A    between atoms: C16_53  and  C23_54 
REMARK   13  A    between atoms: C16_53  and  C17_60 
ROOT
HETATM    1  C7  KQV A 701      11.687  55.409  -2.558  1.00 37.97     0.195 C 
HETATM    2  C8  KQV A 701      12.486  55.921  -1.328  1.00 38.59     0.245 C 
HETATM    3  N2  KQV A 701      13.229  57.192  -1.491  1.00 39.08    -0.332 N 
HETATM    4  C36 KQV A 701      10.401  56.290  -2.710  1.00 37.90     0.160 C 
HETATM    5  N6  KQV A 701      10.628  57.428  -3.707  1.00 38.95    -0.350 N 
HETATM    6  C34 KQV A 701      10.314  57.356  -5.032  1.00 39.43     0.215 C 
HETATM    7  O6  KQV A 701       9.429  58.054  -5.506  1.00 39.66    -0.274 OA
HETATM    8  C35 KQV A 701      11.107  56.425  -5.902  1.00 39.34     0.117 C 
HETATM    9  C33 KQV A 701      11.138  58.691  -3.155  1.00 38.70     0.128 C 
HETATM   10  C32 KQV A 701      12.635  58.893  -3.270  1.00 38.52     0.045 C 
HETATM   11  C31 KQV A 701      13.607  57.806  -2.784  1.00 38.40     0.089 C 
HETATM   12  O7  KQV A 701      12.498  55.304  -0.276  1.00 38.04    -0.271 OA
HETATM   13  C30 KQV A 701      15.037  58.275  -2.512  1.00 38.31     0.028 C 
HETATM   14  C29 KQV A 701      15.040  58.605  -1.013  1.00 38.12     0.037 C 
HETATM   15  C9  KQV A 701      14.166  57.505  -0.409  1.00 38.75     0.179 C 
ENDROOT
BRANCH  15  16
HETATM   16  C10 KQV A 701      13.462  57.974   0.861  1.00 39.05     0.241 C 
HETATM   17  O5  KQV A 701      12.390  58.574   0.806  1.00 40.57    -0.271 OA
HETATM   18  N3  KQV A 701      14.083  57.663   2.005  1.00 36.96    -0.346 N 
ATOM     19  H3  KQV A 701      15.005  57.230   1.952  1.00  0.00     0.163 HD
BRANCH  18  20
HETATM   20  C11 KQV A 701      13.512  57.910   3.319  1.00 34.01     0.177 C 
BRANCH  20  21
HETATM   21  C12 KQV A 701      14.180  57.026   4.375  1.00 32.74     0.044 C 
BRANCH  21  22
HETATM   22  C13 KQV A 701      13.836  55.539   4.234  1.00 32.12     0.105 C 
BRANCH  22  23
HETATM   23  C14 KQV A 701      14.565  54.625   5.193  1.00 31.54     0.215 C 
HETATM   24  O3  KQV A 701      15.265  55.077   6.103  1.00 30.63    -0.274 OA
HETATM   25  N4  KQV A 701      14.413  53.326   4.985  1.00 31.91    -0.370 N 
ATOM     26  H42 KQV A 701      13.834  52.952   4.233  1.00  0.00     0.159 HD
ATOM     27  H41 KQV A 701      14.905  52.709   5.632  1.00  0.00     0.159 HD
ENDBRANCH  22  23
ENDBRANCH  21  22
ENDBRANCH  20  21
BRANCH  20  28
HETATM   28  C15 KQV A 701      13.576  59.382   3.730  1.00 34.30     0.241 C 
HETATM   29  O4  KQV A 701      12.802  59.814   4.583  1.00 34.77    -0.271 OA
HETATM   30  N5  KQV A 701      14.511  60.137   3.131  1.00 34.17    -0.347 N 
ATOM     31  H5  KQV A 701      15.056  59.731   2.371  1.00  0.00     0.163 HD
BRANCH  30  32
HETATM   32  C16 KQV A 701      14.778  61.526   3.530  1.00 33.63     0.151 C 
BRANCH  32  33
HETATM   33  C23 KQV A 701      16.112  61.706   4.248  1.00 34.48    -0.031 A 
HETATM   34  C28 KQV A 701      16.908  60.611   4.569  1.00 34.58     0.009 A 
HETATM   35  C27 KQV A 701      18.082  60.777   5.290  1.00 34.49     0.001 A 
HETATM   36  C26 KQV A 701      18.478  62.038   5.695  1.00 34.49     0.000 A 
HETATM   37  C25 KQV A 701      17.703  63.135   5.370  1.00 34.49     0.001 A 
HETATM   38  C24 KQV A 701      16.530  62.971   4.648  1.00 34.60     0.009 A 
ENDBRANCH  32  33
BRANCH  32  39
HETATM   39  C17 KQV A 701      14.550  62.520   2.398  1.00 31.97    -0.031 A 
HETATM   40  C22 KQV A 701      13.518  63.448   2.477  1.00 30.85     0.009 A 
HETATM   41  C21 KQV A 701      13.349  64.406   1.487  1.00 30.49     0.001 A 
HETATM   42  C20 KQV A 701      14.207  64.444   0.404  1.00 30.46     0.000 A 
HETATM   43  C19 KQV A 701      15.233  63.522   0.311  1.00 30.60     0.001 A 
HETATM   44  C18 KQV A 701      15.401  62.562   1.299  1.00 31.29     0.009 A 
ENDBRANCH  32  39
ENDBRANCH  30  32
ENDBRANCH  20  28
ENDBRANCH  18  20
ENDBRANCH  15  16
BRANCH   1  45
HETATM   45  N1  KQV A 701      11.598  53.957  -2.606  1.00 38.05    -0.341 N 
HETATM   46  C6  KQV A 701      12.646  53.111  -2.581  1.00 38.41     0.269 C 
HETATM   47  O8  KQV A 701      13.811  53.463  -2.779  1.00 38.66    -0.266 OA
ATOM     48  H1  KQV A 701      10.666  53.547  -2.663  1.00  0.00     0.163 HD
BRANCH  46  49
HETATM   49  C5  KQV A 701      12.317  51.695  -2.286  1.00 37.85     0.102 A 
HETATM   50  N   KQV A 701      13.249  50.688  -2.130  1.00 37.43    -0.351 N 
HETATM   51  C4  KQV A 701      12.588  49.516  -1.800  1.00 36.53     0.043 A 
ATOM     52  HN  KQV A 701      14.258  50.790  -2.240  1.00  0.00     0.166 HD
HETATM   53  C3  KQV A 701      11.211  49.798  -1.750  1.00 37.24    -0.006 A 
HETATM   54  C38 KQV A 701      13.084  48.242  -1.523  1.00 36.28     0.031 A 
HETATM   55  C2  KQV A 701      10.333  48.773  -1.402  1.00 38.99     0.027 A 
HETATM   56  C37 KQV A 701      11.063  51.186  -2.066  1.00 37.20     0.049 A 
HETATM   57  C1  KQV A 701      10.802  47.499  -1.096  1.00 40.43     0.028 A 
HETATM   58  C39 KQV A 701      12.176  47.246  -1.174  1.00 37.81     0.016 A 
BRANCH  57  59
HETATM   59  C   KQV A 701       9.749  46.491  -0.586  1.00 43.23     0.380 C 
HETATM   60  F1  KQV A 701       9.538  46.633   0.742  1.00 44.43    -0.185 F 
HETATM   61  F   KQV A 701       8.517  46.810  -1.061  1.00 45.32    -0.185 F 
BRANCH  59  62
HETATM   62  P   KQV A 701      10.157  44.710  -1.040  1.00 43.32     0.339 P 
HETATM   63  O1  KQV A 701      10.608  44.761  -2.518  1.00 44.15    -0.635 OA
HETATM   64  O   KQV A 701      11.379  44.353  -0.173  1.00 43.40    -0.635 OA
HETATM   65  O2  KQV A 701       8.999  43.791  -0.809  1.00 44.30    -0.635 OA
ENDBRANCH  59  62
ENDBRANCH  57  59
ENDBRANCH  46  49
ENDBRANCH   1  45
TORSDOF 13
