REMARK  1 active torsions:
REMARK  status: ('A' for Active; 'I' for Inactive)
REMARK    1  A    between atoms: C2_2  and  N1_3 
ROOT
HETATM    1  N1  UNL     1      -3.723   0.735   0.252  1.00  0.00    -0.317 N 
HETATM    2  C3  UNL     1      -4.673  -0.282   0.120  1.00  0.00     0.237 A 
HETATM    3  O1  UNL     1      -5.888  -0.150   0.112  1.00  0.00    -0.272 OA
HETATM    4  C4  UNL     1      -3.905  -1.616  -0.016  1.00  0.00     0.063 A 
HETATM    5  C5  UNL     1      -4.233  -2.519   1.173  1.00  0.00     0.030 C 
HETATM    6  C6  UNL     1      -4.263  -2.281  -1.344  1.00  0.00     0.030 C 
HETATM    7  C7  UNL     1      -2.464  -1.155   0.014  1.00  0.00    -0.012 A 
HETATM    8  C8  UNL     1      -1.305  -1.916  -0.092  1.00  0.00     0.041 A 
HETATM    9  C9  UNL     1      -0.098  -1.203  -0.038  1.00  0.00     0.044 A 
HETATM   10  C10 UNL     1      -0.024   0.184   0.109  1.00  0.00     0.001 A 
HETATM   11  C11 UNL     1      -1.221   0.929   0.218  1.00  0.00     0.044 A 
HETATM   12  C12 UNL     1      -2.419   0.230   0.168  1.00  0.00     0.045 A 
HETATM   13  C13 UNL     1       1.369   0.541   0.115  1.00  0.00    -0.017 A 
HETATM   14  C14 UNL     1       2.096  -0.634  -0.011  1.00  0.00     0.069 A 
HETATM   15  N2  UNL     1       1.195  -1.665  -0.112  1.00  0.00    -0.353 N 
HETATM   16  C15 UNL     1       3.517  -0.813  -0.050  1.00  0.00     0.083 A 
HETATM   17  C16 UNL     1       4.532   0.128  -0.012  1.00  0.00    -0.004 A 
HETATM   18  C17 UNL     1       4.430   1.612   0.096  1.00  0.00     0.043 C 
HETATM   19  C18 UNL     1       3.177   2.221  -0.535  1.00  0.00     0.009 C 
HETATM   20  C19 UNL     1       1.903   1.935   0.260  1.00  0.00     0.042 C 
HETATM   21  C20 UNL     1       5.734  -0.637  -0.076  1.00  0.00     0.030 A 
HETATM   22  C21 UNL     1       7.134  -0.144  -0.062  1.00  0.00     0.070 C 
HETATM   23  N3  UNL     1       5.487  -1.948  -0.158  1.00  0.00    -0.304 N 
ATOM     24  H3  UNL     1       6.160  -2.712  -0.222  1.00  0.00     0.186 HD
HETATM   25  N4  UNL     1       4.150  -2.024  -0.136  1.00  0.00    -0.298 N 
HETATM   26  H14 UNL     1       1.427  -2.639  -0.224  1.00  0.00     0.166 HD
HETATM   27  H24 UNL     1       3.736  -2.945  -0.181  1.00  0.00     0.187 HD
ENDROOT
BRANCH   1  28
HETATM   28  C2  UNL     1      -4.063   2.136   0.351  1.00  0.00     0.128 C 
HETATM   29  C1  UNL     1      -4.120   2.808  -1.011  1.00  0.00     0.027 C 
ENDBRANCH   1  28
TORSDOF 1
