MODEL 1
REMARK minimizedAffinity -7.88305902
REMARK  6 active torsions:
REMARK  status: ('A' for Active; 'I' for Inactive)
REMARK    1  A    between atoms: O1_1  and  C1_2 
REMARK    2  A    between atoms: C6_11  and  N3_12 
REMARK    3  A    between atoms: N3_12  and  C7_13 
REMARK    4  A    between atoms: C10_16  and  O2_17 
REMARK    5  A    between atoms: O2_17  and  C11_18 
REMARK    6  A    between atoms: C11_18  and  C12_19 
ROOT
HETATM    1  N3  UNL     1      11.870  34.449  18.569  1.00  0.00    -0.342 N 
HETATM    2  H5  UNL     1      12.110  34.128  19.501  1.00  0.00     0.167 HD
ENDROOT
BRANCH   1   3
HETATM    3  C6  UNL     1      10.575  35.034  18.603  1.00  0.00     0.119 A 
HETATM    4  N2  UNL     1      10.044  35.535  17.472  1.00  0.00    -0.338 N 
HETATM    5  C5  UNL     1       8.838  36.101  17.569  1.00  0.00     0.182 A 
ATOM      6  H2  UNL     1      10.539  35.486  16.582  1.00  0.00     0.168 HD
HETATM    7  N1  UNL     1       8.105  36.217  18.680  1.00  0.00    -0.352 N 
HETATM    8  C4  UNL     1       8.628  35.707  19.797  1.00  0.00     0.047 A 
ATOM      9  H1  UNL     1       7.192  36.673  18.676  1.00  0.00     0.166 HD
HETATM   10  C3  UNL     1       7.894  35.799  20.974  1.00  0.00     0.033 A 
HETATM   11  C20 UNL     1       9.884  35.082  19.832  1.00  0.00     0.037 A 
HETATM   12  C2  UNL     1       8.366  35.286  22.186  1.00  0.00     0.039 A 
HETATM   13  C1  UNL     1       9.600  34.660  22.215  1.00  0.00     0.066 A 
HETATM   14  C21 UNL     1      10.359  34.551  21.058  1.00  0.00     0.054 A 
BRANCH  13  15
HETATM   15  O1  UNL     1      10.108  34.135  23.363  1.00  0.00    -0.361 OA
HETATM   16  H1  UNL     1       9.463  34.255  24.079  1.00  0.00     0.217 HD
ENDBRANCH  13  15
ENDBRANCH   1   3
BRANCH   1  17
HETATM   17  C7  UNL     1      13.013  34.872  17.857  1.00  0.00     0.033 A 
HETATM   18  C8  UNL     1      12.924  36.007  17.039  1.00  0.00     0.032 A 
HETATM   19  C9  UNL     1      14.047  36.499  16.364  1.00  0.00     0.039 A 
HETATM   20  C10 UNL     1      15.288  35.879  16.503  1.00  0.00     0.069 A 
HETATM   21  C18 UNL     1      15.401  34.783  17.352  1.00  0.00     0.039 A 
HETATM   22  C19 UNL     1      14.274  34.293  18.028  1.00  0.00     0.032 A 
BRANCH  20  23
HETATM   23  O2  UNL     1      16.303  36.460  15.796  1.00  0.00    -0.347 OA
BRANCH  23  24
HETATM   24  C11 UNL     1      17.476  35.681  15.544  1.00  0.00     0.214 C 
BRANCH  24  25
HETATM   25  C12 UNL     1      17.368  34.812  14.310  1.00  0.00    -0.034 A 
HETATM   26  C13 UNL     1      18.297  33.795  14.047  1.00  0.00     0.009 A 
HETATM   27  C14 UNL     1      18.197  33.023  12.888  1.00  0.00     0.001 A 
HETATM   28  C15 UNL     1      17.174  33.266  11.974  1.00  0.00     0.000 A 
HETATM   29  C16 UNL     1      16.253  34.283  12.215  1.00  0.00     0.001 A 
HETATM   30  C17 UNL     1      16.352  35.055  13.373  1.00  0.00     0.009 A 
ENDBRANCH  24  25
ENDBRANCH  23  24
ENDBRANCH  20  23
ENDBRANCH   1  17
TORSDOF 6
ENDMDL
MODEL 2
REMARK minimizedAffinity -7.84974194
REMARK  6 active torsions:
REMARK  status: ('A' for Active; 'I' for Inactive)
REMARK    1  A    between atoms: O1_1  and  C1_2 
REMARK    2  A    between atoms: C6_11  and  N3_12 
REMARK    3  A    between atoms: N3_12  and  C7_13 
REMARK    4  A    between atoms: C10_16  and  O2_17 
REMARK    5  A    between atoms: O2_17  and  C11_18 
REMARK    6  A    between atoms: C11_18  and  C12_19 
ROOT
HETATM    1  N3  UNL     1      12.801  33.807  18.788  1.00  0.00    -0.342 N 
HETATM    2  H5  UNL     1      12.933  32.843  19.075  1.00  0.00     0.167 HD
ENDROOT
BRANCH   1   3
HETATM    3  C6  UNL     1      11.972  34.461  19.740  1.00  0.00     0.119 A 
HETATM    4  N2  UNL     1      12.301  34.422  21.044  1.00  0.00    -0.338 N 
HETATM    5  C5  UNL     1      11.470  35.026  21.896  1.00  0.00     0.182 A 
ATOM      6  H2  UNL     1      13.146  33.951  21.367  1.00  0.00     0.168 HD
HETATM    7  N1  UNL     1      10.341  35.669  21.580  1.00  0.00    -0.352 N 
HETATM    8  C4  UNL     1      10.025  35.718  20.284  1.00  0.00     0.047 A 
ATOM      9  H1  UNL     1       9.752  36.100  22.292  1.00  0.00     0.166 HD
HETATM   10  C3  UNL     1       8.863  36.385  19.912  1.00  0.00     0.033 A 
HETATM   11  C20 UNL     1      10.815  35.128  19.285  1.00  0.00     0.037 A 
HETATM   12  C2  UNL     1       8.462  36.489  18.576  1.00  0.00     0.039 A 
HETATM   13  C1  UNL     1       9.249  35.915  17.592  1.00  0.00     0.066 A 
HETATM   14  C21 UNL     1      10.415  35.242  17.930  1.00  0.00     0.054 A 
BRANCH  13  15
HETATM   15  O1  UNL     1       8.914  35.989  16.275  1.00  0.00    -0.361 OA
HETATM   16  H1  UNL     1       8.100  36.510  16.185  1.00  0.00     0.217 HD
ENDBRANCH  13  15
ENDBRANCH   1   3
BRANCH   1  17
HETATM   17  C7  UNL     1      13.937  34.306  18.115  1.00  0.00     0.033 A 
HETATM   18  C8  UNL     1      13.768  35.296  17.137  1.00  0.00     0.032 A 
HETATM   19  C9  UNL     1      14.870  35.864  16.487  1.00  0.00     0.039 A 
HETATM   20  C10 UNL     1      16.167  35.468  16.811  1.00  0.00     0.069 A 
HETATM   21  C18 UNL     1      16.351  34.523  17.815  1.00  0.00     0.039 A 
HETATM   22  C19 UNL     1      15.245  33.956  18.465  1.00  0.00     0.032 A 
BRANCH  20  23
HETATM   23  O2  UNL     1      17.153  36.101  16.109  1.00  0.00    -0.347 OA
BRANCH  23  24
HETATM   24  C11 UNL     1      18.160  35.294  15.489  1.00  0.00     0.214 C 
BRANCH  24  25
HETATM   25  C12 UNL     1      17.686  34.603  14.229  1.00  0.00    -0.034 A 
HETATM   26  C13 UNL     1      16.647  35.132  13.450  1.00  0.00     0.009 A 
HETATM   27  C14 UNL     1      16.205  34.463  12.307  1.00  0.00     0.001 A 
HETATM   28  C15 UNL     1      16.789  33.254  11.936  1.00  0.00     0.000 A 
HETATM   29  C16 UNL     1      17.811  32.709  12.710  1.00  0.00     0.001 A 
HETATM   30  C17 UNL     1      18.254  33.376  13.853  1.00  0.00     0.009 A 
ENDBRANCH  24  25
ENDBRANCH  23  24
ENDBRANCH  20  23
ENDBRANCH   1  17
TORSDOF 6
ENDMDL
MODEL 3
REMARK minimizedAffinity -7.63953781
REMARK  6 active torsions:
REMARK  status: ('A' for Active; 'I' for Inactive)
REMARK    1  A    between atoms: O1_1  and  C1_2 
REMARK    2  A    between atoms: C6_11  and  N3_12 
REMARK    3  A    between atoms: N3_12  and  C7_13 
REMARK    4  A    between atoms: C10_16  and  O2_17 
REMARK    5  A    between atoms: O2_17  and  C11_18 
REMARK    6  A    between atoms: C11_18  and  C12_19 
ROOT
HETATM    1  N3  UNL     1      12.088  34.067  19.893  1.00  0.00    -0.342 N 
HETATM    2  H5  UNL     1      12.500  33.370  20.504  1.00  0.00     0.167 HD
ENDROOT
BRANCH   1   3
HETATM    3  C6  UNL     1      10.967  34.646  20.547  1.00  0.00     0.119 A 
HETATM    4  N2  UNL     1      10.889  34.606  21.890  1.00  0.00    -0.338 N 
HETATM    5  C5  UNL     1       9.800  35.138  22.449  1.00  0.00     0.182 A 
ATOM      6  H2  UNL     1      11.628  34.188  22.455  1.00  0.00     0.168 HD
HETATM    7  N1  UNL     1       8.777  35.709  21.804  1.00  0.00    -0.352 N 
HETATM    8  C4  UNL     1       8.864  35.759  20.474  1.00  0.00     0.047 A 
ATOM      9  H1  UNL     1       7.972  36.086  22.304  1.00  0.00     0.166 HD
HETATM   10  C3  UNL     1       7.825  36.353  19.765  1.00  0.00     0.033 A 
HETATM   11  C20 UNL     1       9.957  35.241  19.762  1.00  0.00     0.037 A 
HETATM   12  C2  UNL     1       7.839  36.453  18.371  1.00  0.00     0.039 A 
HETATM   13  C1  UNL     1       8.924  35.951  17.672  1.00  0.00     0.066 A 
HETATM   14  C21 UNL     1       9.978  35.352  18.349  1.00  0.00     0.054 A 
BRANCH  13  15
HETATM   15  O1  UNL     1       8.997  36.026  16.316  1.00  0.00    -0.361 OA
HETATM   16  H1  UNL     1       8.214  36.492  15.982  1.00  0.00     0.217 HD
ENDBRANCH  13  15
ENDBRANCH   1   3
BRANCH   1  17
HETATM   17  C7  UNL     1      13.065  34.694  19.091  1.00  0.00     0.033 A 
HETATM   18  C8  UNL     1      13.402  34.122  17.856  1.00  0.00     0.032 A 
HETATM   19  C9  UNL     1      14.320  34.742  17.000  1.00  0.00     0.039 A 
HETATM   20  C10 UNL     1      14.910  35.955  17.350  1.00  0.00     0.069 A 
HETATM   21  C18 UNL     1      14.546  36.560  18.549  1.00  0.00     0.039 A 
HETATM   22  C19 UNL     1      13.626  35.936  19.405  1.00  0.00     0.032 A 
BRANCH  20  23
HETATM   23  O2  UNL     1      15.783  36.458  16.427  1.00  0.00    -0.347 OA
BRANCH  23  24
HETATM   24  C11 UNL     1      17.031  35.781  16.246  1.00  0.00     0.214 C 
BRANCH  24  25
HETATM   25  C12 UNL     1      17.131  35.040  14.931  1.00  0.00    -0.034 A 
HETATM   26  C13 UNL     1      18.112  34.062  14.714  1.00  0.00     0.009 A 
HETATM   27  C14 UNL     1      18.205  33.410  13.484  1.00  0.00     0.001 A 
HETATM   28  C15 UNL     1      17.327  33.737  12.452  1.00  0.00     0.000 A 
HETATM   29  C16 UNL     1      16.358  34.718  12.649  1.00  0.00     0.001 A 
HETATM   30  C17 UNL     1      16.263  35.370  13.879  1.00  0.00     0.009 A 
ENDBRANCH  24  25
ENDBRANCH  23  24
ENDBRANCH  20  23
ENDBRANCH   1  17
TORSDOF 6
ENDMDL
MODEL 4
REMARK minimizedAffinity -7.6357789
REMARK  6 active torsions:
REMARK  status: ('A' for Active; 'I' for Inactive)
REMARK    1  A    between atoms: O1_1  and  C1_2 
REMARK    2  A    between atoms: C6_11  and  N3_12 
REMARK    3  A    between atoms: N3_12  and  C7_13 
REMARK    4  A    between atoms: C10_16  and  O2_17 
REMARK    5  A    between atoms: O2_17  and  C11_18 
REMARK    6  A    between atoms: C11_18  and  C12_19 
ROOT
HETATM    1  N3  UNL     1      13.512  57.643   0.176  1.00  0.00    -0.342 N 
HETATM    2  H5  UNL     1      14.412  57.759  -0.276  1.00  0.00     0.167 HD
ENDROOT
BRANCH   1   3
HETATM    3  C6  UNL     1      12.689  56.822  -0.642  1.00  0.00     0.119 A 
HETATM    4  N2  UNL     1      11.395  57.145  -0.819  1.00  0.00    -0.338 N 
HETATM    5  C5  UNL     1      10.662  56.322  -1.572  1.00  0.00     0.182 A 
ATOM      6  H2  UNL     1      10.992  57.982  -0.396  1.00  0.00     0.168 HD
HETATM    7  N1  UNL     1      11.089  55.205  -2.169  1.00  0.00    -0.352 N 
HETATM    8  C4  UNL     1      12.376  54.894  -2.005  1.00  0.00     0.047 A 
ATOM      9  H1  UNL     1      10.464  54.621  -2.724  1.00  0.00     0.166 HD
HETATM   10  C3  UNL     1      12.863  53.745  -2.617  1.00  0.00     0.033 A 
HETATM   11  C20 UNL     1      13.257  55.678  -1.241  1.00  0.00     0.037 A 
HETATM   12  C2  UNL     1      14.200  53.351  -2.500  1.00  0.00     0.039 A 
HETATM   13  C1  UNL     1      15.068  54.131  -1.757  1.00  0.00     0.066 A 
HETATM   14  C21 UNL     1      14.614  55.284  -1.132  1.00  0.00     0.054 A 
BRANCH  13  15
HETATM   15  O1  UNL     1      16.380  53.802  -1.613  1.00  0.00    -0.361 OA
HETATM   16  H1  UNL     1      16.562  52.997  -2.124  1.00  0.00     0.217 HD
ENDBRANCH  13  15
ENDBRANCH   1   3
BRANCH   1  17
HETATM   17  C7  UNL     1      13.633  57.651   1.582  1.00  0.00     0.033 A 
HETATM   18  C8  UNL     1      13.426  58.850   2.277  1.00  0.00     0.032 A 
HETATM   19  C9  UNL     1      13.476  58.892   3.675  1.00  0.00     0.039 A 
HETATM   20  C10 UNL     1      13.717  57.734   4.412  1.00  0.00     0.069 A 
HETATM   21  C18 UNL     1      13.874  56.527   3.738  1.00  0.00     0.039 A 
HETATM   22  C19 UNL     1      13.823  56.488   2.336  1.00  0.00     0.032 A 
BRANCH  20  23
HETATM   23  O2  UNL     1      13.735  57.908   5.767  1.00  0.00    -0.347 OA
BRANCH  23  24
HETATM   24  C11 UNL     1      13.675  59.246   6.272  1.00  0.00     0.214 C 
BRANCH  24  25
HETATM   25  C12 UNL     1      12.651  59.430   7.371  1.00  0.00    -0.034 A 
HETATM   26  C13 UNL     1      12.836  58.876   8.645  1.00  0.00     0.009 A 
HETATM   27  C14 UNL     1      11.866  59.032   9.636  1.00  0.00     0.001 A 
HETATM   28  C15 UNL     1      10.695  59.735   9.361  1.00  0.00     0.000 A 
HETATM   29  C16 UNL     1      10.491  60.278   8.095  1.00  0.00     0.001 A 
HETATM   30  C17 UNL     1      11.460  60.122   7.103  1.00  0.00     0.009 A 
ENDBRANCH  24  25
ENDBRANCH  23  24
ENDBRANCH  20  23
ENDBRANCH   1  17
TORSDOF 6
ENDMDL
MODEL 5
REMARK minimizedAffinity -7.59324169
REMARK  6 active torsions:
REMARK  status: ('A' for Active; 'I' for Inactive)
REMARK    1  A    between atoms: O1_1  and  C1_2 
REMARK    2  A    between atoms: C6_11  and  N3_12 
REMARK    3  A    between atoms: N3_12  and  C7_13 
REMARK    4  A    between atoms: C10_16  and  O2_17 
REMARK    5  A    between atoms: O2_17  and  C11_18 
REMARK    6  A    between atoms: C11_18  and  C12_19 
ROOT
HETATM    1  N3  UNL     1      12.118  35.223  17.896  1.00  0.00    -0.342 N 
HETATM    2  H5  UNL     1      12.416  34.523  18.567  1.00  0.00     0.167 HD
ENDROOT
BRANCH   1   3
HETATM    3  C6  UNL     1      10.718  35.429  18.038  1.00  0.00     0.119 A 
HETATM    4  N2  UNL     1       9.995  35.825  16.974  1.00  0.00    -0.338 N 
HETATM    5  C5  UNL     1       8.691  36.033  17.172  1.00  0.00     0.182 A 
ATOM      6  H2  UNL     1      10.424  35.961  16.059  1.00  0.00     0.168 HD
HETATM    7  N1  UNL     1       8.032  35.885  18.325  1.00  0.00    -0.352 N 
HETATM    8  C4  UNL     1       8.749  35.478  19.375  1.00  0.00     0.047 A 
ATOM      9  H1  UNL     1       7.033  36.073  18.400  1.00  0.00     0.166 HD
HETATM   10  C3  UNL     1       8.100  35.303  20.592  1.00  0.00     0.033 A 
HETATM   11  C20 UNL     1      10.127  35.220  19.301  1.00  0.00     0.037 A 
HETATM   12  C2  UNL     1       8.775  34.874  21.739  1.00  0.00     0.039 A 
HETATM   13  C1  UNL     1      10.131  34.609  21.660  1.00  0.00     0.066 A 
HETATM   14  C21 UNL     1      10.810  34.774  20.461  1.00  0.00     0.054 A 
BRANCH  13  15
HETATM   15  O1  UNL     1      10.840  34.182  22.741  1.00  0.00    -0.361 OA
HETATM   16  H1  UNL     1      10.237  34.082  23.495  1.00  0.00     0.217 HD
ENDBRANCH  13  15
ENDBRANCH   1   3
BRANCH   1  17
HETATM   17  C7  UNL     1      13.132  36.175  17.656  1.00  0.00     0.033 A 
HETATM   18  C8  UNL     1      13.357  36.613  16.344  1.00  0.00     0.032 A 
HETATM   19  C9  UNL     1      14.310  37.601  16.067  1.00  0.00     0.039 A 
HETATM   20  C10 UNL     1      15.047  38.185  17.096  1.00  0.00     0.069 A 
HETATM   21  C18 UNL     1      14.797  37.796  18.408  1.00  0.00     0.039 A 
HETATM   22  C19 UNL     1      13.841  36.806  18.682  1.00  0.00     0.032 A 
BRANCH  20  23
HETATM   23  O2  UNL     1      15.939  39.139  16.694  1.00  0.00    -0.347 OA
BRANCH  23  24
HETATM   24  C11 UNL     1      15.541  40.510  16.783  1.00  0.00     0.214 C 
BRANCH  24  25
HETATM   25  C12 UNL     1      16.244  41.408  15.789  1.00  0.00    -0.034 A 
HETATM   26  C13 UNL     1      16.615  42.719  16.121  1.00  0.00     0.009 A 
HETATM   27  C14 UNL     1      17.237  43.541  15.180  1.00  0.00     0.001 A 
HETATM   28  C15 UNL     1      17.486  43.067  13.894  1.00  0.00     0.000 A 
HETATM   29  C16 UNL     1      17.109  41.771  13.546  1.00  0.00     0.001 A 
HETATM   30  C17 UNL     1      16.487  40.948  14.486  1.00  0.00     0.009 A 
ENDBRANCH  24  25
ENDBRANCH  23  24
ENDBRANCH  20  23
ENDBRANCH   1  17
TORSDOF 6
ENDMDL
MODEL 6
REMARK minimizedAffinity -7.57025051
REMARK  6 active torsions:
REMARK  status: ('A' for Active; 'I' for Inactive)
REMARK    1  A    between atoms: O1_1  and  C1_2 
REMARK    2  A    between atoms: C6_11  and  N3_12 
REMARK    3  A    between atoms: N3_12  and  C7_13 
REMARK    4  A    between atoms: C10_16  and  O2_17 
REMARK    5  A    between atoms: O2_17  and  C11_18 
REMARK    6  A    between atoms: C11_18  and  C12_19 
ROOT
HETATM    1  N3  UNL     1      16.201  36.028  15.939  1.00  0.00    -0.342 N 
HETATM    2  H5  UNL     1      16.876  35.326  16.223  1.00  0.00     0.167 HD
ENDROOT
BRANCH   1   3
HETATM    3  C6  UNL     1      16.596  36.565  14.683  1.00  0.00     0.119 A 
HETATM    4  N2  UNL     1      16.507  37.891  14.472  1.00  0.00    -0.338 N 
HETATM    5  C5  UNL     1      16.863  38.336  13.264  1.00  0.00     0.182 A 
ATOM      6  H2  UNL     1      16.181  38.526  15.200  1.00  0.00     0.168 HD
HETATM    7  N1  UNL     1      17.301  37.593  12.244  1.00  0.00    -0.352 N 
HETATM    8  C4  UNL     1      17.402  36.280  12.461  1.00  0.00     0.047 A 
ATOM      9  H1  UNL     1      17.546  38.008  11.345  1.00  0.00     0.166 HD
HETATM   10  C3  UNL     1      17.863  35.472  11.428  1.00  0.00     0.033 A 
HETATM   11  C20 UNL     1      17.065  35.684  13.686  1.00  0.00     0.037 A 
HETATM   12  C2  UNL     1      18.004  34.089  11.574  1.00  0.00     0.039 A 
HETATM   13  C1  UNL     1      17.682  33.505  12.787  1.00  0.00     0.066 A 
HETATM   14  C21 UNL     1      17.219  34.283  13.839  1.00  0.00     0.054 A 
BRANCH  13  15
HETATM   15  O1  UNL     1      17.805  32.165  12.991  1.00  0.00    -0.361 OA
HETATM   16  H1  UNL     1      18.166  31.755  12.188  1.00  0.00     0.217 HD
ENDBRANCH  13  15
ENDBRANCH   1   3
BRANCH   1  17
HETATM   17  C7  UNL     1      14.903  35.712  16.396  1.00  0.00     0.033 A 
HETATM   18  C8  UNL     1      14.743  34.676  17.326  1.00  0.00     0.032 A 
HETATM   19  C9  UNL     1      13.483  34.368  17.853  1.00  0.00     0.039 A 
HETATM   20  C10 UNL     1      12.358  35.099  17.476  1.00  0.00     0.069 A 
HETATM   21  C18 UNL     1      12.511  36.163  16.593  1.00  0.00     0.039 A 
HETATM   22  C19 UNL     1      13.774  36.469  16.067  1.00  0.00     0.032 A 
BRANCH  20  23
HETATM   23  O2  UNL     1      11.191  34.702  18.067  1.00  0.00    -0.347 OA
BRANCH  23  24
HETATM   24  C11 UNL     1      10.106  35.636  18.102  1.00  0.00     0.214 C 
BRANCH  24  25
HETATM   25  C12 UNL     1       9.200  35.460  19.301  1.00  0.00    -0.034 A 
HETATM   26  C13 UNL     1       9.530  34.589  20.348  1.00  0.00     0.009 A 
HETATM   27  C14 UNL     1       8.667  34.419  21.431  1.00  0.00     0.001 A 
HETATM   28  C15 UNL     1       7.457  35.110  21.474  1.00  0.00     0.000 A 
HETATM   29  C16 UNL     1       7.109  35.967  20.433  1.00  0.00     0.001 A 
HETATM   30  C17 UNL     1       7.972  36.138  19.350  1.00  0.00     0.009 A 
ENDBRANCH  24  25
ENDBRANCH  23  24
ENDBRANCH  20  23
ENDBRANCH   1  17
TORSDOF 6
ENDMDL
MODEL 7
REMARK minimizedAffinity -7.35196543
REMARK  6 active torsions:
REMARK  status: ('A' for Active; 'I' for Inactive)
REMARK    1  A    between atoms: O1_1  and  C1_2 
REMARK    2  A    between atoms: C6_11  and  N3_12 
REMARK    3  A    between atoms: N3_12  and  C7_13 
REMARK    4  A    between atoms: C10_16  and  O2_17 
REMARK    5  A    between atoms: O2_17  and  C11_18 
REMARK    6  A    between atoms: C11_18  and  C12_19 
ROOT
HETATM    1  N3  UNL     1      12.462  34.246  19.476  1.00  0.00    -0.342 N 
HETATM    2  H5  UNL     1      12.965  33.502  19.947  1.00  0.00     0.167 HD
ENDROOT
BRANCH   1   3
HETATM    3  C6  UNL     1      11.315  34.584  20.245  1.00  0.00     0.119 A 
HETATM    4  N2  UNL     1      11.327  34.387  21.576  1.00  0.00    -0.338 N 
HETATM    5  C5  UNL     1      10.212  34.693  22.244  1.00  0.00     0.182 A 
ATOM      6  H2  UNL     1      12.151  34.021  22.054  1.00  0.00     0.168 HD
HETATM    7  N1  UNL     1       9.083  35.177  21.718  1.00  0.00    -0.352 N 
HETATM    8  C4  UNL     1       9.078  35.384  20.400  1.00  0.00     0.047 A 
ATOM      9  H1  UNL     1       8.266  35.378  22.294  1.00  0.00     0.166 HD
HETATM   10  C3  UNL     1       7.925  35.895  19.814  1.00  0.00     0.033 A 
HETATM   11  C20 UNL     1      10.186  35.109  19.583  1.00  0.00     0.037 A 
HETATM   12  C2  UNL     1       7.838  36.147  18.441  1.00  0.00     0.039 A 
HETATM   13  C1  UNL     1       8.936  35.886  17.640  1.00  0.00     0.066 A 
HETATM   14  C21 UNL     1      10.103  35.375  18.192  1.00  0.00     0.054 A 
BRANCH  13  15
HETATM   15  O1  UNL     1       8.914  36.117  16.299  1.00  0.00    -0.361 OA
HETATM   16  H1  UNL     1       8.054  36.499  16.058  1.00  0.00     0.217 HD
ENDBRANCH  13  15
ENDBRANCH   1   3
BRANCH   1  17
HETATM   17  C7  UNL     1      13.340  35.102  18.776  1.00  0.00     0.033 A 
HETATM   18  C8  UNL     1      13.873  34.675  17.552  1.00  0.00     0.032 A 
HETATM   19  C9  UNL     1      14.699  35.514  16.794  1.00  0.00     0.039 A 
HETATM   20  C10 UNL     1      14.997  36.803  17.233  1.00  0.00     0.069 A 
HETATM   21  C18 UNL     1      14.433  37.257  18.421  1.00  0.00     0.039 A 
HETATM   22  C19 UNL     1      13.606  36.415  19.178  1.00  0.00     0.032 A 
BRANCH  20  23
HETATM   23  O2  UNL     1      15.808  37.520  16.399  1.00  0.00    -0.347 OA
BRANCH  23  24
HETATM   24  C11 UNL     1      15.191  38.301  15.370  1.00  0.00     0.214 C 
BRANCH  24  25
HETATM   25  C12 UNL     1      15.865  39.635  15.140  1.00  0.00    -0.034 A 
HETATM   26  C13 UNL     1      15.897  40.622  16.135  1.00  0.00     0.009 A 
HETATM   27  C14 UNL     1      16.499  41.857  15.892  1.00  0.00     0.001 A 
HETATM   28  C15 UNL     1      17.067  42.125  14.648  1.00  0.00     0.000 A 
HETATM   29  C16 UNL     1      17.029  41.159  13.645  1.00  0.00     0.001 A 
HETATM   30  C17 UNL     1      16.427  39.924  13.886  1.00  0.00     0.009 A 
ENDBRANCH  24  25
ENDBRANCH  23  24
ENDBRANCH  20  23
ENDBRANCH   1  17
TORSDOF 6
ENDMDL
MODEL 8
REMARK minimizedAffinity -7.30897856
REMARK  6 active torsions:
REMARK  status: ('A' for Active; 'I' for Inactive)
REMARK    1  A    between atoms: O1_1  and  C1_2 
REMARK    2  A    between atoms: C6_11  and  N3_12 
REMARK    3  A    between atoms: N3_12  and  C7_13 
REMARK    4  A    between atoms: C10_16  and  O2_17 
REMARK    5  A    between atoms: O2_17  and  C11_18 
REMARK    6  A    between atoms: C11_18  and  C12_19 
ROOT
HETATM    1  N3  UNL     1      15.972  36.400  16.462  1.00  0.00    -0.342 N 
HETATM    2  H5  UNL     1      16.713  35.792  16.795  1.00  0.00     0.167 HD
ENDROOT
BRANCH   1   3
HETATM    3  C6  UNL     1      16.345  36.929  15.196  1.00  0.00     0.119 A 
HETATM    4  N2  UNL     1      16.680  36.089  14.200  1.00  0.00    -0.338 N 
HETATM    5  C5  UNL     1      17.051  36.641  13.042  1.00  0.00     0.182 A 
ATOM      6  H2  UNL     1      16.653  35.077  14.323  1.00  0.00     0.168 HD
HETATM    7  N1  UNL     1      17.122  37.949  12.776  1.00  0.00    -0.352 N 
HETATM    8  C4  UNL     1      16.775  38.779  13.761  1.00  0.00     0.047 A 
ATOM      9  H1  UNL     1      17.425  38.295  11.865  1.00  0.00     0.166 HD
HETATM   10  C3  UNL     1      16.826  40.148  13.522  1.00  0.00     0.033 A 
HETATM   11  C20 UNL     1      16.362  38.328  15.025  1.00  0.00     0.037 A 
HETATM   12  C2  UNL     1      16.474  41.085  14.498  1.00  0.00     0.039 A 
HETATM   13  C1  UNL     1      16.056  40.638  15.740  1.00  0.00     0.066 A 
HETATM   14  C21 UNL     1      15.994  39.278  16.011  1.00  0.00     0.054 A 
BRANCH  13  15
HETATM   15  O1  UNL     1      15.694  41.503  16.726  1.00  0.00    -0.361 OA
HETATM   16  H1  UNL     1      15.756  42.411  16.389  1.00  0.00     0.217 HD
ENDBRANCH  13  15
ENDBRANCH   1   3
BRANCH   1  17
HETATM   17  C7  UNL     1      14.705  35.956  16.896  1.00  0.00     0.033 A 
HETATM   18  C8  UNL     1      13.555  36.572  16.383  1.00  0.00     0.032 A 
HETATM   19  C9  UNL     1      12.277  36.124  16.738  1.00  0.00     0.039 A 
HETATM   20  C10 UNL     1      12.118  35.040  17.599  1.00  0.00     0.069 A 
HETATM   21  C18 UNL     1      13.250  34.386  18.075  1.00  0.00     0.039 A 
HETATM   22  C19 UNL     1      14.530  34.837  17.718  1.00  0.00     0.032 A 
BRANCH  20  23
HETATM   23  O2  UNL     1      10.821  34.700  17.862  1.00  0.00    -0.347 OA
BRANCH  23  24
HETATM   24  C11 UNL     1       9.854  35.752  17.943  1.00  0.00     0.214 C 
BRANCH  24  25
HETATM   25  C12 UNL     1       9.036  35.722  19.214  1.00  0.00    -0.034 A 
HETATM   26  C13 UNL     1       7.649  35.929  19.198  1.00  0.00     0.009 A 
HETATM   27  C14 UNL     1       6.916  35.926  20.385  1.00  0.00     0.001 A 
HETATM   28  C15 UNL     1       7.561  35.727  21.604  1.00  0.00     0.000 A 
HETATM   29  C16 UNL     1       8.941  35.535  21.637  1.00  0.00     0.001 A 
HETATM   30  C17 UNL     1       9.675  35.538  20.450  1.00  0.00     0.009 A 
ENDBRANCH  24  25
ENDBRANCH  23  24
ENDBRANCH  20  23
ENDBRANCH   1  17
TORSDOF 6
ENDMDL
MODEL 9
REMARK minimizedAffinity -7.17289209
REMARK  6 active torsions:
REMARK  status: ('A' for Active; 'I' for Inactive)
REMARK    1  A    between atoms: O1_1  and  C1_2 
REMARK    2  A    between atoms: C6_11  and  N3_12 
REMARK    3  A    between atoms: N3_12  and  C7_13 
REMARK    4  A    between atoms: C10_16  and  O2_17 
REMARK    5  A    between atoms: O2_17  and  C11_18 
REMARK    6  A    between atoms: C11_18  and  C12_19 
ROOT
HETATM    1  N3  UNL     1      16.009  36.478  17.229  1.00  0.00    -0.342 N 
HETATM    2  H5  UNL     1      16.837  35.970  17.520  1.00  0.00     0.167 HD
ENDROOT
BRANCH   1   3
HETATM    3  C6  UNL     1      16.278  37.124  15.992  1.00  0.00     0.119 A 
HETATM    4  N2  UNL     1      15.965  38.425  15.841  1.00  0.00    -0.338 N 
HETATM    5  C5  UNL     1      16.211  38.972  14.648  1.00  0.00     0.182 A 
ATOM      6  H2  UNL     1      15.559  38.967  16.603  1.00  0.00     0.168 HD
HETATM    7  N1  UNL     1      16.740  38.354  13.588  1.00  0.00    -0.352 N 
HETATM    8  C4  UNL     1      17.062  37.068  13.744  1.00  0.00     0.047 A 
ATOM      9  H1  UNL     1      16.889  38.840  12.703  1.00  0.00     0.166 HD
HETATM   10  C3  UNL     1      17.622  36.390  12.668  1.00  0.00     0.033 A 
HETATM   11  C20 UNL     1      16.859  36.375  14.948  1.00  0.00     0.037 A 
HETATM   12  C2  UNL     1      17.994  35.045  12.749  1.00  0.00     0.039 A 
HETATM   13  C1  UNL     1      17.804  34.367  13.941  1.00  0.00     0.066 A 
HETATM   14  C21 UNL     1      17.246  35.014  15.035  1.00  0.00     0.054 A 
BRANCH  13  15
HETATM   15  O1  UNL     1      18.152  33.059  14.082  1.00  0.00    -0.361 OA
HETATM   16  H1  UNL     1      18.554  32.747  13.255  1.00  0.00     0.217 HD
ENDBRANCH  13  15
ENDBRANCH   1   3
BRANCH   1  17
HETATM   17  C7  UNL     1      14.828  35.829  17.649  1.00  0.00     0.033 A 
HETATM   18  C8  UNL     1      13.705  36.601  17.975  1.00  0.00     0.032 A 
HETATM   19  C9  UNL     1      12.495  35.998  18.337  1.00  0.00     0.039 A 
HETATM   20  C10 UNL     1      12.374  34.610  18.365  1.00  0.00     0.069 A 
HETATM   21  C18 UNL     1      13.466  33.831  17.995  1.00  0.00     0.039 A 
HETATM   22  C19 UNL     1      14.677  34.438  17.632  1.00  0.00     0.032 A 
BRANCH  20  23
HETATM   23  O2  UNL     1      11.140  34.148  18.729  1.00  0.00    -0.347 OA
BRANCH  23  24
HETATM   24  C11 UNL     1      10.800  34.167  20.119  1.00  0.00     0.214 C 
BRANCH  24  25
HETATM   25  C12 UNL     1       9.429  34.743  20.396  1.00  0.00    -0.034 A 
HETATM   26  C13 UNL     1       8.778  35.565  19.464  1.00  0.00     0.009 A 
HETATM   27  C14 UNL     1       7.526  36.110  19.750  1.00  0.00     0.001 A 
HETATM   28  C15 UNL     1       6.914  35.850  20.975  1.00  0.00     0.000 A 
HETATM   29  C16 UNL     1       7.556  35.048  21.916  1.00  0.00     0.001 A 
HETATM   30  C17 UNL     1       8.808  34.502  21.631  1.00  0.00     0.009 A 
ENDBRANCH  24  25
ENDBRANCH  23  24
ENDBRANCH  20  23
ENDBRANCH   1  17
TORSDOF 6
ENDMDL
