MODEL 1
REMARK minimizedAffinity -9.59088516
REMARK  9 active torsions:
REMARK  status: ('A' for Active; 'I' for Inactive)
REMARK    1  A    between atoms: C2_2  and  C3_3 
REMARK       I    between atoms: C3_3  and  N1_5 
REMARK    2  A    between atoms: N1_5  and  C4_6 
REMARK    3  A    between atoms: C4_6  and  C5_7 
REMARK    4  A    between atoms: C5_7  and  O2_8 
REMARK    5  A    between atoms: O2_8  and  C6_9 
REMARK    6  A    between atoms: C8_11  and  C9_12 
REMARK    7  A    between atoms: C9_12  and  C10_13 
REMARK    8  A    between atoms: C18_22  and  C19_23 
REMARK    9  A    between atoms: C22_29  and  C23_30 
ROOT
HETATM    1  C6  UNL     1      -0.796   6.019  12.038  1.00  0.00     0.082 A 
HETATM    2  C7  UNL     1      -1.400   4.926  11.397  1.00  0.00     0.045 A 
HETATM    3  C8  UNL     1      -2.604   4.363  11.863  1.00  0.00    -0.049 A 
HETATM    4  C16 UNL     1      -3.234   4.891  13.001  1.00  0.00     0.038 A 
HETATM    5  C17 UNL     1      -2.632   5.986  13.628  1.00  0.00     0.046 A 
HETATM    6  N2  UNL     1      -3.027   6.699  14.736  1.00  0.00    -0.354 N 
HETATM    7  C18 UNL     1      -2.140   7.711  14.997  1.00  0.00     0.062 A 
HETATM    8  C27 UNL     1      -1.144   7.647  14.051  1.00  0.00     0.048 A 
HETATM    9  C28 UNL     1      -1.443   6.558  13.174  1.00  0.00     0.026 A 
HETATM   10  H18 UNL     1      -3.859   6.533  15.289  1.00  0.00     0.166 HD
ENDROOT
BRANCH   7  11
HETATM   11  C19 UNL     1      -2.337   8.700  16.179  1.00  0.00     0.087 A 
HETATM   12  N3  UNL     1      -3.580   8.919  16.635  1.00  0.00    -0.297 N 
HETATM   13  N4  UNL     1      -3.400   9.815  17.617  1.00  0.00    -0.299 N 
ATOM     14  H3  UNL     1      -4.454   8.503  16.311  1.00  0.00     0.187 HD
HETATM   15  C20 UNL     1      -2.094  10.170  17.827  1.00  0.00     0.061 A 
HETATM   16  H19 UNL     1      -4.217  10.153  18.113  1.00  0.00     0.187 HD
HETATM   17  C21 UNL     1      -1.516  11.057  18.742  1.00  0.00     0.044 A 
HETATM   18  C26 UNL     1      -1.359   9.450  16.887  1.00  0.00     0.022 A 
HETATM   19  C22 UNL     1      -0.122  11.225  18.699  1.00  0.00     0.008 A 
HETATM   20  C24 UNL     1       0.641  10.508  17.766  1.00  0.00     0.013 A 
HETATM   21  C25 UNL     1       0.039   9.623  16.857  1.00  0.00     0.017 A 
BRANCH  19  22
HETATM   22  C23 UNL     1       0.561  12.154  19.672  1.00  0.00     0.386 C 
HETATM   23  F1  UNL     1       0.947  11.535  20.823  1.00  0.00    -0.209 F 
HETATM   24  F2  UNL     1      -0.237  13.190  20.059  1.00  0.00    -0.209 F 
ENDBRANCH  19  22
ENDBRANCH   7  11
BRANCH   1  25
HETATM   25  O2  UNL     1       0.371   6.619  11.653  1.00  0.00    -0.349 OA
BRANCH  25  26
HETATM   26  C5  UNL     1       1.617   6.103  12.129  1.00  0.00     0.195 C 
BRANCH  26  27
HETATM   27  C4  UNL     1       2.693   6.136  11.044  1.00  0.00     0.149 C 
BRANCH  27  28
HETATM   28  N1  UNL     1       2.279   6.931   9.904  1.00  0.00    -0.356 N 
HETATM   29  C3  UNL     1       2.453   6.474   8.622  1.00  0.00     0.240 C 
HETATM   30  O1  UNL     1       2.814   5.340   8.338  1.00  0.00    -0.269 OA
HETATM   31  H4  UNL     1       2.185   7.927  10.065  1.00  0.00     0.162 HD
BRANCH  29  32
HETATM   32  C2  UNL     1       2.176   7.513   7.599  1.00  0.00     0.064 C 
HETATM   33  C1  UNL     1       1.770   7.167   6.370  1.00  0.00     0.017 C 
ENDBRANCH  29  32
ENDBRANCH  27  28
ENDBRANCH  26  27
ENDBRANCH  25  26
ENDBRANCH   1  25
BRANCH   3  34
HETATM   34  C9  UNL     1      -3.217   3.178  11.144  1.00  0.00     0.077 C 
BRANCH  34  35
HETATM   35  C10 UNL     1      -4.628   2.856  11.587  1.00  0.00    -0.054 A 
HETATM   36  C11 UNL     1      -5.159   1.569  11.409  1.00  0.00     0.007 A 
HETATM   37  C12 UNL     1      -6.468   1.282  11.803  1.00  0.00     0.001 A 
HETATM   38  C13 UNL     1      -7.256   2.276  12.381  1.00  0.00     0.000 A 
HETATM   39  C14 UNL     1      -6.738   3.558  12.564  1.00  0.00     0.001 A 
HETATM   40  C15 UNL     1      -5.431   3.848  12.169  1.00  0.00     0.007 A 
ENDBRANCH  34  35
ENDBRANCH   3  34
TORSDOF 9
ENDMDL
MODEL 2
REMARK minimizedAffinity -9.43114281
REMARK  9 active torsions:
REMARK  status: ('A' for Active; 'I' for Inactive)
REMARK    1  A    between atoms: C2_2  and  C3_3 
REMARK       I    between atoms: C3_3  and  N1_5 
REMARK    2  A    between atoms: N1_5  and  C4_6 
REMARK    3  A    between atoms: C4_6  and  C5_7 
REMARK    4  A    between atoms: C5_7  and  O2_8 
REMARK    5  A    between atoms: O2_8  and  C6_9 
REMARK    6  A    between atoms: C8_11  and  C9_12 
REMARK    7  A    between atoms: C9_12  and  C10_13 
REMARK    8  A    between atoms: C18_22  and  C19_23 
REMARK    9  A    between atoms: C22_29  and  C23_30 
ROOT
HETATM    1  C6  UNL     1      -0.900   5.044  11.398  1.00  0.00     0.082 A 
HETATM    2  C7  UNL     1      -1.869   4.093  11.038  1.00  0.00     0.045 A 
HETATM    3  C8  UNL     1      -3.003   3.848  11.836  1.00  0.00    -0.049 A 
HETATM    4  C16 UNL     1      -3.189   4.559  13.031  1.00  0.00     0.038 A 
HETATM    5  C17 UNL     1      -2.225   5.511  13.379  1.00  0.00     0.046 A 
HETATM    6  N2  UNL     1      -2.159   6.346  14.471  1.00  0.00    -0.354 N 
HETATM    7  C18 UNL     1      -1.039   7.133  14.404  1.00  0.00     0.062 A 
HETATM    8  C27 UNL     1      -0.359   6.797  13.258  1.00  0.00     0.048 A 
HETATM    9  C28 UNL     1      -1.100   5.769  12.596  1.00  0.00     0.026 A 
HETATM   10  H18 UNL     1      -2.835   6.403  15.221  1.00  0.00     0.166 HD
ENDROOT
BRANCH   7  11
HETATM   11  C19 UNL     1      -0.707   8.193  15.491  1.00  0.00     0.087 A 
HETATM   12  N3  UNL     1       0.568   8.337  15.882  1.00  0.00    -0.297 N 
HETATM   13  N4  UNL     1       0.503   9.294  16.820  1.00  0.00    -0.299 N 
ATOM     14  H3  UNL     1       1.392   7.837  15.545  1.00  0.00     0.187 HD
HETATM   15  C20 UNL     1      -0.756   9.786  17.039  1.00  0.00     0.061 A 
HETATM   16  H19 UNL     1       1.361   9.571  17.282  1.00  0.00     0.187 HD
HETATM   17  C21 UNL     1      -1.221  10.771  17.918  1.00  0.00     0.044 A 
HETATM   18  C26 UNL     1      -1.587   9.075  16.175  1.00  0.00     0.022 A 
HETATM   19  C22 UNL     1      -2.599  11.046  17.924  1.00  0.00     0.008 A 
HETATM   20  C24 UNL     1      -3.455  10.347  17.060  1.00  0.00     0.013 A 
HETATM   21  C25 UNL     1      -2.967   9.364  16.187  1.00  0.00     0.017 A 
BRANCH  19  22
HETATM   22  C23 UNL     1      -3.157  12.110  18.837  1.00  0.00     0.386 C 
HETATM   23  F1  UNL     1      -4.271  11.708  19.509  1.00  0.00    -0.209 F 
HETATM   24  F2  UNL     1      -3.516  13.242  18.167  1.00  0.00    -0.209 F 
ENDBRANCH  19  22
ENDBRANCH   7  11
BRANCH   1  25
HETATM   25  O2  UNL     1       0.228   5.338  10.684  1.00  0.00    -0.349 OA
BRANCH  25  26
HETATM   26  C5  UNL     1       1.510   4.997  11.222  1.00  0.00     0.195 C 
BRANCH  26  27
HETATM   27  C4  UNL     1       2.636   5.759  10.522  1.00  0.00     0.149 C 
BRANCH  27  28
HETATM   28  N1  UNL     1       2.236   6.213   9.203  1.00  0.00    -0.356 N 
HETATM   29  C3  UNL     1       2.776   5.659   8.071  1.00  0.00     0.240 C 
HETATM   30  O1  UNL     1       3.495   4.668   8.064  1.00  0.00    -0.269 OA
HETATM   31  H4  UNL     1       1.831   7.140   9.155  1.00  0.00     0.162 HD
BRANCH  29  32
HETATM   32  C2  UNL     1       2.413   6.401   6.839  1.00  0.00     0.064 C 
HETATM   33  C1  UNL     1       1.764   7.570   6.914  1.00  0.00     0.017 C 
ENDBRANCH  29  32
ENDBRANCH  27  28
ENDBRANCH  26  27
ENDBRANCH  25  26
ENDBRANCH   1  25
BRANCH   3  34
HETATM   34  C9  UNL     1      -4.020   2.807  11.411  1.00  0.00     0.077 C 
BRANCH  34  35
HETATM   35  C10 UNL     1      -5.402   3.032  11.985  1.00  0.00    -0.054 A 
HETATM   36  C11 UNL     1      -6.315   1.973  12.091  1.00  0.00     0.007 A 
HETATM   37  C12 UNL     1      -7.595   2.189  12.604  1.00  0.00     0.001 A 
HETATM   38  C13 UNL     1      -7.974   3.464  13.019  1.00  0.00     0.000 A 
HETATM   39  C14 UNL     1      -7.073   4.526  12.921  1.00  0.00     0.001 A 
HETATM   40  C15 UNL     1      -5.794   4.312  12.406  1.00  0.00     0.007 A 
ENDBRANCH  34  35
ENDBRANCH   3  34
TORSDOF 9
ENDMDL
MODEL 3
REMARK minimizedAffinity -9.37128544
REMARK  9 active torsions:
REMARK  status: ('A' for Active; 'I' for Inactive)
REMARK    1  A    between atoms: C2_2  and  C3_3 
REMARK       I    between atoms: C3_3  and  N1_5 
REMARK    2  A    between atoms: N1_5  and  C4_6 
REMARK    3  A    between atoms: C4_6  and  C5_7 
REMARK    4  A    between atoms: C5_7  and  O2_8 
REMARK    5  A    between atoms: O2_8  and  C6_9 
REMARK    6  A    between atoms: C8_11  and  C9_12 
REMARK    7  A    between atoms: C9_12  and  C10_13 
REMARK    8  A    between atoms: C18_22  and  C19_23 
REMARK    9  A    between atoms: C22_29  and  C23_30 
ROOT
HETATM    1  C6  UNL     1      -1.278   5.143  12.173  1.00  0.00     0.082 A 
HETATM    2  C7  UNL     1      -0.235   5.913  11.635  1.00  0.00     0.045 A 
HETATM    3  C8  UNL     1      -0.226   7.318  11.723  1.00  0.00    -0.049 A 
HETATM    4  C16 UNL     1      -1.282   7.991  12.358  1.00  0.00     0.038 A 
HETATM    5  C17 UNL     1      -2.312   7.217  12.900  1.00  0.00     0.046 A 
HETATM    6  N2  UNL     1      -3.448   7.602  13.575  1.00  0.00    -0.354 N 
HETATM    7  C18 UNL     1      -4.182   6.505  13.943  1.00  0.00     0.062 A 
HETATM    8  C27 UNL     1      -3.521   5.388  13.490  1.00  0.00     0.048 A 
HETATM    9  C28 UNL     1      -2.332   5.823  12.826  1.00  0.00     0.026 A 
HETATM   10  H18 UNL     1      -3.719   8.551  13.796  1.00  0.00     0.166 HD
ENDROOT
BRANCH   7  11
HETATM   11  C19 UNL     1      -5.511   6.628  14.740  1.00  0.00     0.087 A 
HETATM   12  N3  UNL     1      -5.450   6.795  16.070  1.00  0.00    -0.297 N 
HETATM   13  N4  UNL     1      -6.739   6.843  16.439  1.00  0.00    -0.299 N 
ATOM     14  H3  UNL     1      -4.621   6.868  16.661  1.00  0.00     0.187 HD
HETATM   15  C20 UNL     1      -7.628   6.732  15.404  1.00  0.00     0.061 A 
HETATM   16  H19 UNL     1      -6.951   6.952  17.424  1.00  0.00     0.187 HD
HETATM   17  C21 UNL     1      -9.027   6.738  15.386  1.00  0.00     0.044 A 
HETATM   18  C26 UNL     1      -6.848   6.584  14.260  1.00  0.00     0.022 A 
HETATM   19  C22 UNL     1      -9.668   6.582  14.145  1.00  0.00     0.008 A 
HETATM   20  C24 UNL     1      -8.903   6.437  12.978  1.00  0.00     0.013 A 
HETATM   21  C25 UNL     1      -7.501   6.435  13.019  1.00  0.00     0.017 A 
BRANCH  19  22
HETATM   22  C23 UNL     1     -11.174   6.598  14.060  1.00  0.00     0.386 C 
HETATM   23  F1  UNL     1     -11.639   7.161  12.910  1.00  0.00    -0.209 F 
HETATM   24  F2  UNL     1     -11.750   7.301  15.077  1.00  0.00    -0.209 F 
ENDBRANCH  19  22
ENDBRANCH   7  11
BRANCH   1  25
HETATM   25  O2  UNL     1      -1.364   3.779  12.127  1.00  0.00    -0.349 OA
BRANCH  25  26
HETATM   26  C5  UNL     1      -1.911   3.148  10.965  1.00  0.00     0.195 C 
BRANCH  26  27
HETATM   27  C4  UNL     1      -2.292   1.693  11.240  1.00  0.00     0.149 C 
BRANCH  27  28
HETATM   28  N1  UNL     1      -3.705   1.559  11.541  1.00  0.00    -0.356 N 
HETATM   29  C3  UNL     1      -4.604   2.521  11.158  1.00  0.00     0.240 C 
HETATM   30  O1  UNL     1      -4.336   3.462  10.423  1.00  0.00    -0.269 OA
HETATM   31  H4  UNL     1      -3.940   0.940  12.307  1.00  0.00     0.162 HD
BRANCH  29  32
HETATM   32  C2  UNL     1      -5.951   2.316  11.746  1.00  0.00     0.064 C 
HETATM   33  C1  UNL     1      -6.497   3.248  12.538  1.00  0.00     0.017 C 
ENDBRANCH  29  32
ENDBRANCH  27  28
ENDBRANCH  26  27
ENDBRANCH  25  26
ENDBRANCH   1  25
BRANCH   3  34
HETATM   34  C9  UNL     1       0.918   8.110  11.121  1.00  0.00     0.077 C 
BRANCH  34  35
HETATM   35  C10 UNL     1       1.313   7.656   9.733  1.00  0.00    -0.054 A 
HETATM   36  C11 UNL     1       2.318   6.694   9.553  1.00  0.00     0.007 A 
HETATM   37  C12 UNL     1       2.692   6.291   8.269  1.00  0.00     0.001 A 
HETATM   38  C13 UNL     1       2.062   6.842   7.155  1.00  0.00     0.000 A 
HETATM   39  C14 UNL     1       1.060   7.798   7.321  1.00  0.00     0.001 A 
HETATM   40  C15 UNL     1       0.687   8.204   8.603  1.00  0.00     0.007 A 
ENDBRANCH  34  35
ENDBRANCH   3  34
TORSDOF 9
ENDMDL
MODEL 4
REMARK minimizedAffinity -9.34762955
REMARK  9 active torsions:
REMARK  status: ('A' for Active; 'I' for Inactive)
REMARK    1  A    between atoms: C2_2  and  C3_3 
REMARK       I    between atoms: C3_3  and  N1_5 
REMARK    2  A    between atoms: N1_5  and  C4_6 
REMARK    3  A    between atoms: C4_6  and  C5_7 
REMARK    4  A    between atoms: C5_7  and  O2_8 
REMARK    5  A    between atoms: O2_8  and  C6_9 
REMARK    6  A    between atoms: C8_11  and  C9_12 
REMARK    7  A    between atoms: C9_12  and  C10_13 
REMARK    8  A    between atoms: C18_22  and  C19_23 
REMARK    9  A    between atoms: C22_29  and  C23_30 
ROOT
HETATM    1  C6  UNL     1       2.176   8.004  15.384  1.00  0.00     0.082 A 
HETATM    2  C7  UNL     1       3.198   7.918  14.425  1.00  0.00     0.045 A 
HETATM    3  C8  UNL     1       2.958   7.433  13.124  1.00  0.00    -0.049 A 
HETATM    4  C16 UNL     1       1.671   7.013  12.755  1.00  0.00     0.038 A 
HETATM    5  C17 UNL     1       0.657   7.111  13.713  1.00  0.00     0.046 A 
HETATM    6  N2  UNL     1      -0.678   6.787  13.624  1.00  0.00    -0.354 N 
HETATM    7  C18 UNL     1      -1.316   7.058  14.807  1.00  0.00     0.062 A 
HETATM    8  C27 UNL     1      -0.381   7.555  15.682  1.00  0.00     0.048 A 
HETATM    9  C28 UNL     1       0.877   7.595  15.002  1.00  0.00     0.026 A 
HETATM   10  H18 UNL     1      -1.151   6.415  12.810  1.00  0.00     0.166 HD
ENDROOT
BRANCH   7  11
HETATM   11  C19 UNL     1      -2.839   6.813  15.000  1.00  0.00     0.087 A 
HETATM   12  N3  UNL     1      -3.469   7.442  16.004  1.00  0.00    -0.297 N 
HETATM   13  N4  UNL     1      -4.734   7.005  15.902  1.00  0.00    -0.299 N 
ATOM     14  H3  UNL     1      -3.080   8.096  16.683  1.00  0.00     0.187 HD
HETATM   15  C20 UNL     1      -4.950   6.136  14.866  1.00  0.00     0.061 A 
HETATM   16  H19 UNL     1      -5.411   7.338  16.578  1.00  0.00     0.187 HD
HETATM   17  C21 UNL     1      -6.110   5.479  14.442  1.00  0.00     0.044 A 
HETATM   18  C26 UNL     1      -3.712   5.983  14.246  1.00  0.00     0.022 A 
HETATM   19  C22 UNL     1      -6.009   4.619  13.336  1.00  0.00     0.008 A 
HETATM   20  C24 UNL     1      -4.774   4.452  12.691  1.00  0.00     0.013 A 
HETATM   21  C25 UNL     1      -3.623   5.122  13.134  1.00  0.00     0.017 A 
BRANCH  19  22
HETATM   22  C23 UNL     1      -7.229   3.896  12.821  1.00  0.00     0.386 C 
HETATM   23  F1  UNL     1      -8.154   4.731  12.271  1.00  0.00    -0.209 F 
HETATM   24  F2  UNL     1      -7.885   3.210  13.800  1.00  0.00    -0.209 F 
ENDBRANCH  19  22
ENDBRANCH   7  11
BRANCH   1  25
HETATM   25  O2  UNL     1       2.325   8.458  16.665  1.00  0.00    -0.349 OA
BRANCH  25  26
HETATM   26  C5  UNL     1       2.538   9.853  16.896  1.00  0.00     0.195 C 
BRANCH  26  27
HETATM   27  C4  UNL     1       1.619  10.389  17.995  1.00  0.00     0.149 C 
BRANCH  27  28
HETATM   28  N1  UNL     1       2.089  10.013  19.315  1.00  0.00    -0.356 N 
HETATM   29  C3  UNL     1       1.610  10.636  20.440  1.00  0.00     0.240 C 
HETATM   30  O1  UNL     1       0.671  11.421  20.446  1.00  0.00    -0.269 OA
HETATM   31  H4  UNL     1       2.987   9.548  19.353  1.00  0.00     0.162 HD
BRANCH  29  32
HETATM   32  C2  UNL     1       2.366  10.274  21.664  1.00  0.00     0.064 C 
HETATM   33  C1  UNL     1       2.468   8.994  22.047  1.00  0.00     0.017 C 
ENDBRANCH  29  32
ENDBRANCH  27  28
ENDBRANCH  26  27
ENDBRANCH  25  26
ENDBRANCH   1  25
BRANCH   3  34
HETATM   34  C9  UNL     1       4.094   7.351  12.123  1.00  0.00     0.077 C 
BRANCH  34  35
HETATM   35  C10 UNL     1       3.643   7.056  10.709  1.00  0.00    -0.054 A 
HETATM   36  C11 UNL     1       3.306   8.098   9.832  1.00  0.00     0.007 A 
HETATM   37  C12 UNL     1       2.873   7.819   8.534  1.00  0.00     0.001 A 
HETATM   38  C13 UNL     1       2.777   6.499   8.100  1.00  0.00     0.000 A 
HETATM   39  C14 UNL     1       3.111   5.455   8.962  1.00  0.00     0.001 A 
HETATM   40  C15 UNL     1       3.541   5.730  10.260  1.00  0.00     0.007 A 
ENDBRANCH  34  35
ENDBRANCH   3  34
TORSDOF 9
ENDMDL
MODEL 5
REMARK minimizedAffinity -9.31326389
REMARK  9 active torsions:
REMARK  status: ('A' for Active; 'I' for Inactive)
REMARK    1  A    between atoms: C2_2  and  C3_3 
REMARK       I    between atoms: C3_3  and  N1_5 
REMARK    2  A    between atoms: N1_5  and  C4_6 
REMARK    3  A    between atoms: C4_6  and  C5_7 
REMARK    4  A    between atoms: C5_7  and  O2_8 
REMARK    5  A    between atoms: O2_8  and  C6_9 
REMARK    6  A    between atoms: C8_11  and  C9_12 
REMARK    7  A    between atoms: C9_12  and  C10_13 
REMARK    8  A    between atoms: C18_22  and  C19_23 
REMARK    9  A    between atoms: C22_29  and  C23_30 
ROOT
HETATM    1  C6  UNL     1      -2.338   6.462  12.886  1.00  0.00     0.082 A 
HETATM    2  C7  UNL     1      -3.394   5.536  12.892  1.00  0.00     0.045 A 
HETATM    3  C8  UNL     1      -3.262   4.254  12.324  1.00  0.00    -0.049 A 
HETATM    4  C16 UNL     1      -2.052   3.870  11.726  1.00  0.00     0.038 A 
HETATM    5  C17 UNL     1      -1.002   4.794  11.732  1.00  0.00     0.046 A 
HETATM    6  N2  UNL     1       0.276   4.685  11.234  1.00  0.00    -0.354 N 
HETATM    7  C18 UNL     1       0.982   5.835  11.471  1.00  0.00     0.062 A 
HETATM    8  C27 UNL     1       0.148   6.712  12.122  1.00  0.00     0.048 A 
HETATM    9  C28 UNL     1      -1.116   6.065  12.296  1.00  0.00     0.026 A 
HETATM   10  H18 UNL     1       0.670   3.876  10.770  1.00  0.00     0.166 HD
ENDROOT
BRANCH   7  11
HETATM   11  C19 UNL     1       2.467   5.998  11.039  1.00  0.00     0.087 A 
HETATM   12  N3  UNL     1       3.064   4.984  10.395  1.00  0.00    -0.297 N 
HETATM   13  N4  UNL     1       4.312   5.434  10.192  1.00  0.00    -0.299 N 
ATOM     14  H3  UNL     1       2.665   4.085  10.124  1.00  0.00     0.187 HD
HETATM   15  C20 UNL     1       4.540   6.700  10.661  1.00  0.00     0.061 A 
HETATM   16  H19 UNL     1       4.971   4.824   9.724  1.00  0.00     0.187 HD
HETATM   17  C21 UNL     1       5.688   7.499  10.637  1.00  0.00     0.044 A 
HETATM   18  C26 UNL     1       3.336   7.106  11.233  1.00  0.00     0.022 A 
HETATM   19  C22 UNL     1       5.614   8.772  11.228  1.00  0.00     0.008 A 
HETATM   20  C24 UNL     1       4.411   9.205  11.806  1.00  0.00     0.013 A 
HETATM   21  C25 UNL     1       3.271   8.387  11.818  1.00  0.00     0.017 A 
BRANCH  19  22
HETATM   22  C23 UNL     1       6.814   9.686  11.218  1.00  0.00     0.386 C 
HETATM   23  F1  UNL     1       6.595  10.864  11.865  1.00  0.00    -0.209 F 
HETATM   24  F2  UNL     1       7.208  10.023   9.956  1.00  0.00    -0.209 F 
ENDBRANCH  19  22
ENDBRANCH   7  11
BRANCH   1  25
HETATM   25  O2  UNL     1      -2.386   7.724  13.409  1.00  0.00    -0.349 OA
BRANCH  25  26
HETATM   26  C5  UNL     1      -3.039   7.941  14.664  1.00  0.00     0.195 C 
BRANCH  26  27
HETATM   27  C4  UNL     1      -2.085   7.735  15.840  1.00  0.00     0.149 C 
BRANCH  27  28
HETATM   28  N1  UNL     1      -2.561   8.400  17.038  1.00  0.00    -0.356 N 
HETATM   29  C3  UNL     1      -2.230   9.705  17.300  1.00  0.00     0.240 C 
HETATM   30  O1  UNL     1      -1.660  10.444  16.509  1.00  0.00    -0.269 OA
HETATM   31  H4  UNL     1      -2.836   7.797  17.803  1.00  0.00     0.162 HD
BRANCH  29  32
HETATM   32  C2  UNL     1      -2.621  10.134  18.666  1.00  0.00     0.064 C 
HETATM   33  C1  UNL     1      -3.669  10.947  18.851  1.00  0.00     0.017 C 
ENDBRANCH  29  32
ENDBRANCH  27  28
ENDBRANCH  26  27
ENDBRANCH  25  26
ENDBRANCH   1  25
BRANCH   3  34
HETATM   34  C9  UNL     1      -4.431   3.290  12.347  1.00  0.00     0.077 C 
BRANCH  34  35
HETATM   35  C10 UNL     1      -5.747   3.931  12.731  1.00  0.00    -0.054 A 
HETATM   36  C11 UNL     1      -6.958   3.248  12.549  1.00  0.00     0.007 A 
HETATM   37  C12 UNL     1      -8.171   3.851  12.887  1.00  0.00     0.001 A 
HETATM   38  C13 UNL     1      -8.184   5.141  13.415  1.00  0.00     0.000 A 
HETATM   39  C14 UNL     1      -6.985   5.830  13.603  1.00  0.00     0.001 A 
HETATM   40  C15 UNL     1      -5.773   5.230  13.263  1.00  0.00     0.007 A 
ENDBRANCH  34  35
ENDBRANCH   3  34
TORSDOF 9
ENDMDL
MODEL 6
REMARK minimizedAffinity -9.26498127
REMARK  9 active torsions:
REMARK  status: ('A' for Active; 'I' for Inactive)
REMARK    1  A    between atoms: C2_2  and  C3_3 
REMARK       I    between atoms: C3_3  and  N1_5 
REMARK    2  A    between atoms: N1_5  and  C4_6 
REMARK    3  A    between atoms: C4_6  and  C5_7 
REMARK    4  A    between atoms: C5_7  and  O2_8 
REMARK    5  A    between atoms: O2_8  and  C6_9 
REMARK    6  A    between atoms: C8_11  and  C9_12 
REMARK    7  A    between atoms: C9_12  and  C10_13 
REMARK    8  A    between atoms: C18_22  and  C19_23 
REMARK    9  A    between atoms: C22_29  and  C23_30 
ROOT
HETATM    1  C6  UNL     1      -6.327   4.879  13.241  1.00  0.00     0.082 A 
HETATM    2  C7  UNL     1      -7.451   5.241  14.000  1.00  0.00     0.045 A 
HETATM    3  C8  UNL     1      -7.338   6.003  15.180  1.00  0.00    -0.049 A 
HETATM    4  C16 UNL     1      -6.076   6.418  15.631  1.00  0.00     0.038 A 
HETATM    5  C17 UNL     1      -4.962   6.062  14.865  1.00  0.00     0.046 A 
HETATM    6  N2  UNL     1      -3.628   6.337  15.061  1.00  0.00    -0.354 N 
HETATM    7  C18 UNL     1      -2.874   5.802  14.049  1.00  0.00     0.062 A 
HETATM    8  C27 UNL     1      -3.729   5.157  13.187  1.00  0.00     0.048 A 
HETATM    9  C28 UNL     1      -5.058   5.314  13.691  1.00  0.00     0.026 A 
HETATM   10  H18 UNL     1      -3.233   6.871  15.824  1.00  0.00     0.166 HD
ENDROOT
BRANCH   7  11
HETATM   11  C19 UNL     1      -1.330   5.969  13.989  1.00  0.00     0.087 A 
HETATM   12  N3  UNL     1      -0.643   6.016  15.141  1.00  0.00    -0.297 N 
HETATM   13  N4  UNL     1       0.627   6.182  14.741  1.00  0.00    -0.299 N 
ATOM     14  H3  UNL     1      -1.001   5.942  16.093  1.00  0.00     0.187 HD
HETATM   15  C20 UNL     1       0.791   6.227  13.383  1.00  0.00     0.061 A 
HETATM   16  H19 UNL     1       1.346   6.261  15.451  1.00  0.00     0.187 HD
HETATM   17  C21 UNL     1       1.939   6.384  12.597  1.00  0.00     0.044 A 
HETATM   18  C26 UNL     1      -0.489   6.092  12.850  1.00  0.00     0.022 A 
HETATM   19  C22 UNL     1       1.780   6.410  11.202  1.00  0.00     0.008 A 
HETATM   20  C24 UNL     1       0.501   6.270  10.642  1.00  0.00     0.013 A 
HETATM   21  C25 UNL     1      -0.636   6.113  11.448  1.00  0.00     0.017 A 
BRANCH  19  22
HETATM   22  C23 UNL     1       2.982   6.559  10.303  1.00  0.00     0.386 C 
HETATM   23  F1  UNL     1       2.673   6.480   8.978  1.00  0.00    -0.209 F 
HETATM   24  F2  UNL     1       3.924   5.597  10.521  1.00  0.00    -0.209 F 
ENDBRANCH  19  22
ENDBRANCH   7  11
BRANCH   1  25
HETATM   25  O2  UNL     1      -6.350   4.140  12.091  1.00  0.00    -0.349 OA
BRANCH  25  26
HETATM   26  C5  UNL     1      -6.349   2.712  12.172  1.00  0.00     0.195 C 
BRANCH  26  27
HETATM   27  C4  UNL     1      -5.468   2.086  11.091  1.00  0.00     0.149 C 
BRANCH  27  28
HETATM   28  N1  UNL     1      -4.082   2.000  11.512  1.00  0.00    -0.356 N 
HETATM   29  C3  UNL     1      -3.110   2.746  10.897  1.00  0.00     0.240 C 
HETATM   30  O1  UNL     1      -3.331   3.628  10.079  1.00  0.00    -0.269 OA
HETATM   31  H4  UNL     1      -3.820   1.159  12.011  1.00  0.00     0.162 HD
BRANCH  29  32
HETATM   32  C2  UNL     1      -1.739   2.358  11.314  1.00  0.00     0.064 C 
HETATM   33  C1  UNL     1      -1.127   1.308  10.749  1.00  0.00     0.017 C 
ENDBRANCH  29  32
ENDBRANCH  27  28
ENDBRANCH  26  27
ENDBRANCH  25  26
ENDBRANCH   1  25
BRANCH   3  34
HETATM   34  C9  UNL     1      -8.579   6.365  15.972  1.00  0.00     0.077 C 
BRANCH  34  35
HETATM   35  C10 UNL     1      -9.386   7.490  15.363  1.00  0.00    -0.054 A 
HETATM   36  C11 UNL     1      -9.003   8.828  15.545  1.00  0.00     0.007 A 
HETATM   37  C12 UNL     1      -9.762   9.864  14.996  1.00  0.00     0.001 A 
HETATM   38  C13 UNL     1     -10.908   9.573  14.258  1.00  0.00     0.000 A 
HETATM   39  C14 UNL     1     -11.297   8.247  14.069  1.00  0.00     0.001 A 
HETATM   40  C15 UNL     1     -10.542   7.211  14.618  1.00  0.00     0.007 A 
ENDBRANCH  34  35
ENDBRANCH   3  34
TORSDOF 9
ENDMDL
MODEL 7
REMARK minimizedAffinity -9.2625494
REMARK  9 active torsions:
REMARK  status: ('A' for Active; 'I' for Inactive)
REMARK    1  A    between atoms: C2_2  and  C3_3 
REMARK       I    between atoms: C3_3  and  N1_5 
REMARK    2  A    between atoms: N1_5  and  C4_6 
REMARK    3  A    between atoms: C4_6  and  C5_7 
REMARK    4  A    between atoms: C5_7  and  O2_8 
REMARK    5  A    between atoms: O2_8  and  C6_9 
REMARK    6  A    between atoms: C8_11  and  C9_12 
REMARK    7  A    between atoms: C9_12  and  C10_13 
REMARK    8  A    between atoms: C18_22  and  C19_23 
REMARK    9  A    between atoms: C22_29  and  C23_30 
ROOT
HETATM    1  C6  UNL     1       0.012   6.194  13.968  1.00  0.00     0.082 A 
HETATM    2  C7  UNL     1       1.177   6.289  13.191  1.00  0.00     0.045 A 
HETATM    3  C8  UNL     1       1.214   5.858  11.850  1.00  0.00    -0.049 A 
HETATM    4  C16 UNL     1       0.067   5.311  11.255  1.00  0.00     0.038 A 
HETATM    5  C17 UNL     1      -1.092   5.228  12.032  1.00  0.00     0.046 A 
HETATM    6  N2  UNL     1      -2.343   4.753  11.709  1.00  0.00    -0.354 N 
HETATM    7  C18 UNL     1      -3.192   4.874  12.778  1.00  0.00     0.062 A 
HETATM    8  C27 UNL     1      -2.481   5.425  13.817  1.00  0.00     0.048 A 
HETATM    9  C28 UNL     1      -1.146   5.656  13.359  1.00  0.00     0.026 A 
HETATM   10  H18 UNL     1      -2.627   4.378  10.813  1.00  0.00     0.166 HD
ENDROOT
BRANCH   7  11
HETATM   11  C19 UNL     1      -4.682   4.437  12.704  1.00  0.00     0.087 A 
HETATM   12  N3  UNL     1      -4.971   3.212  12.240  1.00  0.00    -0.297 N 
HETATM   13  N4  UNL     1      -6.312   3.168  12.289  1.00  0.00    -0.299 N 
ATOM     14  H3  UNL     1      -4.326   2.487  11.924  1.00  0.00     0.187 HD
HETATM   15  C20 UNL     1      -6.898   4.303  12.780  1.00  0.00     0.061 A 
HETATM   16  H19 UNL     1      -6.775   2.326  11.967  1.00  0.00     0.187 HD
HETATM   17  C21 UNL     1      -8.243   4.632  12.983  1.00  0.00     0.044 A 
HETATM   18  C26 UNL     1      -5.845   5.170  13.065  1.00  0.00     0.022 A 
HETATM   19  C22 UNL     1      -8.535   5.907  13.495  1.00  0.00     0.008 A 
HETATM   20  C24 UNL     1      -7.492   6.796  13.795  1.00  0.00     0.013 A 
HETATM   21  C25 UNL     1      -6.150   6.445  13.584  1.00  0.00     0.017 A 
BRANCH  19  22
HETATM   22  C23 UNL     1      -9.966   6.313  13.752  1.00  0.00     0.386 C 
HETATM   23  F1  UNL     1     -10.492   7.077  12.755  1.00  0.00    -0.209 F 
HETATM   24  F2  UNL     1     -10.108   7.044  14.894  1.00  0.00    -0.209 F 
ENDBRANCH  19  22
ENDBRANCH   7  11
BRANCH   1  25
HETATM   25  O2  UNL     1      -0.106   6.583  15.273  1.00  0.00    -0.349 OA
BRANCH  25  26
HETATM   26  C5  UNL     1       0.642   7.709  15.742  1.00  0.00     0.195 C 
BRANCH  26  27
HETATM   27  C4  UNL     1      -0.055   9.029  15.408  1.00  0.00     0.149 C 
BRANCH  27  28
HETATM   28  N1  UNL     1      -0.541   9.694  16.602  1.00  0.00    -0.356 N 
HETATM   29  C3  UNL     1      -1.857   9.601  16.977  1.00  0.00     0.240 C 
HETATM   30  O1  UNL     1      -2.672   8.855  16.452  1.00  0.00    -0.269 OA
HETATM   31  H4  UNL     1       0.014  10.472  16.936  1.00  0.00     0.162 HD
BRANCH  29  32
HETATM   32  C2  UNL     1      -2.204  10.522  18.088  1.00  0.00     0.064 C 
HETATM   33  C1  UNL     1      -3.366  10.391  18.743  1.00  0.00     0.017 C 
ENDBRANCH  29  32
ENDBRANCH  27  28
ENDBRANCH  26  27
ENDBRANCH  25  26
ENDBRANCH   1  25
BRANCH   3  34
HETATM   34  C9  UNL     1       2.497   5.974  11.051  1.00  0.00     0.077 C 
BRANCH  34  35
HETATM   35  C10 UNL     1       2.297   6.497   9.645  1.00  0.00    -0.054 A 
HETATM   36  C11 UNL     1       1.648   7.721   9.421  1.00  0.00     0.007 A 
HETATM   37  C12 UNL     1       1.450   8.191   8.122  1.00  0.00     0.001 A 
HETATM   38  C13 UNL     1       1.901   7.445   7.034  1.00  0.00     0.000 A 
HETATM   39  C14 UNL     1       2.549   6.228   7.245  1.00  0.00     0.001 A 
HETATM   40  C15 UNL     1       2.746   5.755   8.542  1.00  0.00     0.007 A 
ENDBRANCH  34  35
ENDBRANCH   3  34
TORSDOF 9
ENDMDL
MODEL 8
REMARK minimizedAffinity -9.20956707
REMARK  9 active torsions:
REMARK  status: ('A' for Active; 'I' for Inactive)
REMARK    1  A    between atoms: C2_2  and  C3_3 
REMARK       I    between atoms: C3_3  and  N1_5 
REMARK    2  A    between atoms: N1_5  and  C4_6 
REMARK    3  A    between atoms: C4_6  and  C5_7 
REMARK    4  A    between atoms: C5_7  and  O2_8 
REMARK    5  A    between atoms: O2_8  and  C6_9 
REMARK    6  A    between atoms: C8_11  and  C9_12 
REMARK    7  A    between atoms: C9_12  and  C10_13 
REMARK    8  A    between atoms: C18_22  and  C19_23 
REMARK    9  A    between atoms: C22_29  and  C23_30 
ROOT
HETATM    1  C6  UNL     1      -2.181   5.768  13.046  1.00  0.00     0.082 A 
HETATM    2  C7  UNL     1      -3.233   4.862  12.834  1.00  0.00     0.045 A 
HETATM    3  C8  UNL     1      -3.114   3.781  11.940  1.00  0.00    -0.049 A 
HETATM    4  C16 UNL     1      -1.923   3.585  11.225  1.00  0.00     0.038 A 
HETATM    5  C17 UNL     1      -0.877   4.486  11.448  1.00  0.00     0.046 A 
HETATM    6  N2  UNL     1       0.386   4.529  10.901  1.00  0.00    -0.354 N 
HETATM    7  C18 UNL     1       1.096   5.582  11.417  1.00  0.00     0.062 A 
HETATM    8  C27 UNL     1       0.279   6.242  12.304  1.00  0.00     0.048 A 
HETATM    9  C28 UNL     1      -0.976   5.558  12.335  1.00  0.00     0.026 A 
HETATM   10  H18 UNL     1       0.768   3.879  10.226  1.00  0.00     0.166 HD
ENDROOT
BRANCH   7  11
HETATM   11  C19 UNL     1       2.565   5.872  11.002  1.00  0.00     0.087 A 
HETATM   12  N3  UNL     1       3.254   4.914  10.363  1.00  0.00    -0.297 N 
HETATM   13  N4  UNL     1       4.461   5.469  10.174  1.00  0.00    -0.299 N 
ATOM     14  H3  UNL     1       2.936   3.984  10.087  1.00  0.00     0.187 HD
HETATM   15  C20 UNL     1       4.574   6.749  10.647  1.00  0.00     0.061 A 
HETATM   16  H19 UNL     1       5.175   4.918   9.712  1.00  0.00     0.187 HD
HETATM   17  C21 UNL     1       5.651   7.644  10.636  1.00  0.00     0.044 A 
HETATM   18  C26 UNL     1       3.334   7.049  11.206  1.00  0.00     0.022 A 
HETATM   19  C22 UNL     1       5.462   8.904  11.227  1.00  0.00     0.008 A 
HETATM   20  C24 UNL     1       4.220   9.231  11.792  1.00  0.00     0.013 A 
HETATM   21  C25 UNL     1       3.154   8.319  11.791  1.00  0.00     0.017 A 
BRANCH  19  22
HETATM   22  C23 UNL     1       6.580   9.917  11.230  1.00  0.00     0.386 C 
HETATM   23  F1  UNL     1       6.160  11.177  11.534  1.00  0.00    -0.209 F 
HETATM   24  F2  UNL     1       7.203  10.016  10.021  1.00  0.00    -0.209 F 
ENDBRANCH  19  22
ENDBRANCH   7  11
BRANCH   1  25
HETATM   25  O2  UNL     1      -2.216   6.843  13.890  1.00  0.00    -0.349 OA
BRANCH  25  26
HETATM   26  C5  UNL     1      -2.715   6.676  15.220  1.00  0.00     0.195 C 
BRANCH  26  27
HETATM   27  C4  UNL     1      -3.458   7.921  15.705  1.00  0.00     0.149 C 
BRANCH  27  28
HETATM   28  N1  UNL     1      -4.870   7.656  15.909  1.00  0.00    -0.356 N 
HETATM   29  C3  UNL     1      -5.808   8.090  15.008  1.00  0.00     0.240 C 
HETATM   30  O1  UNL     1      -5.543   8.582  13.919  1.00  0.00    -0.269 OA
HETATM   31  H4  UNL     1      -5.153   7.459  16.861  1.00  0.00     0.162 HD
BRANCH  29  32
HETATM   32  C2  UNL     1      -7.198   7.920  15.498  1.00  0.00     0.064 C 
HETATM   33  C1  UNL     1      -7.473   7.046  16.475  1.00  0.00     0.017 C 
ENDBRANCH  29  32
ENDBRANCH  27  28
ENDBRANCH  26  27
ENDBRANCH  25  26
ENDBRANCH   1  25
BRANCH   3  34
HETATM   34  C9  UNL     1      -4.279   2.832  11.738  1.00  0.00     0.077 C 
BRANCH  34  35
HETATM   35  C10 UNL     1      -5.593   3.351  12.279  1.00  0.00    -0.054 A 
HETATM   36  C11 UNL     1      -6.700   2.499  12.414  1.00  0.00     0.007 A 
HETATM   37  C12 UNL     1      -7.915   2.988  12.897  1.00  0.00     0.001 A 
HETATM   38  C13 UNL     1      -8.036   4.330  13.252  1.00  0.00     0.000 A 
HETATM   39  C14 UNL     1      -6.941   5.186  13.124  1.00  0.00     0.001 A 
HETATM   40  C15 UNL     1      -5.727   4.701  12.639  1.00  0.00     0.007 A 
ENDBRANCH  34  35
ENDBRANCH   3  34
TORSDOF 9
ENDMDL
MODEL 9
REMARK minimizedAffinity -9.19877815
REMARK  9 active torsions:
REMARK  status: ('A' for Active; 'I' for Inactive)
REMARK    1  A    between atoms: C2_2  and  C3_3 
REMARK       I    between atoms: C3_3  and  N1_5 
REMARK    2  A    between atoms: N1_5  and  C4_6 
REMARK    3  A    between atoms: C4_6  and  C5_7 
REMARK    4  A    between atoms: C5_7  and  O2_8 
REMARK    5  A    between atoms: O2_8  and  C6_9 
REMARK    6  A    between atoms: C8_11  and  C9_12 
REMARK    7  A    between atoms: C9_12  and  C10_13 
REMARK    8  A    between atoms: C18_22  and  C19_23 
REMARK    9  A    between atoms: C22_29  and  C23_30 
ROOT
HETATM    1  C6  UNL     1       1.818   7.786  13.737  1.00  0.00     0.082 A 
HETATM    2  C7  UNL     1       2.691   7.384  12.714  1.00  0.00     0.045 A 
HETATM    3  C8  UNL     1       2.290   6.491  11.701  1.00  0.00    -0.049 A 
HETATM    4  C16 UNL     1       0.986   5.973  11.695  1.00  0.00     0.038 A 
HETATM    5  C17 UNL     1       0.119   6.385  12.712  1.00  0.00     0.046 A 
HETATM    6  N2  UNL     1      -1.196   6.049  12.944  1.00  0.00    -0.354 N 
HETATM    7  C18 UNL     1      -1.667   6.701  14.054  1.00  0.00     0.062 A 
HETATM    8  C27 UNL     1      -0.641   7.462  14.559  1.00  0.00     0.048 A 
HETATM    9  C28 UNL     1       0.500   7.272  13.718  1.00  0.00     0.026 A 
HETATM   10  H18 UNL     1      -1.762   5.427  12.382  1.00  0.00     0.166 HD
ENDROOT
BRANCH   7  11
HETATM   11  C19 UNL     1      -3.131   6.535  14.551  1.00  0.00     0.087 A 
HETATM   12  N3  UNL     1      -3.524   7.221  15.634  1.00  0.00    -0.297 N 
HETATM   13  N4  UNL     1      -4.801   6.843  15.798  1.00  0.00    -0.299 N 
ATOM     14  H3  UNL     1      -2.982   7.876  16.199  1.00  0.00     0.187 HD
HETATM   15  C20 UNL     1      -5.253   5.956  14.858  1.00  0.00     0.061 A 
HETATM   16  H19 UNL     1      -5.317   7.227  16.581  1.00  0.00     0.187 HD
HETATM   17  C21 UNL     1      -6.500   5.342  14.694  1.00  0.00     0.044 A 
HETATM   18  C26 UNL     1      -4.169   5.726  14.014  1.00  0.00     0.022 A 
HETATM   19  C22 UNL     1      -6.654   4.447  13.623  1.00  0.00     0.008 A 
HETATM   20  C24 UNL     1      -5.579   4.203  12.756  1.00  0.00     0.013 A 
HETATM   21  C25 UNL     1      -4.337   4.830  12.939  1.00  0.00     0.017 A 
BRANCH  19  22
HETATM   22  C23 UNL     1      -7.981   3.769  13.385  1.00  0.00     0.386 C 
HETATM   23  F1  UNL     1      -7.871   2.614  12.670  1.00  0.00    -0.209 F 
HETATM   24  F2  UNL     1      -8.855   4.552  12.690  1.00  0.00    -0.209 F 
ENDBRANCH  19  22
ENDBRANCH   7  11
BRANCH   1  25
HETATM   25  O2  UNL     1       2.129   8.642  14.756  1.00  0.00    -0.349 OA
BRANCH  25  26
HETATM   26  C5  UNL     1       3.213   8.325  15.634  1.00  0.00     0.195 C 
BRANCH  26  27
HETATM   27  C4  UNL     1       4.422   9.227  15.386  1.00  0.00     0.149 C 
BRANCH  27  28
HETATM   28  N1  UNL     1       5.512   8.500  14.762  1.00  0.00    -0.356 N 
HETATM   29  C3  UNL     1       6.692   8.287  15.427  1.00  0.00     0.240 C 
HETATM   30  O1  UNL     1       6.871   8.540  16.611  1.00  0.00    -0.269 OA
HETATM   31  H4  UNL     1       5.502   8.465  13.750  1.00  0.00     0.162 HD
BRANCH  29  32
HETATM   32  C2  UNL     1       7.752   7.728  14.552  1.00  0.00     0.064 C 
HETATM   33  C1  UNL     1       9.046   7.896  14.858  1.00  0.00     0.017 C 
ENDBRANCH  29  32
ENDBRANCH  27  28
ENDBRANCH  26  27
ENDBRANCH  25  26
ENDBRANCH   1  25
BRANCH   3  34
HETATM   34  C9  UNL     1       3.270   6.080  10.620  1.00  0.00     0.077 C 
BRANCH  34  35
HETATM   35  C10 UNL     1       2.851   6.491   9.225  1.00  0.00    -0.054 A 
HETATM   36  C11 UNL     1       2.372   7.786   8.973  1.00  0.00     0.007 A 
HETATM   37  C12 UNL     1       1.970   8.155   7.688  1.00  0.00     0.001 A 
HETATM   38  C13 UNL     1       2.047   7.237   6.643  1.00  0.00     0.000 A 
HETATM   39  C14 UNL     1       2.524   5.947   6.881  1.00  0.00     0.001 A 
HETATM   40  C15 UNL     1       2.924   5.575   8.164  1.00  0.00     0.007 A 
ENDBRANCH  34  35
ENDBRANCH   3  34
TORSDOF 9
ENDMDL
