MODEL 1
REMARK minimizedAffinity -8.75796604
REMARK  7 active torsions:
REMARK  status: ('A' for Active; 'I' for Inactive)
REMARK    1  A    between atoms: O1_2  and  C2_3 
REMARK    2  A    between atoms: C2_3  and  C3_5 
REMARK    3  A    between atoms: C3_5  and  N1_6 
REMARK    4  A    between atoms: C6_9  and  N2_10 
REMARK    5  A    between atoms: C8_12  and  C9_13 
REMARK    6  A    between atoms: C13_17  and  O3_18 
REMARK    7  A    between atoms: C16_21  and  N3_22 
ROOT
HETATM    1  N2  UNL     1       7.947  -6.330  29.966  1.00  0.00    -0.337 N 
HETATM    2  C7  UNL     1       7.576  -7.418  29.219  1.00  0.00     0.106 A 
HETATM    3  C8  UNL     1       6.258  -7.253  28.836  1.00  0.00     0.007 A 
HETATM    4  C15 UNL     1       5.800  -6.020  29.380  1.00  0.00     0.064 A 
HETATM    5  C16 UNL     1       4.608  -5.278  29.376  1.00  0.00     0.114 A 
HETATM    6  N4  UNL     1       4.560  -4.118  30.060  1.00  0.00    -0.338 N 
ATOM      7  H4  UNL     1       3.705  -3.562  30.089  1.00  0.00     0.168 HD
HETATM    8  C17 UNL     1       5.669  -3.710  30.705  1.00  0.00     0.183 A 
HETATM    9  N5  UNL     1       6.860  -4.325  30.775  1.00  0.00    -0.338 N 
ATOM     10  H5  UNL     1       7.663  -3.959  31.286  1.00  0.00     0.168 HD
HETATM   11  C18 UNL     1       6.865  -5.482  30.090  1.00  0.00     0.123 A 
ENDROOT
BRANCH   1  12
HETATM   12  C6  UNL     1       9.256  -6.045  30.563  1.00  0.00     0.094 C 
HETATM   13  C5  UNL     1      10.334  -5.523  29.595  1.00  0.00     0.056 C 
HETATM   14  C4  UNL     1      10.331  -4.002  29.410  1.00  0.00     0.275 C 
HETATM   15  N1  UNL     1      10.260  -3.237  30.658  1.00  0.00     0.098 N 
HETATM   16  C20 UNL     1       9.107  -3.671  31.460  1.00  0.00     0.275 C 
HETATM   17  C19 UNL     1       9.129  -5.157  31.809  1.00  0.00     0.056 C 
BRANCH  15  18
HETATM   18  C3  UNL     1      11.545  -3.259  31.390  1.00  0.00     0.382 C 
BRANCH  18  19
HETATM   19  C2  UNL     1      11.737  -2.018  32.254  1.00  0.00     0.286 C 
HETATM   20  O2  UNL     1      12.350  -1.019  31.897  1.00  0.00    -0.263 OA
BRANCH  19  21
HETATM   21  O1  UNL     1      11.147  -2.181  33.476  1.00  0.00    -0.325 OA
HETATM   22  C1  UNL     1      12.053  -2.553  34.514  1.00  0.00     0.213 C 
ENDBRANCH  19  21
ENDBRANCH  18  19
ENDBRANCH  15  18
ENDBRANCH   1  12
BRANCH   3  23
HETATM   23  C9  UNL     1       5.560  -8.226  28.022  1.00  0.00    -0.021 A 
HETATM   24  C10 UNL     1       4.181  -8.100  27.813  1.00  0.00     0.012 A 
HETATM   25  C11 UNL     1       3.501  -9.047  27.043  1.00  0.00     0.004 A 
HETATM   26  C12 UNL     1       4.197 -10.122  26.491  1.00  0.00     0.036 A 
HETATM   27  C13 UNL     1       5.567 -10.247  26.709  1.00  0.00     0.066 A 
HETATM   28  C14 UNL     1       6.261  -9.306  27.468  1.00  0.00     0.049 A 
BRANCH  27  29
HETATM   29  O3  UNL     1       6.202 -11.320  26.159  1.00  0.00    -0.361 OA
HETATM   30  H15 UNL     1       7.146 -11.270  26.376  1.00  0.00     0.217 HD
ENDBRANCH  27  29
ENDBRANCH   3  23
BRANCH   5  31
HETATM   31  N3  UNL     1       3.453  -5.663  28.716  1.00  0.00    -0.385 N 
HETATM   32  H17 UNL     1       3.356  -6.657  28.534  1.00  0.00     0.157 HD
HETATM   33  H18 UNL     1       2.640  -5.176  29.071  1.00  0.00     0.157 HD
ENDBRANCH   5  31
TORSDOF 7
ENDMDL
MODEL 2
REMARK minimizedAffinity -8.71664238
REMARK  7 active torsions:
REMARK  status: ('A' for Active; 'I' for Inactive)
REMARK    1  A    between atoms: O1_2  and  C2_3 
REMARK    2  A    between atoms: C2_3  and  C3_5 
REMARK    3  A    between atoms: C3_5  and  N1_6 
REMARK    4  A    between atoms: C6_9  and  N2_10 
REMARK    5  A    between atoms: C8_12  and  C9_13 
REMARK    6  A    between atoms: C13_17  and  O3_18 
REMARK    7  A    between atoms: C16_21  and  N3_22 
ROOT
HETATM    1  N2  UNL     1       8.131  -5.899  29.919  1.00  0.00    -0.337 N 
HETATM    2  C7  UNL     1       6.808  -6.260  29.929  1.00  0.00     0.106 A 
HETATM    3  C8  UNL     1       6.463  -6.680  28.658  1.00  0.00     0.007 A 
HETATM    4  C15 UNL     1       7.617  -6.562  27.833  1.00  0.00     0.064 A 
HETATM    5  C16 UNL     1       7.949  -6.807  26.492  1.00  0.00     0.114 A 
HETATM    6  N4  UNL     1       9.198  -6.531  26.067  1.00  0.00    -0.338 N 
ATOM      7  H4  UNL     1       9.466  -6.685  25.095  1.00  0.00     0.168 HD
HETATM    8  C17 UNL     1      10.082  -6.047  26.957  1.00  0.00     0.183 A 
HETATM    9  N5  UNL     1       9.888  -5.779  28.258  1.00  0.00    -0.338 N 
ATOM     10  H5  UNL     1      10.606  -5.408  28.880  1.00  0.00     0.168 HD
HETATM   11  C18 UNL     1       8.629  -6.057  28.641  1.00  0.00     0.123 A 
ENDROOT
BRANCH   1  12
HETATM   12  C6  UNL     1       8.948  -5.420  31.038  1.00  0.00     0.094 C 
HETATM   13  C5  UNL     1      10.216  -4.634  30.655  1.00  0.00     0.056 C 
HETATM   14  C4  UNL     1       9.989  -3.131  30.462  1.00  0.00     0.275 C 
HETATM   15  N1  UNL     1       9.216  -2.490  31.529  1.00  0.00     0.098 N 
HETATM   16  C20 UNL     1       7.940  -3.191  31.729  1.00  0.00     0.275 C 
HETATM   17  C19 UNL     1       8.102  -4.669  32.076  1.00  0.00     0.056 C 
BRANCH  15  18
HETATM   18  C3  UNL     1      10.014  -2.326  32.763  1.00  0.00     0.382 C 
BRANCH  18  19
HETATM   19  C2  UNL     1      11.343  -1.628  32.502  1.00  0.00     0.286 C 
HETATM   20  O2  UNL     1      11.522  -0.800  31.618  1.00  0.00    -0.263 OA
BRANCH  19  21
HETATM   21  O1  UNL     1      12.300  -2.061  33.377  1.00  0.00    -0.325 OA
HETATM   22  C1  UNL     1      11.935  -3.235  34.103  1.00  0.00     0.213 C 
ENDBRANCH  19  21
ENDBRANCH  18  19
ENDBRANCH  15  18
ENDBRANCH   1  12
BRANCH   3  23
HETATM   23  C9  UNL     1       5.131  -7.142  28.330  1.00  0.00    -0.021 A 
HETATM   24  C10 UNL     1       4.951  -8.415  27.771  1.00  0.00     0.012 A 
HETATM   25  C11 UNL     1       3.669  -8.856  27.437  1.00  0.00     0.004 A 
HETATM   26  C12 UNL     1       2.569  -8.025  27.652  1.00  0.00     0.036 A 
HETATM   27  C13 UNL     1       2.756  -6.758  28.201  1.00  0.00     0.066 A 
HETATM   28  C14 UNL     1       4.027  -6.306  28.547  1.00  0.00     0.049 A 
BRANCH  27  29
HETATM   29  O3  UNL     1       1.653  -5.978  28.382  1.00  0.00    -0.361 OA
HETATM   30  H15 UNL     1       1.927  -5.138  28.784  1.00  0.00     0.217 HD
ENDBRANCH  27  29
ENDBRANCH   3  23
BRANCH   5  31
HETATM   31  N3  UNL     1       7.066  -7.314  25.552  1.00  0.00    -0.385 N 
HETATM   32  H17 UNL     1       6.081  -7.168  25.745  1.00  0.00     0.157 HD
HETATM   33  H18 UNL     1       7.384  -7.136  24.608  1.00  0.00     0.157 HD
ENDBRANCH   5  31
TORSDOF 7
ENDMDL
MODEL 3
REMARK minimizedAffinity -8.41592503
REMARK  7 active torsions:
REMARK  status: ('A' for Active; 'I' for Inactive)
REMARK    1  A    between atoms: O1_2  and  C2_3 
REMARK    2  A    between atoms: C2_3  and  C3_5 
REMARK    3  A    between atoms: C3_5  and  N1_6 
REMARK    4  A    between atoms: C6_9  and  N2_10 
REMARK    5  A    between atoms: C8_12  and  C9_13 
REMARK    6  A    between atoms: C13_17  and  O3_18 
REMARK    7  A    between atoms: C16_21  and  N3_22 
ROOT
HETATM    1  N2  UNL     1       7.921  -6.146  29.884  1.00  0.00    -0.337 N 
HETATM    2  C7  UNL     1       9.053  -5.666  30.492  1.00  0.00     0.106 A 
HETATM    3  C8  UNL     1       8.736  -4.479  31.124  1.00  0.00     0.007 A 
HETATM    4  C15 UNL     1       7.357  -4.215  30.885  1.00  0.00     0.064 A 
HETATM    5  C16 UNL     1       6.431  -3.216  31.225  1.00  0.00     0.114 A 
HETATM    6  N4  UNL     1       5.168  -3.315  30.765  1.00  0.00    -0.338 N 
ATOM      7  H4  UNL     1       4.474  -2.599  30.982  1.00  0.00     0.168 HD
HETATM    8  C17 UNL     1       4.844  -4.381  30.012  1.00  0.00     0.183 A 
HETATM    9  N5  UNL     1       5.634  -5.397  29.629  1.00  0.00    -0.338 N 
ATOM     10  H5  UNL     1       5.323  -6.178  29.052  1.00  0.00     0.168 HD
HETATM   11  C18 UNL     1       6.886  -5.257  30.098  1.00  0.00     0.123 A 
ENDROOT
BRANCH   1  12
HETATM   12  C6  UNL     1       7.760  -7.388  29.121  1.00  0.00     0.094 C 
HETATM   13  C5  UNL     1       6.368  -8.044  29.195  1.00  0.00     0.056 C 
HETATM   14  C4  UNL     1       5.373  -7.529  28.150  1.00  0.00     0.275 C 
HETATM   15  N1  UNL     1       5.905  -7.461  26.785  1.00  0.00     0.098 N 
HETATM   16  C20 UNL     1       7.148  -6.676  26.758  1.00  0.00     0.275 C 
HETATM   17  C19 UNL     1       8.240  -7.229  27.672  1.00  0.00     0.056 C 
BRANCH  15  18
HETATM   18  C3  UNL     1       6.026  -8.802  26.175  1.00  0.00     0.382 C 
BRANCH  18  19
HETATM   19  C2  UNL     1       4.675  -9.369  25.756  1.00  0.00     0.286 C 
HETATM   20  O2  UNL     1       4.029  -8.967  24.796  1.00  0.00    -0.263 OA
BRANCH  19  21
HETATM   21  O1  UNL     1       4.285 -10.371  26.600  1.00  0.00    -0.325 OA
HETATM   22  C1  UNL     1       2.922 -10.282  27.016  1.00  0.00     0.213 C 
ENDBRANCH  19  21
ENDBRANCH  18  19
ENDBRANCH  15  18
ENDBRANCH   1  12
BRANCH   3  23
HETATM   23  C9  UNL     1       9.711  -3.716  31.874  1.00  0.00    -0.021 A 
HETATM   24  C10 UNL     1      10.081  -4.128  33.161  1.00  0.00     0.012 A 
HETATM   25  C11 UNL     1      11.009  -3.384  33.893  1.00  0.00     0.004 A 
HETATM   26  C12 UNL     1      11.559  -2.226  33.345  1.00  0.00     0.036 A 
HETATM   27  C13 UNL     1      11.182  -1.816  32.067  1.00  0.00     0.066 A 
HETATM   28  C14 UNL     1      10.263  -2.552  31.321  1.00  0.00     0.049 A 
BRANCH  27  29
HETATM   29  O3  UNL     1      11.738  -0.672  31.579  1.00  0.00    -0.361 OA
HETATM   30  H15 UNL     1      11.400  -0.519  30.682  1.00  0.00     0.217 HD
ENDBRANCH  27  29
ENDBRANCH   3  23
BRANCH   5  31
HETATM   31  N3  UNL     1       6.728  -2.111  32.006  1.00  0.00    -0.385 N 
HETATM   32  H17 UNL     1       7.705  -1.837  32.032  1.00  0.00     0.157 HD
HETATM   33  H18 UNL     1       6.044  -1.376  31.887  1.00  0.00     0.157 HD
ENDBRANCH   5  31
TORSDOF 7
ENDMDL
MODEL 4
REMARK minimizedAffinity -8.34982586
REMARK  7 active torsions:
REMARK  status: ('A' for Active; 'I' for Inactive)
REMARK    1  A    between atoms: O1_2  and  C2_3 
REMARK    2  A    between atoms: C2_3  and  C3_5 
REMARK    3  A    between atoms: C3_5  and  N1_6 
REMARK    4  A    between atoms: C6_9  and  N2_10 
REMARK    5  A    between atoms: C8_12  and  C9_13 
REMARK    6  A    between atoms: C13_17  and  O3_18 
REMARK    7  A    between atoms: C16_21  and  N3_22 
ROOT
HETATM    1  N2  UNL     1       8.037  -6.345  29.581  1.00  0.00    -0.337 N 
HETATM    2  C7  UNL     1       8.911  -6.147  30.620  1.00  0.00     0.106 A 
HETATM    3  C8  UNL     1       8.452  -5.086  31.378  1.00  0.00     0.007 A 
HETATM    4  C15 UNL     1       7.255  -4.607  30.774  1.00  0.00     0.064 A 
HETATM    5  C16 UNL     1       6.317  -3.592  31.020  1.00  0.00     0.114 A 
HETATM    6  N4  UNL     1       5.288  -3.434  30.164  1.00  0.00    -0.338 N 
ATOM      7  H4  UNL     1       4.597  -2.697  30.308  1.00  0.00     0.168 HD
HETATM    8  C17 UNL     1       5.193  -4.272  29.117  1.00  0.00     0.183 A 
HETATM    9  N5  UNL     1       6.017  -5.277  28.782  1.00  0.00    -0.338 N 
ATOM     10  H5  UNL     1       5.888  -5.876  27.967  1.00  0.00     0.168 HD
HETATM   11  C18 UNL     1       7.036  -5.396  29.652  1.00  0.00     0.123 A 
ENDROOT
BRANCH   1  12
HETATM   12  C6  UNL     1       8.090  -7.371  28.536  1.00  0.00     0.094 C 
HETATM   13  C5  UNL     1       7.988  -6.858  27.087  1.00  0.00     0.056 C 
HETATM   14  C4  UNL     1       9.330  -6.463  26.463  1.00  0.00     0.275 C 
HETATM   15  N1  UNL     1      10.401  -7.447  26.651  1.00  0.00     0.098 N 
HETATM   16  C20 UNL     1      10.559  -7.767  28.077  1.00  0.00     0.275 C 
HETATM   17  C19 UNL     1       9.288  -8.312  28.726  1.00  0.00     0.056 C 
BRANCH  15  18
HETATM   18  C3  UNL     1      10.217  -8.631  25.784  1.00  0.00     0.382 C 
BRANCH  18  19
HETATM   19  C2  UNL     1      10.125  -8.257  24.310  1.00  0.00     0.286 C 
HETATM   20  O2  UNL     1       9.136  -8.449  23.612  1.00  0.00    -0.263 OA
BRANCH  19  21
HETATM   21  O1  UNL     1      11.292  -7.694  23.876  1.00  0.00    -0.325 OA
HETATM   22  C1  UNL     1      12.394  -8.600  23.834  1.00  0.00     0.213 C 
ENDBRANCH  19  21
ENDBRANCH  18  19
ENDBRANCH  15  18
ENDBRANCH   1  12
BRANCH   3  23
HETATM   23  C9  UNL     1       9.143  -4.624  32.562  1.00  0.00    -0.021 A 
HETATM   24  C10 UNL     1      10.417  -4.050  32.448  1.00  0.00     0.012 A 
HETATM   25  C11 UNL     1      11.094  -3.619  33.590  1.00  0.00     0.004 A 
HETATM   26  C12 UNL     1      10.505  -3.768  34.846  1.00  0.00     0.036 A 
HETATM   27  C13 UNL     1       9.242  -4.347  34.954  1.00  0.00     0.066 A 
HETATM   28  C14 UNL     1       8.550  -4.775  33.823  1.00  0.00     0.049 A 
BRANCH  27  29
HETATM   29  O3  UNL     1       8.712  -4.482  36.202  1.00  0.00    -0.361 OA
HETATM   30  H15 UNL     1       7.831  -4.881  36.126  1.00  0.00     0.217 HD
ENDBRANCH  27  29
ENDBRANCH   3  23
BRANCH   5  31
HETATM   31  N3  UNL     1       6.379  -2.719  32.094  1.00  0.00    -0.385 N 
HETATM   32  H17 UNL     1       7.298  -2.581  32.500  1.00  0.00     0.157 HD
HETATM   33  H18 UNL     1       5.813  -1.895  31.937  1.00  0.00     0.157 HD
ENDBRANCH   5  31
TORSDOF 7
ENDMDL
MODEL 5
REMARK minimizedAffinity -8.33341599
REMARK  7 active torsions:
REMARK  status: ('A' for Active; 'I' for Inactive)
REMARK    1  A    between atoms: O1_2  and  C2_3 
REMARK    2  A    between atoms: C2_3  and  C3_5 
REMARK    3  A    between atoms: C3_5  and  N1_6 
REMARK    4  A    between atoms: C6_9  and  N2_10 
REMARK    5  A    between atoms: C8_12  and  C9_13 
REMARK    6  A    between atoms: C13_17  and  O3_18 
REMARK    7  A    between atoms: C16_21  and  N3_22 
ROOT
HETATM    1  N2  UNL     1       8.020  -6.431  29.810  1.00  0.00    -0.337 N 
HETATM    2  C7  UNL     1       8.895  -6.223  30.845  1.00  0.00     0.106 A 
HETATM    3  C8  UNL     1       8.475  -5.111  31.552  1.00  0.00     0.007 A 
HETATM    4  C15 UNL     1       7.303  -4.611  30.919  1.00  0.00     0.064 A 
HETATM    5  C16 UNL     1       6.405  -3.550  31.113  1.00  0.00     0.114 A 
HETATM    6  N4  UNL     1       5.388  -3.388  30.244  1.00  0.00    -0.338 N 
ATOM      7  H4  UNL     1       4.727  -2.618  30.349  1.00  0.00     0.168 HD
HETATM    8  C17 UNL     1       5.265  -4.268  29.233  1.00  0.00     0.183 A 
HETATM    9  N5  UNL     1       6.050  -5.319  28.949  1.00  0.00    -0.338 N 
ATOM     10  H5  UNL     1       5.900  -5.948  28.161  1.00  0.00     0.168 HD
HETATM   11  C18 UNL     1       7.058  -5.441  29.831  1.00  0.00     0.123 A 
ENDROOT
BRANCH   1  12
HETATM   12  C6  UNL     1       8.037  -7.504  28.812  1.00  0.00     0.094 C 
HETATM   13  C5  UNL     1       6.847  -8.481  28.857  1.00  0.00     0.056 C 
HETATM   14  C4  UNL     1       5.634  -8.033  28.035  1.00  0.00     0.275 C 
HETATM   15  N1  UNL     1       5.952  -7.576  26.679  1.00  0.00     0.098 N 
HETATM   16  C20 UNL     1       6.977  -6.523  26.720  1.00  0.00     0.275 C 
HETATM   17  C19 UNL     1       8.275  -6.958  27.397  1.00  0.00     0.056 C 
BRANCH  15  18
HETATM   18  C3  UNL     1       6.285  -8.705  25.784  1.00  0.00     0.382 C 
BRANCH  18  19
HETATM   19  C2  UNL     1       5.054  -9.519  25.400  1.00  0.00     0.286 C 
HETATM   20  O2  UNL     1       3.953  -9.033  25.171  1.00  0.00    -0.263 OA
BRANCH  19  21
HETATM   21  O1  UNL     1       5.346 -10.853  25.361  1.00  0.00    -0.325 OA
HETATM   22  C1  UNL     1       6.707 -11.160  25.664  1.00  0.00     0.213 C 
ENDBRANCH  19  21
ENDBRANCH  18  19
ENDBRANCH  15  18
ENDBRANCH   1  12
BRANCH   3  23
HETATM   23  C9  UNL     1       9.179  -4.625  32.720  1.00  0.00    -0.021 A 
HETATM   24  C10 UNL     1      10.459  -4.072  32.584  1.00  0.00     0.012 A 
HETATM   25  C11 UNL     1      11.147  -3.618  33.711  1.00  0.00     0.004 A 
HETATM   26  C12 UNL     1      10.562  -3.724  34.973  1.00  0.00     0.036 A 
HETATM   27  C13 UNL     1       9.291  -4.281  35.103  1.00  0.00     0.066 A 
HETATM   28  C14 UNL     1       8.589  -4.732  33.987  1.00  0.00     0.049 A 
BRANCH  27  29
HETATM   29  O3  UNL     1       8.765  -4.374  36.356  1.00  0.00    -0.361 OA
HETATM   30  H15 UNL     1       7.878  -4.761  36.295  1.00  0.00     0.217 HD
ENDBRANCH  27  29
ENDBRANCH   3  23
BRANCH   5  31
HETATM   31  N3  UNL     1       6.496  -2.633  32.148  1.00  0.00    -0.385 N 
HETATM   32  H17 UNL     1       7.418  -2.514  32.554  1.00  0.00     0.157 HD
HETATM   33  H18 UNL     1       5.965  -1.794  31.950  1.00  0.00     0.157 HD
ENDBRANCH   5  31
TORSDOF 7
ENDMDL
MODEL 6
REMARK minimizedAffinity -8.30826283
REMARK  7 active torsions:
REMARK  status: ('A' for Active; 'I' for Inactive)
REMARK    1  A    between atoms: O1_2  and  C2_3 
REMARK    2  A    between atoms: C2_3  and  C3_5 
REMARK    3  A    between atoms: C3_5  and  N1_6 
REMARK    4  A    between atoms: C6_9  and  N2_10 
REMARK    5  A    between atoms: C8_12  and  C9_13 
REMARK    6  A    between atoms: C13_17  and  O3_18 
REMARK    7  A    between atoms: C16_21  and  N3_22 
ROOT
HETATM    1  N2  UNL     1       7.871  -6.172  29.827  1.00  0.00    -0.337 N 
HETATM    2  C7  UNL     1       9.010  -5.713  30.437  1.00  0.00     0.106 A 
HETATM    3  C8  UNL     1       8.708  -4.532  31.089  1.00  0.00     0.007 A 
HETATM    4  C15 UNL     1       7.331  -4.251  30.861  1.00  0.00     0.064 A 
HETATM    5  C16 UNL     1       6.416  -3.249  31.220  1.00  0.00     0.114 A 
HETATM    6  N4  UNL     1       5.150  -3.328  30.764  1.00  0.00    -0.338 N 
ATOM      7  H4  UNL     1       4.465  -2.608  30.995  1.00  0.00     0.168 HD
HETATM    8  C17 UNL     1       4.812  -4.379  29.996  1.00  0.00     0.183 A 
HETATM    9  N5  UNL     1       5.590  -5.396  29.594  1.00  0.00    -0.338 N 
ATOM     10  H5  UNL     1       5.269  -6.166  29.007  1.00  0.00     0.168 HD
HETATM   11  C18 UNL     1       6.847  -5.277  30.059  1.00  0.00     0.123 A 
ENDROOT
BRANCH   1  12
HETATM   12  C6  UNL     1       7.694  -7.400  29.046  1.00  0.00     0.094 C 
HETATM   13  C5  UNL     1       6.531  -7.391  28.036  1.00  0.00     0.056 C 
HETATM   14  C4  UNL     1       6.898  -6.827  26.659  1.00  0.00     0.275 C 
HETATM   15  N1  UNL     1       8.143  -7.357  26.097  1.00  0.00     0.098 N 
HETATM   16  C20 UNL     1       9.251  -7.182  27.047  1.00  0.00     0.275 C 
HETATM   17  C19 UNL     1       9.010  -7.854  28.398  1.00  0.00     0.056 C 
BRANCH  15  18
HETATM   18  C3  UNL     1       7.980  -8.745  25.611  1.00  0.00     0.382 C 
BRANCH  18  19
HETATM   19  C2  UNL     1       9.152  -9.195  24.748  1.00  0.00     0.286 C 
HETATM   20  O2  UNL     1       9.916 -10.106  25.045  1.00  0.00    -0.263 OA
BRANCH  19  21
HETATM   21  O1  UNL     1       9.238  -8.440  23.612  1.00  0.00    -0.325 OA
HETATM   22  C1  UNL     1      10.567  -8.038  23.280  1.00  0.00     0.213 C 
ENDBRANCH  19  21
ENDBRANCH  18  19
ENDBRANCH  15  18
ENDBRANCH   1  12
BRANCH   3  23
HETATM   23  C9  UNL     1       9.694  -3.790  31.846  1.00  0.00    -0.021 A 
HETATM   24  C10 UNL     1      10.064  -4.225  33.126  1.00  0.00     0.012 A 
HETATM   25  C11 UNL     1      11.002  -3.502  33.865  1.00  0.00     0.004 A 
HETATM   26  C12 UNL     1      11.563  -2.341  33.331  1.00  0.00     0.036 A 
HETATM   27  C13 UNL     1      11.185  -1.910  32.061  1.00  0.00     0.066 A 
HETATM   28  C14 UNL     1      10.257  -2.625  31.308  1.00  0.00     0.049 A 
BRANCH  27  29
HETATM   29  O3  UNL     1      11.752  -0.765  31.587  1.00  0.00    -0.361 OA
HETATM   30  H15 UNL     1      11.413  -0.595  30.693  1.00  0.00     0.217 HD
ENDBRANCH  27  29
ENDBRANCH   3  23
BRANCH   5  31
HETATM   31  N3  UNL     1       6.728  -2.159  32.016  1.00  0.00    -0.385 N 
HETATM   32  H17 UNL     1       7.707  -1.894  32.042  1.00  0.00     0.157 HD
HETATM   33  H18 UNL     1       6.050  -1.415  31.912  1.00  0.00     0.157 HD
ENDBRANCH   5  31
TORSDOF 7
ENDMDL
MODEL 7
REMARK minimizedAffinity -8.12035847
REMARK  7 active torsions:
REMARK  status: ('A' for Active; 'I' for Inactive)
REMARK    1  A    between atoms: O1_2  and  C2_3 
REMARK    2  A    between atoms: C2_3  and  C3_5 
REMARK    3  A    between atoms: C3_5  and  N1_6 
REMARK    4  A    between atoms: C6_9  and  N2_10 
REMARK    5  A    between atoms: C8_12  and  C9_13 
REMARK    6  A    between atoms: C13_17  and  O3_18 
REMARK    7  A    between atoms: C16_21  and  N3_22 
ROOT
HETATM    1  N2  UNL     1       8.150  -5.196  29.532  1.00  0.00    -0.337 N 
HETATM    2  C7  UNL     1       8.156  -4.770  30.836  1.00  0.00     0.106 A 
HETATM    3  C8  UNL     1       9.444  -4.880  31.323  1.00  0.00     0.007 A 
HETATM    4  C15 UNL     1      10.260  -5.405  30.281  1.00  0.00     0.064 A 
HETATM    5  C16 UNL     1      11.609  -5.750  30.110  1.00  0.00     0.114 A 
HETATM    6  N4  UNL     1      12.007  -6.263  28.929  1.00  0.00    -0.338 N 
ATOM      7  H4  UNL     1      12.978  -6.537  28.777  1.00  0.00     0.168 HD
HETATM    8  C17 UNL     1      11.091  -6.404  27.953  1.00  0.00     0.183 A 
HETATM    9  N5  UNL     1       9.783  -6.106  27.994  1.00  0.00    -0.338 N 
ATOM     10  H5  UNL     1       9.141  -6.241  27.214  1.00  0.00     0.168 HD
HETATM   11  C18 UNL     1       9.424  -5.607  29.191  1.00  0.00     0.123 A 
ENDROOT
BRANCH   1  12
HETATM   12  C6  UNL     1       7.023  -5.235  28.596  1.00  0.00     0.094 C 
HETATM   13  C5  UNL     1       6.783  -6.583  27.891  1.00  0.00     0.056 C 
HETATM   14  C4  UNL     1       5.887  -7.551  28.671  1.00  0.00     0.275 C 
HETATM   15  N1  UNL     1       4.657  -6.951  29.198  1.00  0.00     0.098 N 
HETATM   16  C20 UNL     1       4.971  -5.762  30.003  1.00  0.00     0.275 C 
HETATM   17  C19 UNL     1       5.738  -4.688  29.234  1.00  0.00     0.056 C 
BRANCH  15  18
HETATM   18  C3  UNL     1       3.662  -6.710  28.131  1.00  0.00     0.382 C 
BRANCH  18  19
HETATM   19  C2  UNL     1       2.548  -7.750  28.136  1.00  0.00     0.286 C 
HETATM   20  O2  UNL     1       1.398  -7.524  28.492  1.00  0.00    -0.263 OA
BRANCH  19  21
HETATM   21  O1  UNL     1       3.011  -8.961  27.703  1.00  0.00    -0.325 OA
HETATM   22  C1  UNL     1       2.032  -9.748  27.025  1.00  0.00     0.213 C 
ENDBRANCH  19  21
ENDBRANCH  18  19
ENDBRANCH  15  18
ENDBRANCH   1  12
BRANCH   3  23
HETATM   23  C9  UNL     1       9.796  -4.498  32.675  1.00  0.00    -0.021 A 
HETATM   24  C10 UNL     1      11.038  -3.902  32.931  1.00  0.00     0.012 A 
HETATM   25  C11 UNL     1      11.388  -3.549  34.236  1.00  0.00     0.004 A 
HETATM   26  C12 UNL     1      10.503  -3.800  35.285  1.00  0.00     0.036 A 
HETATM   27  C13 UNL     1       9.273  -4.401  35.025  1.00  0.00     0.066 A 
HETATM   28  C14 UNL     1       8.906  -4.751  33.727  1.00  0.00     0.049 A 
BRANCH  27  29
HETATM   29  O3  UNL     1       8.447  -4.636  36.083  1.00  0.00    -0.361 OA
HETATM   30  H15 UNL     1       7.627  -5.039  35.756  1.00  0.00     0.217 HD
ENDBRANCH  27  29
ENDBRANCH   3  23
BRANCH   5  31
HETATM   31  N3  UNL     1      12.579  -5.608  31.089  1.00  0.00    -0.385 N 
HETATM   32  H17 UNL     1      12.244  -5.593  32.047  1.00  0.00     0.157 HD
HETATM   33  H18 UNL     1      13.393  -6.177  30.893  1.00  0.00     0.157 HD
ENDBRANCH   5  31
TORSDOF 7
ENDMDL
MODEL 8
REMARK minimizedAffinity -7.92794991
REMARK  7 active torsions:
REMARK  status: ('A' for Active; 'I' for Inactive)
REMARK    1  A    between atoms: O1_2  and  C2_3 
REMARK    2  A    between atoms: C2_3  and  C3_5 
REMARK    3  A    between atoms: C3_5  and  N1_6 
REMARK    4  A    between atoms: C6_9  and  N2_10 
REMARK    5  A    between atoms: C8_12  and  C9_13 
REMARK    6  A    between atoms: C13_17  and  O3_18 
REMARK    7  A    between atoms: C16_21  and  N3_22 
ROOT
HETATM    1  N2  UNL     1       8.143  -5.608  30.522  1.00  0.00    -0.337 N 
HETATM    2  C7  UNL     1       8.219  -6.626  29.607  1.00  0.00     0.106 A 
HETATM    3  C8  UNL     1       7.030  -6.668  28.903  1.00  0.00     0.007 A 
HETATM    4  C15 UNL     1       6.187  -5.641  29.415  1.00  0.00     0.064 A 
HETATM    5  C16 UNL     1       4.895  -5.154  29.161  1.00  0.00     0.114 A 
HETATM    6  N4  UNL     1       4.423  -4.138  29.911  1.00  0.00    -0.338 N 
ATOM      7  H4  UNL     1       3.483  -3.770  29.761  1.00  0.00     0.168 HD
HETATM    8  C17 UNL     1       5.221  -3.621  30.862  1.00  0.00     0.183 A 
HETATM    9  N5  UNL     1       6.467  -3.995  31.192  1.00  0.00    -0.338 N 
ATOM     10  H5  UNL     1       7.019  -3.559  31.930  1.00  0.00     0.168 HD
HETATM   11  C18 UNL     1       6.899  -5.016  30.430  1.00  0.00     0.123 A 
ENDROOT
BRANCH   1  12
HETATM   12  C6  UNL     1       9.169  -5.164  31.470  1.00  0.00     0.094 C 
HETATM   13  C5  UNL     1      10.577  -5.752  31.258  1.00  0.00     0.056 C 
HETATM   14  C4  UNL     1      11.449  -4.960  30.279  1.00  0.00     0.275 C 
HETATM   15  N1  UNL     1      11.459  -3.512  30.507  1.00  0.00     0.098 N 
HETATM   16  C20 UNL     1      10.086  -2.987  30.530  1.00  0.00     0.275 C 
HETATM   17  C19 UNL     1       9.202  -3.634  31.594  1.00  0.00     0.056 C 
BRANCH  15  18
HETATM   18  C3  UNL     1      12.263  -3.149  31.694  1.00  0.00     0.382 C 
BRANCH  18  19
HETATM   19  C2  UNL     1      11.899  -1.772  32.237  1.00  0.00     0.286 C 
HETATM   20  O2  UNL     1      11.992  -0.733  31.594  1.00  0.00    -0.263 OA
BRANCH  19  21
HETATM   21  O1  UNL     1      11.472  -1.857  33.532  1.00  0.00    -0.325 OA
HETATM   22  C1  UNL     1      11.780  -3.098  34.166  1.00  0.00     0.213 C 
ENDBRANCH  19  21
ENDBRANCH  18  19
ENDBRANCH  15  18
ENDBRANCH   1  12
BRANCH   3  23
HETATM   23  C9  UNL     1       6.788  -7.628  27.847  1.00  0.00    -0.021 A 
HETATM   24  C10 UNL     1       6.018  -8.770  28.104  1.00  0.00     0.012 A 
HETATM   25  C11 UNL     1       5.797  -9.706  27.093  1.00  0.00     0.004 A 
HETATM   26  C12 UNL     1       6.351  -9.508  25.828  1.00  0.00     0.036 A 
HETATM   27  C13 UNL     1       7.123  -8.375  25.580  1.00  0.00     0.066 A 
HETATM   28  C14 UNL     1       7.346  -7.427  26.577  1.00  0.00     0.049 A 
BRANCH  27  29
HETATM   29  O3  UNL     1       7.654  -8.231  24.334  1.00  0.00    -0.361 OA
HETATM   30  H15 UNL     1       8.149  -7.396  24.299  1.00  0.00     0.217 HD
ENDBRANCH  27  29
ENDBRANCH   3  23
BRANCH   5  31
HETATM   31  N3  UNL     1       4.052  -5.656  28.184  1.00  0.00    -0.385 N 
HETATM   32  H17 UNL     1       4.229  -6.611  27.893  1.00  0.00     0.157 HD
HETATM   33  H18 UNL     1       3.089  -5.394  28.352  1.00  0.00     0.157 HD
ENDBRANCH   5  31
TORSDOF 7
ENDMDL
MODEL 9
REMARK minimizedAffinity -7.89582253
REMARK  7 active torsions:
REMARK  status: ('A' for Active; 'I' for Inactive)
REMARK    1  A    between atoms: O1_2  and  C2_3 
REMARK    2  A    between atoms: C2_3  and  C3_5 
REMARK    3  A    between atoms: C3_5  and  N1_6 
REMARK    4  A    between atoms: C6_9  and  N2_10 
REMARK    5  A    between atoms: C8_12  and  C9_13 
REMARK    6  A    between atoms: C13_17  and  O3_18 
REMARK    7  A    between atoms: C16_21  and  N3_22 
ROOT
HETATM    1  N2  UNL     1       8.086  -6.385  29.368  1.00  0.00    -0.337 N 
HETATM    2  C7  UNL     1       8.931  -6.194  30.431  1.00  0.00     0.106 A 
HETATM    3  C8  UNL     1       8.420  -5.176  31.215  1.00  0.00     0.007 A 
HETATM    4  C15 UNL     1       7.220  -4.718  30.603  1.00  0.00     0.064 A 
HETATM    5  C16 UNL     1       6.242  -3.746  30.864  1.00  0.00     0.114 A 
HETATM    6  N4  UNL     1       5.224  -3.593  29.993  1.00  0.00    -0.338 N 
ATOM      7  H4  UNL     1       4.505  -2.886  30.147  1.00  0.00     0.168 HD
HETATM    8  C17 UNL     1       5.181  -4.397  28.915  1.00  0.00     0.183 A 
HETATM    9  N5  UNL     1       6.046  -5.361  28.564  1.00  0.00    -0.338 N 
ATOM     10  H5  UNL     1       5.954  -5.936  27.727  1.00  0.00     0.168 HD
HETATM   11  C18 UNL     1       7.051  -5.475  29.450  1.00  0.00     0.123 A 
ENDROOT
BRANCH   1  12
HETATM   12  C6  UNL     1       8.196  -7.372  28.290  1.00  0.00     0.094 C 
HETATM   13  C5  UNL     1       9.586  -7.499  27.637  1.00  0.00     0.056 C 
HETATM   14  C4  UNL     1      10.523  -8.485  28.340  1.00  0.00     0.275 C 
HETATM   15  N1  UNL     1       9.916  -9.782  28.657  1.00  0.00     0.098 N 
HETATM   16  C20 UNL     1       8.679  -9.593  29.428  1.00  0.00     0.275 C 
HETATM   17  C19 UNL     1       7.637  -8.737  28.712  1.00  0.00     0.056 C 
BRANCH  15  18
HETATM   18  C3  UNL     1       9.753 -10.621  27.451  1.00  0.00     0.382 C 
BRANCH  18  19
HETATM   19  C2  UNL     1      10.601 -11.886  27.509  1.00  0.00     0.286 C 
HETATM   20  O2  UNL     1      10.795 -12.628  26.554  1.00  0.00    -0.263 OA
BRANCH  19  21
HETATM   21  O1  UNL     1      11.099 -12.080  28.767  1.00  0.00    -0.325 OA
HETATM   22  C1  UNL     1      12.432 -12.591  28.791  1.00  0.00     0.213 C 
ENDBRANCH  19  21
ENDBRANCH  18  19
ENDBRANCH  15  18
ENDBRANCH   1  12
BRANCH   3  23
HETATM   23  C9  UNL     1       9.072  -4.732  32.429  1.00  0.00    -0.021 A 
HETATM   24  C10 UNL     1      10.351  -4.164  32.367  1.00  0.00     0.012 A 
HETATM   25  C11 UNL     1      10.989  -3.750  33.538  1.00  0.00     0.004 A 
HETATM   26  C12 UNL     1      10.355  -3.911  34.770  1.00  0.00     0.036 A 
HETATM   27  C13 UNL     1       9.086  -4.484  34.826  1.00  0.00     0.066 A 
HETATM   28  C14 UNL     1       8.433  -4.894  33.666  1.00  0.00     0.049 A 
BRANCH  27  29
HETATM   29  O3  UNL     1       8.511  -4.631  36.053  1.00  0.00    -0.361 OA
HETATM   30  H15 UNL     1       7.631  -5.024  35.941  1.00  0.00     0.217 HD
ENDBRANCH  27  29
ENDBRANCH   3  23
BRANCH   5  31
HETATM   31  N3  UNL     1       6.251  -2.909  31.968  1.00  0.00    -0.385 N 
HETATM   32  H17 UNL     1       7.157  -2.753  32.398  1.00  0.00     0.157 HD
HETATM   33  H18 UNL     1       5.660  -2.100  31.828  1.00  0.00     0.157 HD
ENDBRANCH   5  31
TORSDOF 7
ENDMDL
