MODEL 1
REMARK minimizedAffinity -8.71198845
REMARK CNNscore 0.574148893
REMARK CNNaffinity 7.26580238
REMARK  9 active torsions:
REMARK  status: ('A' for Active; 'I' for Inactive)
REMARK    1  A    between atoms: C2_2  and  C3_3 
REMARK       I    between atoms: C3_3  and  N1_5 
REMARK    2  A    between atoms: N1_5  and  C4_6 
REMARK    3  A    between atoms: C4_6  and  C5_7 
REMARK    4  A    between atoms: C5_7  and  O2_8 
REMARK    5  A    between atoms: O2_8  and  C6_9 
REMARK    6  A    between atoms: C8_11  and  C9_12 
REMARK    7  A    between atoms: C9_12  and  C10_13 
REMARK    8  A    between atoms: C18_22  and  C19_23 
REMARK    9  A    between atoms: C22_29  and  C23_30 
ROOT
HETATM    1  C6  UNL     1      -7.840   8.243  15.005  1.00  0.00     0.082 A 
HETATM    2  C7  UNL     1      -9.106   8.790  15.269  1.00  0.00     0.045 A 
HETATM    3  C8  UNL     1     -10.292   8.138  14.881  1.00  0.00    -0.049 A 
HETATM    4  C16 UNL     1     -10.233   6.908  14.208  1.00  0.00     0.038 A 
HETATM    5  C17 UNL     1      -8.969   6.365  13.958  1.00  0.00     0.046 A 
HETATM    6  N2  UNL     1      -8.619   5.189  13.335  1.00  0.00    -0.354 N 
HETATM    7  C18 UNL     1      -7.256   5.043  13.319  1.00  0.00     0.062 A 
HETATM    8  C27 UNL     1      -6.710   6.147  13.929  1.00  0.00     0.048 A 
HETATM    9  C28 UNL     1      -7.785   6.995  14.341  1.00  0.00     0.026 A 
HETATM   10  H18 UNL     1      -9.255   4.503  12.951  1.00  0.00     0.166 HD
ENDROOT
BRANCH   7  11
HETATM   11  C19 UNL     1      -6.564   3.797  12.698  1.00  0.00     0.087 A 
HETATM   12  N3  UNL     1      -7.310   2.714  12.432  1.00  0.00    -0.297 N 
HETATM   13  N4  UNL     1      -6.423   1.838  11.936  1.00  0.00    -0.299 N 
ATOM     14  H3  UNL     1      -8.312   2.586  12.573  1.00  0.00     0.187 HD
HETATM   15  C20 UNL     1      -5.142   2.314  11.855  1.00  0.00     0.061 A 
HETATM   16  H19 UNL     1      -6.755   0.918  11.669  1.00  0.00     0.187 HD
HETATM   17  C21 UNL     1      -3.962   1.714  11.401  1.00  0.00     0.044 A 
HETATM   18  C26 UNL     1      -5.197   3.613  12.356  1.00  0.00     0.022 A 
HETATM   19  C22 UNL     1      -2.778   2.468  11.462  1.00  0.00     0.008 A 
HETATM   20  C24 UNL     1      -2.809   3.780  11.957  1.00  0.00     0.013 A 
HETATM   21  C25 UNL     1      -4.004   4.362  12.407  1.00  0.00     0.017 A 
BRANCH  19  22
HETATM   22  C23 UNL     1      -1.477   1.881  10.970  1.00  0.00     0.386 C 
HETATM   23  F1  UNL     1      -1.457   0.520  11.007  1.00  0.00    -0.209 F 
HETATM   24  F2  UNL     1      -0.405   2.288  11.707  1.00  0.00    -0.209 F 
ENDBRANCH  19  22
ENDBRANCH   7  11
BRANCH   1  25
HETATM   25  O2  UNL     1      -6.643   8.812  15.343  1.00  0.00    -0.349 OA
BRANCH  25  26
HETATM   26  C5  UNL     1      -5.450   8.385  14.678  1.00  0.00     0.195 C 
BRANCH  26  27
HETATM   27  C4  UNL     1      -4.420   9.512  14.589  1.00  0.00     0.149 C 
BRANCH  27  28
HETATM   28  N1  UNL     1      -4.611  10.496  15.638  1.00  0.00    -0.356 N 
HETATM   29  C3  UNL     1      -3.547  10.981  16.354  1.00  0.00     0.240 C 
HETATM   30  O1  UNL     1      -2.375  10.758  16.084  1.00  0.00    -0.269 OA
HETATM   31  H4  UNL     1      -5.541  10.546  16.037  1.00  0.00     0.162 HD
BRANCH  29  32
HETATM   32  C2  UNL     1      -3.964  11.800  17.519  1.00  0.00     0.064 C 
HETATM   33  C1  UNL     1      -3.588  11.460  18.760  1.00  0.00     0.017 C 
ENDBRANCH  29  32
ENDBRANCH  27  28
ENDBRANCH  26  27
ENDBRANCH  25  26
ENDBRANCH   1  25
BRANCH   3  34
HETATM   34  C9  UNL     1     -11.638   8.770  15.180  1.00  0.00     0.077 C 
BRANCH  34  35
HETATM   35  C10 UNL     1     -12.800   8.092  14.487  1.00  0.00    -0.054 A 
HETATM   36  C11 UNL     1     -13.294   8.583  13.269  1.00  0.00     0.007 A 
HETATM   37  C12 UNL     1     -14.377   7.964  12.643  1.00  0.00     0.001 A 
HETATM   38  C13 UNL     1     -14.975   6.848  13.225  1.00  0.00     0.000 A 
HETATM   39  C14 UNL     1     -14.491   6.349  14.435  1.00  0.00     0.001 A 
HETATM   40  C15 UNL     1     -13.410   6.967  15.064  1.00  0.00     0.007 A 
ENDBRANCH  34  35
ENDBRANCH   3  34
TORSDOF 9
ENDMDL
MODEL 2
REMARK minimizedAffinity -8.73935795
REMARK CNNscore 0.533099771
REMARK CNNaffinity 7.3300271
REMARK  9 active torsions:
REMARK  status: ('A' for Active; 'I' for Inactive)
REMARK    1  A    between atoms: C2_2  and  C3_3 
REMARK       I    between atoms: C3_3  and  N1_5 
REMARK    2  A    between atoms: N1_5  and  C4_6 
REMARK    3  A    between atoms: C4_6  and  C5_7 
REMARK    4  A    between atoms: C5_7  and  O2_8 
REMARK    5  A    between atoms: O2_8  and  C6_9 
REMARK    6  A    between atoms: C8_11  and  C9_12 
REMARK    7  A    between atoms: C9_12  and  C10_13 
REMARK    8  A    between atoms: C18_22  and  C19_23 
REMARK    9  A    between atoms: C22_29  and  C23_30 
ROOT
HETATM    1  C6  UNL     1      -8.303   7.881  15.030  1.00  0.00     0.082 A 
HETATM    2  C7  UNL     1      -9.559   8.508  15.040  1.00  0.00     0.045 A 
HETATM    3  C8  UNL     1     -10.649   8.002  14.305  1.00  0.00    -0.049 A 
HETATM    4  C16 UNL     1     -10.497   6.842  13.530  1.00  0.00     0.038 A 
HETATM    5  C17 UNL     1      -9.246   6.217  13.534  1.00  0.00     0.046 A 
HETATM    6  N2  UNL     1      -8.823   5.080  12.884  1.00  0.00    -0.354 N 
HETATM    7  C18 UNL     1      -7.511   4.819  13.182  1.00  0.00     0.062 A 
HETATM    8  C27 UNL     1      -7.069   5.808  14.028  1.00  0.00     0.048 A 
HETATM    9  C28 UNL     1      -8.160   6.703  14.261  1.00  0.00     0.026 A 
HETATM   10  H18 UNL     1      -9.384   4.492  12.281  1.00  0.00     0.166 HD
ENDROOT
BRANCH   7  11
HETATM   11  C19 UNL     1      -6.763   3.583  12.610  1.00  0.00     0.087 A 
HETATM   12  N3  UNL     1      -7.460   2.461  12.375  1.00  0.00    -0.297 N 
HETATM   13  N4  UNL     1      -6.533   1.606  11.916  1.00  0.00    -0.299 N 
ATOM     14  H3  UNL     1      -8.458   2.296  12.512  1.00  0.00     0.187 HD
HETATM   15  C20 UNL     1      -5.273   2.133  11.828  1.00  0.00     0.061 A 
HETATM   16  H19 UNL     1      -6.825   0.665  11.678  1.00  0.00     0.187 HD
HETATM   17  C21 UNL     1      -4.065   1.567  11.403  1.00  0.00     0.044 A 
HETATM   18  C26 UNL     1      -5.387   3.444  12.283  1.00  0.00     0.022 A 
HETATM   19  C22 UNL     1      -2.914   2.371  11.447  1.00  0.00     0.008 A 
HETATM   20  C24 UNL     1      -3.004   3.697  11.897  1.00  0.00     0.013 A 
HETATM   21  C25 UNL     1      -4.226   4.244  12.318  1.00  0.00     0.017 A 
BRANCH  19  22
HETATM   22  C23 UNL     1      -1.586   1.823  10.985  1.00  0.00     0.386 C 
HETATM   23  F1  UNL     1      -1.528   0.463  11.018  1.00  0.00    -0.209 F 
HETATM   24  F2  UNL     1      -0.544   2.257  11.749  1.00  0.00    -0.209 F 
ENDBRANCH  19  22
ENDBRANCH   7  11
BRANCH   1  25
HETATM   25  O2  UNL     1      -7.197   8.309  15.710  1.00  0.00    -0.349 OA
BRANCH  25  26
HETATM   26  C5  UNL     1      -6.112   8.900  14.987  1.00  0.00     0.195 C 
BRANCH  26  27
HETATM   27  C4  UNL     1      -4.779   8.704  15.710  1.00  0.00     0.149 C 
BRANCH  27  28
HETATM   28  N1  UNL     1      -3.753   8.205  14.814  1.00  0.00    -0.356 N 
HETATM   29  C3  UNL     1      -3.200   6.963  14.995  1.00  0.00     0.240 C 
HETATM   30  O1  UNL     1      -3.612   6.135  15.797  1.00  0.00    -0.269 OA
HETATM   31  H4  UNL     1      -3.239   8.904  14.292  1.00  0.00     0.162 HD
BRANCH  29  32
HETATM   32  C2  UNL     1      -2.024   6.725  14.123  1.00  0.00     0.064 C 
HETATM   33  C1  UNL     1      -1.997   7.203  12.871  1.00  0.00     0.017 C 
ENDBRANCH  29  32
ENDBRANCH  27  28
ENDBRANCH  26  27
ENDBRANCH  25  26
ENDBRANCH   1  25
BRANCH   3  34
HETATM   34  C9  UNL     1     -11.985   8.717  14.339  1.00  0.00     0.077 C 
BRANCH  34  35
HETATM   35  C10 UNL     1     -13.170   7.812  14.076  1.00  0.00    -0.054 A 
HETATM   36  C11 UNL     1     -13.892   7.906  12.877  1.00  0.00     0.007 A 
HETATM   37  C12 UNL     1     -14.995   7.082  12.647  1.00  0.00     0.001 A 
HETATM   38  C13 UNL     1     -15.384   6.154  13.611  1.00  0.00     0.000 A 
HETATM   39  C14 UNL     1     -14.673   6.049  14.807  1.00  0.00     0.001 A 
HETATM   40  C15 UNL     1     -13.572   6.874  15.040  1.00  0.00     0.007 A 
ENDBRANCH  34  35
ENDBRANCH   3  34
TORSDOF 9
ENDMDL
MODEL 3
REMARK minimizedAffinity -9.13235664
REMARK CNNscore 0.205809146
REMARK CNNaffinity 6.33220434
REMARK  9 active torsions:
REMARK  status: ('A' for Active; 'I' for Inactive)
REMARK    1  A    between atoms: C2_2  and  C3_3 
REMARK       I    between atoms: C3_3  and  N1_5 
REMARK    2  A    between atoms: N1_5  and  C4_6 
REMARK    3  A    between atoms: C4_6  and  C5_7 
REMARK    4  A    between atoms: C5_7  and  O2_8 
REMARK    5  A    between atoms: O2_8  and  C6_9 
REMARK    6  A    between atoms: C8_11  and  C9_12 
REMARK    7  A    between atoms: C9_12  and  C10_13 
REMARK    8  A    between atoms: C18_22  and  C19_23 
REMARK    9  A    between atoms: C22_29  and  C23_30 
ROOT
HETATM    1  C6  UNL     1      -5.723   5.761  13.830  1.00  0.00     0.082 A 
HETATM    2  C7  UNL     1      -5.370   4.625  13.084  1.00  0.00     0.045 A 
HETATM    3  C8  UNL     1      -6.341   3.763  12.538  1.00  0.00    -0.049 A 
HETATM    4  C16 UNL     1      -7.706   4.025  12.735  1.00  0.00     0.038 A 
HETATM    5  C17 UNL     1      -8.049   5.163  13.471  1.00  0.00     0.046 A 
HETATM    6  N2  UNL     1      -9.288   5.660  13.806  1.00  0.00    -0.354 N 
HETATM    7  C18 UNL     1      -9.160   6.817  14.531  1.00  0.00     0.062 A 
HETATM    8  C27 UNL     1      -7.818   7.070  14.681  1.00  0.00     0.048 A 
HETATM    9  C28 UNL     1      -7.099   6.030  14.013  1.00  0.00     0.026 A 
HETATM   10  H18 UNL     1     -10.182   5.259  13.553  1.00  0.00     0.166 HD
ENDROOT
BRANCH   7  11
HETATM   11  C19 UNL     1     -10.393   7.619  15.033  1.00  0.00     0.087 A 
HETATM   12  N3  UNL     1     -10.321   8.232  16.224  1.00  0.00    -0.297 N 
HETATM   13  N4  UNL     1     -11.529   8.800  16.358  1.00  0.00    -0.299 N 
ATOM     14  H3  UNL     1      -9.534   8.259  16.874  1.00  0.00     0.187 HD
HETATM   15  C20 UNL     1     -12.370   8.596  15.298  1.00  0.00     0.061 A 
HETATM   16  H19 UNL     1     -11.722   9.319  17.206  1.00  0.00     0.187 HD
HETATM   17  C21 UNL     1     -13.684   9.020  15.068  1.00  0.00     0.044 A 
HETATM   18  C26 UNL     1     -11.650   7.813  14.398  1.00  0.00     0.022 A 
HETATM   19  C22 UNL     1     -14.300   8.627  13.869  1.00  0.00     0.008 A 
HETATM   20  C24 UNL     1     -13.593   7.842  12.945  1.00  0.00     0.013 A 
HETATM   21  C25 UNL     1     -12.277   7.428  13.196  1.00  0.00     0.017 A 
BRANCH  19  22
HETATM   22  C23 UNL     1     -15.709   9.068  13.558  1.00  0.00     0.386 C 
HETATM   23  F1  UNL     1     -16.137  10.090  14.350  1.00  0.00    -0.209 F 
HETATM   24  F2  UNL     1     -16.621   8.067  13.718  1.00  0.00    -0.209 F 
ENDBRANCH  19  22
ENDBRANCH   7  11
BRANCH   1  25
HETATM   25  O2  UNL     1      -4.845   6.643  14.396  1.00  0.00    -0.349 OA
BRANCH  25  26
HETATM   26  C5  UNL     1      -4.003   6.207  15.467  1.00  0.00     0.195 C 
BRANCH  26  27
HETATM   27  C4  UNL     1      -2.712   7.025  15.539  1.00  0.00     0.149 C 
BRANCH  27  28
HETATM   28  N1  UNL     1      -2.659   7.834  16.742  1.00  0.00    -0.356 N 
HETATM   29  C3  UNL     1      -2.731   9.202  16.676  1.00  0.00     0.240 C 
HETATM   30  O1  UNL     1      -2.994   9.831  15.660  1.00  0.00    -0.269 OA
HETATM   31  H4  UNL     1      -2.236   7.400  17.553  1.00  0.00     0.162 HD
BRANCH  29  32
HETATM   32  C2  UNL     1      -2.437   9.856  17.975  1.00  0.00     0.064 C 
HETATM   33  C1  UNL     1      -3.392  10.529  18.631  1.00  0.00     0.017 C 
ENDBRANCH  29  32
ENDBRANCH  27  28
ENDBRANCH  26  27
ENDBRANCH  25  26
ENDBRANCH   1  25
BRANCH   3  34
HETATM   34  C9  UNL     1      -5.915   2.544  11.745  1.00  0.00     0.077 C 
BRANCH  34  35
HETATM   35  C10 UNL     1      -4.454   2.550  11.351  1.00  0.00    -0.054 A 
HETATM   36  C11 UNL     1      -3.590   1.533  11.783  1.00  0.00     0.007 A 
HETATM   37  C12 UNL     1      -2.239   1.554  11.432  1.00  0.00     0.001 A 
HETATM   38  C13 UNL     1      -1.739   2.588  10.642  1.00  0.00     0.000 A 
HETATM   39  C14 UNL     1      -2.590   3.604  10.204  1.00  0.00     0.001 A 
HETATM   40  C15 UNL     1      -3.939   3.586  10.556  1.00  0.00     0.007 A 
ENDBRANCH  34  35
ENDBRANCH   3  34
TORSDOF 9
ENDMDL
MODEL 4
REMARK minimizedAffinity -8.37737465
REMARK CNNscore 0.140563235
REMARK CNNaffinity 5.89154673
REMARK  9 active torsions:
REMARK  status: ('A' for Active; 'I' for Inactive)
REMARK    1  A    between atoms: C2_2  and  C3_3 
REMARK       I    between atoms: C3_3  and  N1_5 
REMARK    2  A    between atoms: N1_5  and  C4_6 
REMARK    3  A    between atoms: C4_6  and  C5_7 
REMARK    4  A    between atoms: C5_7  and  O2_8 
REMARK    5  A    between atoms: O2_8  and  C6_9 
REMARK    6  A    between atoms: C8_11  and  C9_12 
REMARK    7  A    between atoms: C9_12  and  C10_13 
REMARK    8  A    between atoms: C18_22  and  C19_23 
REMARK    9  A    between atoms: C22_29  and  C23_30 
ROOT
HETATM    1  C6  UNL     1     -13.759   8.361  12.934  1.00  0.00     0.082 A 
HETATM    2  C7  UNL     1     -14.994   7.831  13.342  1.00  0.00     0.045 A 
HETATM    3  C8  UNL     1     -15.078   6.711  14.191  1.00  0.00    -0.049 A 
HETATM    4  C16 UNL     1     -13.909   6.086  14.651  1.00  0.00     0.038 A 
HETATM    5  C17 UNL     1     -12.683   6.625  14.248  1.00  0.00     0.046 A 
HETATM    6  N2  UNL     1     -11.400   6.228  14.550  1.00  0.00    -0.354 N 
HETATM    7  C18 UNL     1     -10.489   7.056  13.947  1.00  0.00     0.062 A 
HETATM    8  C27 UNL     1     -11.189   7.998  13.232  1.00  0.00     0.048 A 
HETATM    9  C28 UNL     1     -12.583   7.738  13.413  1.00  0.00     0.026 A 
HETATM   10  H18 UNL     1     -11.138   5.452  15.143  1.00  0.00     0.166 HD
ENDROOT
BRANCH   7  11
HETATM   11  C19 UNL     1      -8.956   6.867  14.124  1.00  0.00     0.087 A 
HETATM   12  N3  UNL     1      -8.295   7.702  14.940  1.00  0.00    -0.297 N 
HETATM   13  N4  UNL     1      -7.023   7.286  14.850  1.00  0.00    -0.299 N 
ATOM     14  H3  UNL     1      -8.670   8.471  15.496  1.00  0.00     0.187 HD
HETATM   15  C20 UNL     1      -6.837   6.208  14.026  1.00  0.00     0.061 A 
HETATM   16  H19 UNL     1      -6.317   7.784  15.380  1.00  0.00     0.187 HD
HETATM   17  C21 UNL     1      -5.681   5.498  13.683  1.00  0.00     0.044 A 
HETATM   18  C26 UNL     1      -8.100   5.904  13.524  1.00  0.00     0.022 A 
HETATM   19  C22 UNL     1      -5.811   4.430  12.780  1.00  0.00     0.008 A 
HETATM   20  C24 UNL     1      -7.074   4.101  12.265  1.00  0.00     0.013 A 
HETATM   21  C25 UNL     1      -8.220   4.826  12.623  1.00  0.00     0.017 A 
BRANCH  19  22
HETATM   22  C23 UNL     1      -4.603   3.617  12.386  1.00  0.00     0.386 C 
HETATM   23  F1  UNL     1      -3.685   3.502  13.385  1.00  0.00    -0.209 F 
HETATM   24  F2  UNL     1      -3.932   4.152  11.326  1.00  0.00    -0.209 F 
ENDBRANCH  19  22
ENDBRANCH   7  11
BRANCH   1  25
HETATM   25  O2  UNL     1     -13.590   9.440  12.111  1.00  0.00    -0.349 OA
BRANCH  25  26
HETATM   26  C5  UNL     1     -14.485  10.551  12.216  1.00  0.00     0.195 C 
BRANCH  26  27
HETATM   27  C4  UNL     1     -14.045  11.530  13.305  1.00  0.00     0.149 C 
BRANCH  27  28
HETATM   28  N1  UNL     1     -12.608  11.498  13.504  1.00  0.00    -0.356 N 
HETATM   29  C3  UNL     1     -12.058  11.771  14.730  1.00  0.00     0.240 C 
HETATM   30  O1  UNL     1     -12.704  11.907  15.760  1.00  0.00    -0.269 OA
HETATM   31  H4  UNL     1     -12.041  11.607  12.672  1.00  0.00     0.162 HD
BRANCH  29  32
HETATM   32  C2  UNL     1     -10.581  11.907  14.679  1.00  0.00     0.064 C 
HETATM   33  C1  UNL     1      -9.791  10.937  15.159  1.00  0.00     0.017 C 
ENDBRANCH  29  32
ENDBRANCH  27  28
ENDBRANCH  26  27
ENDBRANCH  25  26
ENDBRANCH   1  25
BRANCH   3  34
HETATM   34  C9  UNL     1     -16.433   6.169  14.600  1.00  0.00     0.077 C 
BRANCH  34  35
HETATM   35  C10 UNL     1     -16.735   4.793  14.047  1.00  0.00    -0.054 A 
HETATM   36  C11 UNL     1     -17.614   4.631  12.965  1.00  0.00     0.007 A 
HETATM   37  C12 UNL     1     -17.902   3.358  12.471  1.00  0.00     0.001 A 
HETATM   38  C13 UNL     1     -17.313   2.235  13.049  1.00  0.00     0.000 A 
HETATM   39  C14 UNL     1     -16.435   2.383  14.123  1.00  0.00     0.001 A 
HETATM   40  C15 UNL     1     -16.147   3.655  14.621  1.00  0.00     0.007 A 
ENDBRANCH  34  35
ENDBRANCH   3  34
TORSDOF 9
ENDMDL
MODEL 5
REMARK minimizedAffinity -8.12345982
REMARK CNNscore 0.137988091
REMARK CNNaffinity 6.04234552
REMARK  9 active torsions:
REMARK  status: ('A' for Active; 'I' for Inactive)
REMARK    1  A    between atoms: C2_2  and  C3_3 
REMARK       I    between atoms: C3_3  and  N1_5 
REMARK    2  A    between atoms: N1_5  and  C4_6 
REMARK    3  A    between atoms: C4_6  and  C5_7 
REMARK    4  A    between atoms: C5_7  and  O2_8 
REMARK    5  A    between atoms: O2_8  and  C6_9 
REMARK    6  A    between atoms: C8_11  and  C9_12 
REMARK    7  A    between atoms: C9_12  and  C10_13 
REMARK    8  A    between atoms: C18_22  and  C19_23 
REMARK    9  A    between atoms: C22_29  and  C23_30 
ROOT
HETATM    1  C6  UNL     1     -11.719   8.568  14.542  1.00  0.00     0.082 A 
HETATM    2  C7  UNL     1     -11.656   9.784  15.242  1.00  0.00     0.045 A 
HETATM    3  C8  UNL     1     -10.450  10.270  15.781  1.00  0.00    -0.049 A 
HETATM    4  C16 UNL     1      -9.265   9.534  15.632  1.00  0.00     0.038 A 
HETATM    5  C17 UNL     1      -9.333   8.329  14.926  1.00  0.00     0.046 A 
HETATM    6  N2  UNL     1      -8.342   7.422  14.624  1.00  0.00    -0.354 N 
HETATM    7  C18 UNL     1      -8.854   6.378  13.897  1.00  0.00     0.062 A 
HETATM    8  C27 UNL     1     -10.200   6.603  13.733  1.00  0.00     0.048 A 
HETATM    9  C28 UNL     1     -10.519   7.837  14.381  1.00  0.00     0.026 A 
HETATM   10  H18 UNL     1      -7.365   7.498  14.875  1.00  0.00     0.166 HD
ENDROOT
BRANCH   7  11
HETATM   11  C19 UNL     1      -7.964   5.208  13.393  1.00  0.00     0.087 A 
HETATM   12  N3  UNL     1      -8.546   4.030  13.118  1.00  0.00    -0.297 N 
HETATM   13  N4  UNL     1      -7.519   3.255  12.737  1.00  0.00    -0.299 N 
ATOM     14  H3  UNL     1      -9.534   3.782  13.185  1.00  0.00     0.187 HD
HETATM   15  C20 UNL     1      -6.304   3.887  12.736  1.00  0.00     0.061 A 
HETATM   16  H19 UNL     1      -7.712   2.292  12.488  1.00  0.00     0.187 HD
HETATM   17  C21 UNL     1      -5.025   3.424  12.405  1.00  0.00     0.044 A 
HETATM   18  C26 UNL     1      -6.561   5.185  13.169  1.00  0.00     0.022 A 
HETATM   19  C22 UNL     1      -3.952   4.323  12.525  1.00  0.00     0.008 A 
HETATM   20  C24 UNL     1      -4.187   5.638  12.954  1.00  0.00     0.013 A 
HETATM   21  C25 UNL     1      -5.477   6.080  13.279  1.00  0.00     0.017 A 
BRANCH  19  22
HETATM   22  C23 UNL     1      -2.553   3.887  12.166  1.00  0.00     0.386 C 
HETATM   23  F1  UNL     1      -1.590   4.706  12.676  1.00  0.00    -0.209 F 
HETATM   24  F2  UNL     1      -2.340   3.859  10.819  1.00  0.00    -0.209 F 
ENDBRANCH  19  22
ENDBRANCH   7  11
BRANCH   1  25
HETATM   25  O2  UNL     1     -12.848   8.025  13.993  1.00  0.00    -0.349 OA
BRANCH  25  26
HETATM   26  C5  UNL     1     -14.122   8.317  14.573  1.00  0.00     0.195 C 
BRANCH  26  27
HETATM   27  C4  UNL     1     -15.249   7.561  13.869  1.00  0.00     0.149 C 
BRANCH  27  28
HETATM   28  N1  UNL     1     -16.089   8.454  13.092  1.00  0.00    -0.356 N 
HETATM   29  C3  UNL     1     -16.172   8.337  11.728  1.00  0.00     0.240 C 
HETATM   30  O1  UNL     1     -15.693   7.413  11.085  1.00  0.00    -0.269 OA
HETATM   31  H4  UNL     1     -16.321   9.339  13.528  1.00  0.00     0.162 HD
BRANCH  29  32
HETATM   32  C2  UNL     1     -16.896   9.469  11.098  1.00  0.00     0.064 C 
HETATM   33  C1  UNL     1     -18.185   9.346  10.753  1.00  0.00     0.017 C 
ENDBRANCH  29  32
ENDBRANCH  27  28
ENDBRANCH  26  27
ENDBRANCH  25  26
ENDBRANCH   1  25
BRANCH   3  34
HETATM   34  C9  UNL     1     -10.430  11.585  16.535  1.00  0.00     0.077 C 
BRANCH  34  35
HETATM   35  C10 UNL     1      -9.670  12.685  15.827  1.00  0.00    -0.054 A 
HETATM   36  C11 UNL     1      -8.524  13.252  16.405  1.00  0.00     0.007 A 
HETATM   37  C12 UNL     1      -7.837  14.279  15.756  1.00  0.00     0.001 A 
HETATM   38  C13 UNL     1      -8.285  14.747  14.523  1.00  0.00     0.000 A 
HETATM   39  C14 UNL     1      -9.422  14.190  13.937  1.00  0.00     0.001 A 
HETATM   40  C15 UNL     1     -10.112  13.165  14.585  1.00  0.00     0.007 A 
ENDBRANCH  34  35
ENDBRANCH   3  34
TORSDOF 9
ENDMDL
MODEL 6
REMARK minimizedAffinity -8.364995
REMARK CNNscore 0.125907421
REMARK CNNaffinity 5.68163681
REMARK  9 active torsions:
REMARK  status: ('A' for Active; 'I' for Inactive)
REMARK    1  A    between atoms: C2_2  and  C3_3 
REMARK       I    between atoms: C3_3  and  N1_5 
REMARK    2  A    between atoms: N1_5  and  C4_6 
REMARK    3  A    between atoms: C4_6  and  C5_7 
REMARK    4  A    between atoms: C5_7  and  O2_8 
REMARK    5  A    between atoms: O2_8  and  C6_9 
REMARK    6  A    between atoms: C8_11  and  C9_12 
REMARK    7  A    between atoms: C9_12  and  C10_13 
REMARK    8  A    between atoms: C18_22  and  C19_23 
REMARK    9  A    between atoms: C22_29  and  C23_30 
ROOT
HETATM    1  C6  UNL     1      -1.786  11.102  18.445  1.00  0.00     0.082 A 
HETATM    2  C7  UNL     1      -2.462  12.298  18.737  1.00  0.00     0.045 A 
HETATM    3  C8  UNL     1      -3.661  12.652  18.089  1.00  0.00    -0.049 A 
HETATM    4  C16 UNL     1      -4.213  11.804  17.116  1.00  0.00     0.038 A 
HETATM    5  C17 UNL     1      -3.539  10.611  16.837  1.00  0.00     0.046 A 
HETATM    6  N2  UNL     1      -3.852   9.604  15.953  1.00  0.00    -0.354 N 
HETATM    7  C18 UNL     1      -2.916   8.605  16.014  1.00  0.00     0.062 A 
HETATM    8  C27 UNL     1      -1.972   8.972  16.944  1.00  0.00     0.048 A 
HETATM    9  C28 UNL     1      -2.355  10.243  17.476  1.00  0.00     0.026 A 
HETATM   10  H18 UNL     1      -4.660   9.572  15.345  1.00  0.00     0.166 HD
ENDROOT
BRANCH   7  11
HETATM   11  C19 UNL     1      -3.016   7.322  15.142  1.00  0.00     0.087 A 
HETATM   12  N3  UNL     1      -1.884   6.696  14.786  1.00  0.00    -0.297 N 
HETATM   13  N4  UNL     1      -2.317   5.667  14.041  1.00  0.00    -0.299 N 
ATOM     14  H3  UNL     1      -0.923   6.943  15.024  1.00  0.00     0.187 HD
HETATM   15  C20 UNL     1      -3.678   5.593  13.915  1.00  0.00     0.061 A 
HETATM   16  H19 UNL     1      -1.626   5.044  13.638  1.00  0.00     0.187 HD
HETATM   17  C21 UNL     1      -4.492   4.681  13.233  1.00  0.00     0.044 A 
HETATM   18  C26 UNL     1      -4.176   6.678  14.632  1.00  0.00     0.022 A 
HETATM   19  C22 UNL     1      -5.882   4.884  13.277  1.00  0.00     0.008 A 
HETATM   20  C24 UNL     1      -6.408   5.967  13.996  1.00  0.00     0.013 A 
HETATM   21  C25 UNL     1      -5.572   6.869  14.673  1.00  0.00     0.017 A 
BRANCH  19  22
HETATM   22  C23 UNL     1      -6.812   3.925  12.575  1.00  0.00     0.386 C 
HETATM   23  F1  UNL     1      -7.982   4.502  12.186  1.00  0.00    -0.209 F 
HETATM   24  F2  UNL     1      -7.164   2.866  13.360  1.00  0.00    -0.209 F 
ENDBRANCH  19  22
ENDBRANCH   7  11
BRANCH   1  25
HETATM   25  O2  UNL     1      -0.619  10.688  19.024  1.00  0.00    -0.349 OA
BRANCH  25  26
HETATM   26  C5  UNL     1       0.566  11.472  18.856  1.00  0.00     0.195 C 
BRANCH  26  27
HETATM   27  C4  UNL     1       1.823  10.679  19.216  1.00  0.00     0.149 C 
BRANCH  27  28
HETATM   28  N1  UNL     1       1.813  10.263  20.606  1.00  0.00    -0.356 N 
HETATM   29  C3  UNL     1       2.968   9.879  21.237  1.00  0.00     0.240 C 
HETATM   30  O1  UNL     1       4.088   9.996  20.757  1.00  0.00    -0.269 OA
HETATM   31  H4  UNL     1       0.922   9.947  20.970  1.00  0.00     0.162 HD
BRANCH  29  32
HETATM   32  C2  UNL     1       2.722   9.282  22.573  1.00  0.00     0.064 C 
HETATM   33  C1  UNL     1       2.109   8.096  22.686  1.00  0.00     0.017 C 
ENDBRANCH  29  32
ENDBRANCH  27  28
ENDBRANCH  26  27
ENDBRANCH  25  26
ENDBRANCH   1  25
BRANCH   3  34
HETATM   34  C9  UNL     1      -4.353  13.957  18.431  1.00  0.00     0.077 C 
BRANCH  34  35
HETATM   35  C10 UNL     1      -4.694  14.102  19.898  1.00  0.00    -0.054 A 
HETATM   36  C11 UNL     1      -4.095  15.102  20.678  1.00  0.00     0.007 A 
HETATM   37  C12 UNL     1      -4.400  15.220  22.035  1.00  0.00     0.001 A 
HETATM   38  C13 UNL     1      -5.309  14.344  22.625  1.00  0.00     0.000 A 
HETATM   39  C14 UNL     1      -5.913  13.346  21.858  1.00  0.00     0.001 A 
HETATM   40  C15 UNL     1      -5.608  13.225  20.502  1.00  0.00     0.007 A 
ENDBRANCH  34  35
ENDBRANCH   3  34
TORSDOF 9
ENDMDL
MODEL 7
REMARK minimizedAffinity -9.16903973
REMARK CNNscore 0.118936568
REMARK CNNaffinity 7.05793142
REMARK  9 active torsions:
REMARK  status: ('A' for Active; 'I' for Inactive)
REMARK    1  A    between atoms: C2_2  and  C3_3 
REMARK       I    between atoms: C3_3  and  N1_5 
REMARK    2  A    between atoms: N1_5  and  C4_6 
REMARK    3  A    between atoms: C4_6  and  C5_7 
REMARK    4  A    between atoms: C5_7  and  O2_8 
REMARK    5  A    between atoms: O2_8  and  C6_9 
REMARK    6  A    between atoms: C8_11  and  C9_12 
REMARK    7  A    between atoms: C9_12  and  C10_13 
REMARK    8  A    between atoms: C18_22  and  C19_23 
REMARK    9  A    between atoms: C22_29  and  C23_30 
ROOT
HETATM    1  C6  UNL     1      -6.808   5.307  13.339  1.00  0.00     0.082 A 
HETATM    2  C7  UNL     1      -8.013   5.693  13.946  1.00  0.00     0.045 A 
HETATM    3  C8  UNL     1      -8.039   6.499  15.101  1.00  0.00    -0.049 A 
HETATM    4  C16 UNL     1      -6.838   6.936  15.681  1.00  0.00     0.038 A 
HETATM    5  C17 UNL     1      -5.643   6.555  15.065  1.00  0.00     0.046 A 
HETATM    6  N2  UNL     1      -4.340   6.842  15.406  1.00  0.00    -0.354 N 
HETATM    7  C18 UNL     1      -3.474   6.272  14.510  1.00  0.00     0.062 A 
HETATM    8  C27 UNL     1      -4.222   5.592  13.579  1.00  0.00     0.048 A 
HETATM    9  C28 UNL     1      -5.601   5.763  13.918  1.00  0.00     0.026 A 
HETATM   10  H18 UNL     1      -4.038   7.406  16.190  1.00  0.00     0.166 HD
ENDROOT
BRANCH   7  11
HETATM   11  C19 UNL     1      -1.933   6.443  14.626  1.00  0.00     0.087 A 
HETATM   12  N3  UNL     1      -1.399   6.659  15.837  1.00  0.00    -0.297 N 
HETATM   13  N4  UNL     1      -0.087   6.778  15.584  1.00  0.00    -0.299 N 
ATOM     14  H3  UNL     1      -1.877   6.720  16.737  1.00  0.00     0.187 HD
HETATM   15  C20 UNL     1       0.250   6.630  14.266  1.00  0.00     0.061 A 
HETATM   16  H19 UNL     1       0.536   6.964  16.362  1.00  0.00     0.187 HD
HETATM   17  C21 UNL     1       1.491   6.683  13.620  1.00  0.00     0.044 A 
HETATM   18  C26 UNL     1      -0.952   6.408  13.598  1.00  0.00     0.022 A 
HETATM   19  C22 UNL     1       1.512   6.508  12.226  1.00  0.00     0.008 A 
HETATM   20  C24 UNL     1       0.315   6.278  11.533  1.00  0.00     0.013 A 
HETATM   21  C25 UNL     1      -0.918   6.228  12.201  1.00  0.00     0.017 A 
BRANCH  19  22
HETATM   22  C23 UNL     1       2.822   6.537  11.477  1.00  0.00     0.386 C 
HETATM   23  F1  UNL     1       2.887   7.536  10.553  1.00  0.00    -0.209 F 
HETATM   24  F2  UNL     1       3.061   5.382  10.792  1.00  0.00    -0.209 F 
ENDBRANCH  19  22
ENDBRANCH   7  11
BRANCH   1  25
HETATM   25  O2  UNL     1      -6.697   4.525  12.222  1.00  0.00    -0.349 OA
BRANCH  25  26
HETATM   26  C5  UNL     1      -6.233   3.178  12.351  1.00  0.00     0.195 C 
BRANCH  26  27
HETATM   27  C4  UNL     1      -5.571   2.683  11.064  1.00  0.00     0.149 C 
BRANCH  27  28
HETATM   28  N1  UNL     1      -4.487   1.760  11.341  1.00  0.00    -0.356 N 
HETATM   29  C3  UNL     1      -3.184   2.186  11.359  1.00  0.00     0.240 C 
HETATM   30  O1  UNL     1      -2.841   3.359  11.303  1.00  0.00    -0.269 OA
HETATM   31  H4  UNL     1      -4.685   0.780  11.180  1.00  0.00     0.162 HD
BRANCH  29  32
HETATM   32  C2  UNL     1      -2.214   1.065  11.437  1.00  0.00     0.064 C 
HETATM   33  C1  UNL     1      -1.075   1.101  10.733  1.00  0.00     0.017 C 
ENDBRANCH  29  32
ENDBRANCH  27  28
ENDBRANCH  26  27
ENDBRANCH  25  26
ENDBRANCH   1  25
BRANCH   3  34
HETATM   34  C9  UNL     1      -9.364   6.886  15.728  1.00  0.00     0.077 C 
BRANCH  34  35
HETATM   35  C10 UNL     1     -10.294   7.621  14.788  1.00  0.00    -0.054 A 
HETATM   36  C11 UNL     1     -10.312   9.024  14.749  1.00  0.00     0.007 A 
HETATM   37  C12 UNL     1     -11.185   9.698  13.893  1.00  0.00     0.001 A 
HETATM   38  C13 UNL     1     -12.044   8.978  13.065  1.00  0.00     0.000 A 
HETATM   39  C14 UNL     1     -12.034   7.583  13.094  1.00  0.00     0.001 A 
HETATM   40  C15 UNL     1     -11.165   6.907  13.950  1.00  0.00     0.007 A 
ENDBRANCH  34  35
ENDBRANCH   3  34
TORSDOF 9
ENDMDL
MODEL 8
REMARK minimizedAffinity -8.10032272
REMARK CNNscore 0.116253614
REMARK CNNaffinity 6.07777643
REMARK  9 active torsions:
REMARK  status: ('A' for Active; 'I' for Inactive)
REMARK    1  A    between atoms: C2_2  and  C3_3 
REMARK       I    between atoms: C3_3  and  N1_5 
REMARK    2  A    between atoms: N1_5  and  C4_6 
REMARK    3  A    between atoms: C4_6  and  C5_7 
REMARK    4  A    between atoms: C5_7  and  O2_8 
REMARK    5  A    between atoms: O2_8  and  C6_9 
REMARK    6  A    between atoms: C8_11  and  C9_12 
REMARK    7  A    between atoms: C9_12  and  C10_13 
REMARK    8  A    between atoms: C18_22  and  C19_23 
REMARK    9  A    between atoms: C22_29  and  C23_30 
ROOT
HETATM    1  C6  UNL     1     -11.506   8.918  15.359  1.00  0.00     0.082 A 
HETATM    2  C7  UNL     1     -12.805   8.794  14.843  1.00  0.00     0.045 A 
HETATM    3  C8  UNL     1     -13.111   7.894  13.805  1.00  0.00    -0.049 A 
HETATM    4  C16 UNL     1     -12.103   7.090  13.251  1.00  0.00     0.038 A 
HETATM    5  C17 UNL     1     -10.813   7.211  13.776  1.00  0.00     0.046 A 
HETATM    6  N2  UNL     1      -9.654   6.552  13.437  1.00  0.00    -0.354 N 
HETATM    7  C18 UNL     1      -8.614   6.975  14.225  1.00  0.00     0.062 A 
HETATM    8  C27 UNL     1      -9.102   7.933  15.081  1.00  0.00     0.048 A 
HETATM    9  C28 UNL     1     -10.496   8.094  14.809  1.00  0.00     0.026 A 
HETATM   10  H18 UNL     1      -9.557   5.840  12.725  1.00  0.00     0.166 HD
ENDROOT
BRANCH   7  11
HETATM   11  C19 UNL     1      -7.181   6.390  14.086  1.00  0.00     0.087 A 
HETATM   12  N3  UNL     1      -6.176   6.989  14.743  1.00  0.00    -0.297 N 
HETATM   13  N4  UNL     1      -5.101   6.264  14.399  1.00  0.00    -0.299 N 
ATOM     14  H3  UNL     1      -6.219   7.802  15.358  1.00  0.00     0.187 HD
HETATM   15  C20 UNL     1      -5.371   5.214  13.564  1.00  0.00     0.061 A 
HETATM   16  H19 UNL     1      -4.198   6.539  14.770  1.00  0.00     0.187 HD
HETATM   17  C21 UNL     1      -4.532   4.247  12.997  1.00  0.00     0.044 A 
HETATM   18  C26 UNL     1      -6.743   5.268  13.332  1.00  0.00     0.022 A 
HETATM   19  C22 UNL     1      -5.114   3.291  12.148  1.00  0.00     0.008 A 
HETATM   20  C24 UNL     1      -6.495   3.322  11.904  1.00  0.00     0.013 A 
HETATM   21  C25 UNL     1      -7.317   4.300  12.483  1.00  0.00     0.017 A 
BRANCH  19  22
HETATM   22  C23 UNL     1      -4.264   2.213  11.522  1.00  0.00     0.386 C 
HETATM   23  F1  UNL     1      -4.891   1.006  11.457  1.00  0.00    -0.209 F 
HETATM   24  F2  UNL     1      -3.106   1.992  12.207  1.00  0.00    -0.209 F 
ENDBRANCH  19  22
ENDBRANCH   7  11
BRANCH   1  25
HETATM   25  O2  UNL     1     -11.126   9.768  16.360  1.00  0.00    -0.349 OA
BRANCH  25  26
HETATM   26  C5  UNL     1     -10.858   9.244  17.664  1.00  0.00     0.195 C 
BRANCH  26  27
HETATM   27  C4  UNL     1     -11.991   9.557  18.642  1.00  0.00     0.149 C 
BRANCH  27  28
HETATM   28  N1  UNL     1     -11.590   9.325  20.017  1.00  0.00    -0.356 N 
HETATM   29  C3  UNL     1     -11.454  10.367  20.899  1.00  0.00     0.240 C 
HETATM   30  O1  UNL     1     -11.794  11.519  20.663  1.00  0.00    -0.269 OA
HETATM   31  H4  UNL     1     -11.101   8.457  20.198  1.00  0.00     0.162 HD
BRANCH  29  32
HETATM   32  C2  UNL     1     -10.827   9.957  22.180  1.00  0.00     0.064 C 
HETATM   33  C1  UNL     1     -11.013  10.681  23.291  1.00  0.00     0.017 C 
ENDBRANCH  29  32
ENDBRANCH  27  28
ENDBRANCH  26  27
ENDBRANCH  25  26
ENDBRANCH   1  25
BRANCH   3  34
HETATM   34  C9  UNL     1     -14.528   7.799  13.274  1.00  0.00     0.077 C 
BRANCH  34  35
HETATM   35  C10 UNL     1     -15.219   6.494  13.603  1.00  0.00    -0.054 A 
HETATM   36  C11 UNL     1     -16.448   6.165  13.012  1.00  0.00     0.007 A 
HETATM   37  C12 UNL     1     -17.091   4.968  13.334  1.00  0.00     0.001 A 
HETATM   38  C13 UNL     1     -16.510   4.087  14.245  1.00  0.00     0.000 A 
HETATM   39  C14 UNL     1     -15.287   4.403  14.837  1.00  0.00     0.001 A 
HETATM   40  C15 UNL     1     -14.644   5.600  14.519  1.00  0.00     0.007 A 
ENDBRANCH  34  35
ENDBRANCH   3  34
TORSDOF 9
ENDMDL
MODEL 9
REMARK minimizedAffinity -8.4158535
REMARK CNNscore 0.114756174
REMARK CNNaffinity 6.00195694
REMARK  9 active torsions:
REMARK  status: ('A' for Active; 'I' for Inactive)
REMARK    1  A    between atoms: C2_2  and  C3_3 
REMARK       I    between atoms: C3_3  and  N1_5 
REMARK    2  A    between atoms: N1_5  and  C4_6 
REMARK    3  A    between atoms: C4_6  and  C5_7 
REMARK    4  A    between atoms: C5_7  and  O2_8 
REMARK    5  A    between atoms: O2_8  and  C6_9 
REMARK    6  A    between atoms: C8_11  and  C9_12 
REMARK    7  A    between atoms: C9_12  and  C10_13 
REMARK    8  A    between atoms: C18_22  and  C19_23 
REMARK    9  A    between atoms: C22_29  and  C23_30 
ROOT
HETATM    1  C6  UNL     1     -11.272   8.071  14.953  1.00  0.00     0.082 A 
HETATM    2  C7  UNL     1     -11.714   9.204  15.654  1.00  0.00     0.045 A 
HETATM    3  C8  UNL     1     -10.814  10.126  16.222  1.00  0.00    -0.049 A 
HETATM    4  C16 UNL     1      -9.431   9.925  16.101  1.00  0.00     0.038 A 
HETATM    5  C17 UNL     1      -8.997   8.800  15.393  1.00  0.00     0.046 A 
HETATM    6  N2  UNL     1      -7.721   8.367  15.114  1.00  0.00    -0.354 N 
HETATM    7  C18 UNL     1      -7.757   7.214  14.374  1.00  0.00     0.062 A 
HETATM    8  C27 UNL     1      -9.077   6.884  14.178  1.00  0.00     0.048 A 
HETATM    9  C28 UNL     1      -9.876   7.881  14.819  1.00  0.00     0.026 A 
HETATM   10  H18 UNL     1      -6.861   8.825  15.388  1.00  0.00     0.166 HD
ENDROOT
BRANCH   7  11
HETATM   11  C19 UNL     1      -6.464   6.501  13.890  1.00  0.00     0.087 A 
HETATM   12  N3  UNL     1      -5.284   7.114  14.073  1.00  0.00    -0.297 N 
HETATM   13  N4  UNL     1      -4.400   6.258  13.537  1.00  0.00    -0.299 N 
ATOM     14  H3  UNL     1      -5.102   8.016  14.514  1.00  0.00     0.187 HD
HETATM   15  C20 UNL     1      -4.956   5.113  13.033  1.00  0.00     0.061 A 
HETATM   16  H19 UNL     1      -3.420   6.515  13.544  1.00  0.00     0.187 HD
HETATM   17  C21 UNL     1      -4.375   4.003  12.408  1.00  0.00     0.044 A 
HETATM   18  C26 UNL     1      -6.327   5.241  13.247  1.00  0.00     0.022 A 
HETATM   19  C22 UNL     1      -5.227   2.974  11.975  1.00  0.00     0.008 A 
HETATM   20  C24 UNL     1      -6.610   3.077  12.185  1.00  0.00     0.013 A 
HETATM   21  C25 UNL     1      -7.171   4.199  12.813  1.00  0.00     0.017 A 
BRANCH  19  22
HETATM   22  C23 UNL     1      -4.657   1.745  11.311  1.00  0.00     0.386 C 
HETATM   23  F1  UNL     1      -5.537   0.707  11.260  1.00  0.00    -0.209 F 
HETATM   24  F2  UNL     1      -3.554   1.264  11.954  1.00  0.00    -0.209 F 
ENDBRANCH  19  22
ENDBRANCH   7  11
BRANCH   1  25
HETATM   25  O2  UNL     1     -12.077   7.128  14.377  1.00  0.00    -0.349 OA
BRANCH  25  26
HETATM   26  C5  UNL     1     -12.503   7.300  13.022  1.00  0.00     0.195 C 
BRANCH  26  27
HETATM   27  C4  UNL     1     -13.780   8.136  12.933  1.00  0.00     0.149 C 
BRANCH  27  28
HETATM   28  N1  UNL     1     -14.961   7.337  13.204  1.00  0.00    -0.356 N 
HETATM   29  C3  UNL     1     -15.942   7.182  12.258  1.00  0.00     0.240 C 
HETATM   30  O1  UNL     1     -15.844   7.553  11.096  1.00  0.00    -0.269 OA
HETATM   31  H4  UNL     1     -15.190   7.199  14.181  1.00  0.00     0.162 HD
BRANCH  29  32
HETATM   32  C2  UNL     1     -17.159   6.525  12.795  1.00  0.00     0.064 C 
HETATM   33  C1  UNL     1     -17.343   5.206  12.647  1.00  0.00     0.017 C 
ENDBRANCH  29  32
ENDBRANCH  27  28
ENDBRANCH  26  27
ENDBRANCH  25  26
ENDBRANCH   1  25
BRANCH   3  34
HETATM   34  C9  UNL     1     -11.338  11.331  16.978  1.00  0.00     0.077 C 
BRANCH  34  35
HETATM   35  C10 UNL     1     -11.136  11.250  18.475  1.00  0.00    -0.054 A 
HETATM   36  C11 UNL     1     -10.523  12.301  19.174  1.00  0.00     0.007 A 
HETATM   37  C12 UNL     1     -10.324  12.213  20.554  1.00  0.00     0.001 A 
HETATM   38  C13 UNL     1     -10.737  11.077  21.247  1.00  0.00     0.000 A 
HETATM   39  C14 UNL     1     -11.350  10.027  20.563  1.00  0.00     0.001 A 
HETATM   40  C15 UNL     1     -11.548  10.111  19.185  1.00  0.00     0.007 A 
ENDBRANCH  34  35
ENDBRANCH   3  34
TORSDOF 9
ENDMDL
