MODEL 1
REMARK minimizedAffinity -8.76622868
REMARK  1 active torsions:
REMARK  status: ('A' for Active; 'I' for Inactive)
REMARK    1  A    between atoms: C2_2  and  C3_3 
REMARK       I    between atoms: C3_3  and  N1_5 
ROOT
HETATM    1  C3  UNL     1       8.520   8.709  16.415  1.00  0.00     0.247 C 
HETATM    2  O1  UNL     1       9.119   7.951  17.180  1.00  0.00    -0.268 OA
HETATM    3  N1  UNL     1       8.315  10.080  16.648  1.00  0.00    -0.315 N 
HETATM    4  C4  UNL     1       7.424  10.911  15.814  1.00  0.00     0.132 C 
HETATM    5  C5  UNL     1       5.939  10.636  16.069  1.00  0.00     0.020 C 
HETATM    6  C6  UNL     1       5.058  11.548  15.211  1.00  0.00     0.002 C 
HETATM    7  C7  UNL     1       3.574  11.163  15.243  1.00  0.00     0.000 C 
HETATM    8  C8  UNL     1       2.973  11.232  16.644  1.00  0.00     0.000 C 
HETATM    9  C9  UNL     1       1.469  10.933  16.635  1.00  0.00     0.000 C 
HETATM   10  C10 UNL     1       0.892  10.925  18.053  1.00  0.00     0.002 C 
HETATM   11  C11 UNL     1       0.742  12.332  18.639  1.00  0.00     0.020 C 
HETATM   12  C12 UNL     1       0.753  12.349  20.168  1.00  0.00     0.128 C 
HETATM   13  N2  UNL     1       2.063  12.045  20.727  1.00  0.00    -0.355 N 
HETATM   14  C13 UNL     1       3.113  12.933  20.723  1.00  0.00     0.106 A 
HETATM   15  C14 UNL     1       4.184  12.331  21.349  1.00  0.00     0.019 A 
HETATM   16  C15 UNL     1       3.766  11.027  21.758  1.00  0.00     0.005 A 
HETATM   17  C16 UNL     1       4.400   9.967  22.443  1.00  0.00     0.014 A 
HETATM   18  C17 UNL     1       3.693   8.790  22.713  1.00  0.00     0.001 A 
HETATM   19  C18 UNL     1       2.366   8.660  22.315  1.00  0.00     0.002 A 
HETATM   20  C19 UNL     1       1.713   9.697  21.638  1.00  0.00     0.030 A 
HETATM   21  C20 UNL     1       2.429  10.876  21.368  1.00  0.00     0.045 A 
HETATM   22  C21 UNL     1       5.424  13.025  21.622  1.00  0.00     0.048 A 
HETATM   23  C22 UNL     1       5.572  13.668  22.833  1.00  0.00     0.047 A 
HETATM   24  C23 UNL     1       6.755  14.331  22.999  1.00  0.00     0.093 A 
HETATM   25  N3  UNL     1       7.721  14.356  22.064  1.00  0.00    -0.342 N 
ATOM     26  H3  UNL     1       8.588  14.874  22.211  1.00  0.00     0.167 HD
HETATM   27  C24 UNL     1       7.500  13.670  20.923  1.00  0.00     0.162 A 
HETATM   28  N4  UNL     1       6.368  13.006  20.657  1.00  0.00    -0.332 N 
ATOM     29  H4  UNL     1       6.226  12.514  19.775  1.00  0.00     0.168 HD
HETATM   30  N5  UNL     1       8.578  13.709  20.021  1.00  0.00    -0.230 NA
HETATM   31  C25 UNL     1       9.122  12.567  19.390  1.00  0.00     0.017 A 
HETATM   32  C26 UNL     1      10.380  12.104  19.792  1.00  0.00     0.024 A 
HETATM   33  C27 UNL     1      10.935  10.977  19.198  1.00  0.00     0.004 A 
HETATM   34  C28 UNL     1      10.245  10.309  18.186  1.00  0.00     0.030 A 
HETATM   35  C29 UNL     1       8.983  10.743  17.750  1.00  0.00     0.039 A 
HETATM   36  C30 UNL     1       8.430  11.873  18.385  1.00  0.00     0.053 A 
HETATM   37  H29 UNL     1       9.287  14.207  20.553  1.00  0.00     0.136 HD
ENDROOT
BRANCH   1  38
HETATM   38  C2  UNL     1       7.950   8.118  15.160  1.00  0.00     0.064 C 
HETATM   39  C1  UNL     1       8.734   7.900  14.095  1.00  0.00     0.017 C 
ENDBRANCH   1  38
TORSDOF 1
ENDMDL
MODEL 2
REMARK minimizedAffinity -8.20883942
REMARK  1 active torsions:
REMARK  status: ('A' for Active; 'I' for Inactive)
REMARK    1  A    between atoms: C2_2  and  C3_3 
REMARK       I    between atoms: C3_3  and  N1_5 
ROOT
HETATM    1  C3  UNL     1       1.249   8.094   8.890  1.00  0.00     0.247 C 
HETATM    2  O1  UNL     1       0.306   8.726   8.410  1.00  0.00    -0.268 OA
HETATM    3  N1  UNL     1       1.525   7.994  10.265  1.00  0.00    -0.315 N 
HETATM    4  C4  UNL     1       2.771   7.401  10.791  1.00  0.00     0.132 C 
HETATM    5  C5  UNL     1       3.990   8.310  10.603  1.00  0.00     0.020 C 
HETATM    6  C6  UNL     1       5.246   7.669  11.200  1.00  0.00     0.002 C 
HETATM    7  C7  UNL     1       6.537   8.414  10.838  1.00  0.00     0.000 C 
HETATM    8  C8  UNL     1       6.550   9.857  11.337  1.00  0.00     0.000 C 
HETATM    9  C9  UNL     1       7.885  10.550  11.044  1.00  0.00     0.000 C 
HETATM   10  C10 UNL     1       7.860  12.020  11.474  1.00  0.00     0.002 C 
HETATM   11  C11 UNL     1       7.953  12.192  12.994  1.00  0.00     0.020 C 
HETATM   12  C12 UNL     1       7.351  13.508  13.485  1.00  0.00     0.128 C 
HETATM   13  N2  UNL     1       5.899  13.542  13.376  1.00  0.00    -0.355 N 
HETATM   14  C13 UNL     1       5.060  12.857  14.222  1.00  0.00     0.106 A 
HETATM   15  C14 UNL     1       3.761  13.130  13.849  1.00  0.00     0.019 A 
HETATM   16  C15 UNL     1       3.812  14.024  12.736  1.00  0.00     0.005 A 
HETATM   17  C16 UNL     1       2.828  14.657  11.944  1.00  0.00     0.014 A 
HETATM   18  C17 UNL     1       3.213  15.514  10.907  1.00  0.00     0.001 A 
HETATM   19  C18 UNL     1       4.561  15.750  10.654  1.00  0.00     0.002 A 
HETATM   20  C19 UNL     1       5.556  15.138  11.426  1.00  0.00     0.030 A 
HETATM   21  C20 UNL     1       5.163  14.277  12.465  1.00  0.00     0.045 A 
HETATM   22  C21 UNL     1       2.615  12.663  14.599  1.00  0.00     0.048 A 
HETATM   23  C22 UNL     1       2.094  13.471  15.588  1.00  0.00     0.047 A 
HETATM   24  C23 UNL     1       1.036  12.942  16.274  1.00  0.00     0.093 A 
HETATM   25  N3  UNL     1       0.523  11.728  16.011  1.00  0.00    -0.342 N 
ATOM     26  H3  UNL     1      -0.257  11.354  16.552  1.00  0.00     0.167 HD
HETATM   27  C24 UNL     1       1.077  11.023  15.003  1.00  0.00     0.162 A 
HETATM   28  N4  UNL     1       2.127  11.444  14.284  1.00  0.00    -0.332 N 
ATOM     29  H4  UNL     1       2.534  10.876  13.542  1.00  0.00     0.168 HD
HETATM   30  N5  UNL     1       0.451   9.787  14.764  1.00  0.00    -0.230 NA
HETATM   31  C25 UNL     1       0.050   9.339  13.485  1.00  0.00     0.017 A 
HETATM   32  C26 UNL     1      -1.314   9.303  13.175  1.00  0.00     0.024 A 
HETATM   33  C27 UNL     1      -1.738   8.877  11.921  1.00  0.00     0.004 A 
HETATM   34  C28 UNL     1      -0.802   8.471  10.968  1.00  0.00     0.030 A 
HETATM   35  C29 UNL     1       0.574   8.489  11.240  1.00  0.00     0.039 A 
HETATM   36  C30 UNL     1       0.981   8.947  12.509  1.00  0.00     0.053 A 
HETATM   37  H29 UNL     1      -0.338   9.817  15.405  1.00  0.00     0.136 HD
ENDROOT
BRANCH   1  38
HETATM   38  C2  UNL     1       2.179   7.407   7.935  1.00  0.00     0.064 C 
HETATM   39  C1  UNL     1       1.843   7.262   6.645  1.00  0.00     0.017 C 
ENDBRANCH   1  38
TORSDOF 1
ENDMDL
MODEL 3
REMARK minimizedAffinity -8.13267803
REMARK  1 active torsions:
REMARK  status: ('A' for Active; 'I' for Inactive)
REMARK    1  A    between atoms: C2_2  and  C3_3 
REMARK       I    between atoms: C3_3  and  N1_5 
ROOT
HETATM    1  C3  UNL     1       2.612   9.695  22.367  1.00  0.00     0.247 C 
HETATM    2  O1  UNL     1       2.086   8.758  21.763  1.00  0.00    -0.268 OA
HETATM    3  N1  UNL     1       2.734  11.002  21.862  1.00  0.00    -0.315 N 
HETATM    4  C4  UNL     1       3.545  12.044  22.523  1.00  0.00     0.132 C 
HETATM    5  C5  UNL     1       5.051  11.827  22.351  1.00  0.00     0.020 C 
HETATM    6  C6  UNL     1       5.845  12.953  23.019  1.00  0.00     0.002 C 
HETATM    7  C7  UNL     1       7.352  12.674  23.089  1.00  0.00     0.000 C 
HETATM    8  C8  UNL     1       7.988  12.500  21.712  1.00  0.00     0.000 C 
HETATM    9  C9  UNL     1       9.507  12.314  21.804  1.00  0.00     0.000 C 
HETATM   10  C10 UNL     1      10.125  12.059  20.427  1.00  0.00     0.002 C 
HETATM   11  C11 UNL     1      10.199  13.326  19.569  1.00  0.00     0.020 C 
HETATM   12  C12 UNL     1      10.231  13.032  18.069  1.00  0.00     0.128 C 
HETATM   13  N2  UNL     1       8.961  12.531  17.563  1.00  0.00    -0.355 N 
HETATM   14  C13 UNL     1       7.856  13.326  17.370  1.00  0.00     0.106 A 
HETATM   15  C14 UNL     1       6.845  12.536  16.864  1.00  0.00     0.019 A 
HETATM   16  C15 UNL     1       7.359  11.209  16.736  1.00  0.00     0.005 A 
HETATM   17  C16 UNL     1       6.815   9.991  16.272  1.00  0.00     0.014 A 
HETATM   18  C17 UNL     1       7.605   8.836  16.258  1.00  0.00     0.001 A 
HETATM   19  C18 UNL     1       8.925   8.881  16.694  1.00  0.00     0.002 A 
HETATM   20  C19 UNL     1       9.490  10.077  17.156  1.00  0.00     0.030 A 
HETATM   21  C20 UNL     1       8.691  11.233  17.169  1.00  0.00     0.045 A 
HETATM   22  C21 UNL     1       5.571  13.073  16.436  1.00  0.00     0.048 A 
HETATM   23  C22 UNL     1       5.417  13.446  15.118  1.00  0.00     0.047 A 
HETATM   24  C23 UNL     1       4.198  13.977  14.802  1.00  0.00     0.093 A 
HETATM   25  N3  UNL     1       3.206  14.124  15.698  1.00  0.00    -0.342 N 
ATOM     26  H3  UNL     1       2.312  14.539  15.435  1.00  0.00     0.167 HD
HETATM   27  C24 UNL     1       3.438  13.700  16.957  1.00  0.00     0.162 A 
HETATM   28  N4  UNL     1       4.603  13.184  17.371  1.00  0.00    -0.332 N 
ATOM     29  H4  UNL     1       4.750  12.891  18.337  1.00  0.00     0.168 HD
HETATM   30  N5  UNL     1       2.334  13.846  17.817  1.00  0.00    -0.230 NA
HETATM   31  C25 UNL     1       1.847  12.820  18.659  1.00  0.00     0.017 A 
HETATM   32  C26 UNL     1       0.635  12.198  18.340  1.00  0.00     0.024 A 
HETATM   33  C27 UNL     1       0.137  11.179  19.144  1.00  0.00     0.004 A 
HETATM   34  C28 UNL     1       0.839  10.779  20.281  1.00  0.00     0.030 A 
HETATM   35  C29 UNL     1       2.057  11.379  20.638  1.00  0.00     0.039 A 
HETATM   36  C30 UNL     1       2.554  12.393  19.794  1.00  0.00     0.053 A 
HETATM   37  H29 UNL     1       1.610  14.175  17.183  1.00  0.00     0.136 HD
ENDROOT
BRANCH   1  38
HETATM   38  C2  UNL     1       3.183   9.411  23.724  1.00  0.00     0.064 C 
HETATM   39  C1  UNL     1       2.438   9.588  24.825  1.00  0.00     0.017 C 
ENDBRANCH   1  38
TORSDOF 1
ENDMDL
MODEL 4
REMARK minimizedAffinity -7.93231058
REMARK  1 active torsions:
REMARK  status: ('A' for Active; 'I' for Inactive)
REMARK    1  A    between atoms: C2_2  and  C3_3 
REMARK       I    between atoms: C3_3  and  N1_5 
ROOT
HETATM    1  C3  UNL     1       3.511  14.321  15.661  1.00  0.00     0.247 C 
HETATM    2  O1  UNL     1       2.500  14.973  15.930  1.00  0.00    -0.268 OA
HETATM    3  N1  UNL     1       3.797  13.043  16.173  1.00  0.00    -0.315 N 
HETATM    4  C4  UNL     1       5.104  12.381  15.992  1.00  0.00     0.132 C 
HETATM    5  C5  UNL     1       6.206  12.987  16.865  1.00  0.00     0.020 C 
HETATM    6  C6  UNL     1       7.530  12.242  16.672  1.00  0.00     0.002 C 
HETATM    7  C7  UNL     1       8.723  12.943  17.333  1.00  0.00     0.000 C 
HETATM    8  C8  UNL     1       8.564  13.087  18.844  1.00  0.00     0.000 C 
HETATM    9  C9  UNL     1       9.808  13.706  19.493  1.00  0.00     0.000 C 
HETATM   10  C10 UNL     1       9.608  13.921  20.995  1.00  0.00     0.002 C 
HETATM   11  C11 UNL     1       9.679  12.616  21.794  1.00  0.00     0.020 C 
HETATM   12  C12 UNL     1       8.925  12.684  23.121  1.00  0.00     0.128 C 
HETATM   13  N2  UNL     1       7.480  12.726  22.950  1.00  0.00    -0.355 N 
HETATM   14  C13 UNL     1       6.728  11.632  22.594  1.00  0.00     0.106 A 
HETATM   15  C14 UNL     1       5.405  12.020  22.544  1.00  0.00     0.019 A 
HETATM   16  C15 UNL     1       5.350  13.404  22.893  1.00  0.00     0.005 A 
HETATM   17  C16 UNL     1       4.299  14.338  23.028  1.00  0.00     0.014 A 
HETATM   18  C17 UNL     1       4.580  15.654  23.410  1.00  0.00     0.001 A 
HETATM   19  C18 UNL     1       5.890  16.048  23.664  1.00  0.00     0.002 A 
HETATM   20  C19 UNL     1       6.951  15.142  23.541  1.00  0.00     0.030 A 
HETATM   21  C20 UNL     1       6.662  13.822  23.154  1.00  0.00     0.045 A 
HETATM   22  C21 UNL     1       4.323  11.088  22.311  1.00  0.00     0.048 A 
HETATM   23  C22 UNL     1       3.709  10.499  23.396  1.00  0.00     0.047 A 
HETATM   24  C23 UNL     1       2.722   9.604  23.090  1.00  0.00     0.093 A 
HETATM   25  N3  UNL     1       2.356   9.315  21.829  1.00  0.00    -0.342 N 
ATOM     26  H3  UNL     1       1.626   8.631  21.633  1.00  0.00     0.167 HD
HETATM   27  C24 UNL     1       2.991   9.967  20.833  1.00  0.00     0.162 A 
HETATM   28  N4  UNL     1       3.983  10.846  21.027  1.00  0.00    -0.332 N 
ATOM     29  H4  UNL     1       4.455  11.307  20.249  1.00  0.00     0.168 HD
HETATM   30  N5  UNL     1       2.515   9.642  19.550  1.00  0.00    -0.230 NA
HETATM   31  C25 UNL     1       2.171  10.600  18.569  1.00  0.00     0.017 A 
HETATM   32  C26 UNL     1       0.821  10.800  18.260  1.00  0.00     0.024 A 
HETATM   33  C27 UNL     1       0.451  11.743  17.307  1.00  0.00     0.004 A 
HETATM   34  C28 UNL     1       1.429  12.487  16.645  1.00  0.00     0.030 A 
HETATM   35  C29 UNL     1       2.794  12.315  16.923  1.00  0.00     0.039 A 
HETATM   36  C30 UNL     1       3.142  11.371  17.910  1.00  0.00     0.053 A 
HETATM   37  H29 UNL     1       1.729   9.033  19.759  1.00  0.00     0.136 HD
ENDROOT
BRANCH   1  38
HETATM   38  C2  UNL     1       4.517  14.950  14.744  1.00  0.00     0.064 C 
HETATM   39  C1  UNL     1       4.115  15.628  13.658  1.00  0.00     0.017 C 
ENDBRANCH   1  38
TORSDOF 1
ENDMDL
MODEL 5
REMARK minimizedAffinity -7.86890793
REMARK  1 active torsions:
REMARK  status: ('A' for Active; 'I' for Inactive)
REMARK    1  A    between atoms: C2_2  and  C3_3 
REMARK       I    between atoms: C3_3  and  N1_5 
ROOT
HETATM    1  C3  UNL     1       4.491  14.303  12.500  1.00  0.00     0.247 C 
HETATM    2  O1  UNL     1       4.947  14.639  11.405  1.00  0.00    -0.268 OA
HETATM    3  N1  UNL     1       4.882  13.153  13.209  1.00  0.00    -0.315 N 
HETATM    4  C4  UNL     1       4.176  12.675  14.414  1.00  0.00     0.132 C 
HETATM    5  C5  UNL     1       2.823  12.030  14.096  1.00  0.00     0.020 C 
HETATM    6  C6  UNL     1       2.149  11.516  15.371  1.00  0.00     0.002 C 
HETATM    7  C7  UNL     1       0.696  11.077  15.155  1.00  0.00     0.000 C 
HETATM    8  C8  UNL     1       0.564   9.938  14.147  1.00  0.00     0.000 C 
HETATM    9  C9  UNL     1      -0.885   9.455  14.018  1.00  0.00     0.000 C 
HETATM   10  C10 UNL     1      -1.020   8.369  12.946  1.00  0.00     0.002 C 
HETATM   11  C11 UNL     1      -0.471   7.015  13.406  1.00  0.00     0.020 C 
HETATM   12  C12 UNL     1      -0.044   6.117  12.245  1.00  0.00     0.128 C 
HETATM   13  N2  UNL     1       1.156   6.593  11.573  1.00  0.00    -0.355 N 
HETATM   14  C13 UNL     1       2.418   6.480  12.107  1.00  0.00     0.106 A 
HETATM   15  C14 UNL     1       3.314   7.010  11.202  1.00  0.00     0.019 A 
HETATM   16  C15 UNL     1       2.567   7.454  10.068  1.00  0.00     0.005 A 
HETATM   17  C16 UNL     1       2.921   8.056   8.839  1.00  0.00     0.014 A 
HETATM   18  C17 UNL     1       1.927   8.364   7.904  1.00  0.00     0.001 A 
HETATM   19  C18 UNL     1       0.593   8.076   8.173  1.00  0.00     0.002 A 
HETATM   20  C19 UNL     1       0.216   7.477   9.382  1.00  0.00     0.030 A 
HETATM   21  C20 UNL     1       1.219   7.171  10.319  1.00  0.00     0.045 A 
HETATM   22  C21 UNL     1       4.747   6.952  11.393  1.00  0.00     0.048 A 
HETATM   23  C22 UNL     1       5.443   5.881  10.872  1.00  0.00     0.047 A 
HETATM   24  C23 UNL     1       6.787   5.881  11.126  1.00  0.00     0.093 A 
HETATM   25  N3  UNL     1       7.402   6.852  11.823  1.00  0.00    -0.342 N 
ATOM     26  H3  UNL     1       8.404   6.816  12.010  1.00  0.00     0.167 HD
HETATM   27  C24 UNL     1       6.644   7.877  12.265  1.00  0.00     0.162 A 
HETATM   28  N4  UNL     1       5.319   7.960  12.085  1.00  0.00    -0.332 N 
ATOM     29  H4  UNL     1       4.773   8.740  12.450  1.00  0.00     0.168 HD
HETATM   30  N5  UNL     1       7.373   8.871  12.942  1.00  0.00    -0.230 NA
HETATM   31  C25 UNL     1       7.262  10.254  12.673  1.00  0.00     0.017 A 
HETATM   32  C26 UNL     1       8.315  10.905  12.022  1.00  0.00     0.024 A 
HETATM   33  C27 UNL     1       8.229  12.263  11.734  1.00  0.00     0.004 A 
HETATM   34  C28 UNL     1       7.095  12.986  12.106  1.00  0.00     0.030 A 
HETATM   35  C29 UNL     1       6.019  12.371  12.765  1.00  0.00     0.039 A 
HETATM   36  C30 UNL     1       6.118  10.989  13.023  1.00  0.00     0.053 A 
HETATM   37  H29 UNL     1       8.331   8.551  12.828  1.00  0.00     0.136 HD
ENDROOT
BRANCH   1  38
HETATM   38  C2  UNL     1       3.427  15.170  13.103  1.00  0.00     0.064 C 
HETATM   39  C1  UNL     1       2.259  15.351  12.470  1.00  0.00     0.017 C 
ENDBRANCH   1  38
TORSDOF 1
ENDMDL
MODEL 6
REMARK minimizedAffinity -7.60944986
REMARK  1 active torsions:
REMARK  status: ('A' for Active; 'I' for Inactive)
REMARK    1  A    between atoms: C2_2  and  C3_3 
REMARK       I    between atoms: C3_3  and  N1_5 
ROOT
HETATM    1  C3  UNL     1       0.658   7.123  11.199  1.00  0.00     0.247 C 
HETATM    2  O1  UNL     1      -0.302   7.376  10.467  1.00  0.00    -0.268 OA
HETATM    3  N1  UNL     1       0.586   7.011  12.599  1.00  0.00    -0.315 N 
HETATM    4  C4  UNL     1       1.783   6.909  13.457  1.00  0.00     0.132 C 
HETATM    5  C5  UNL     1       2.535   8.236  13.593  1.00  0.00     0.020 C 
HETATM    6  C6  UNL     1       3.743   8.088  14.522  1.00  0.00     0.002 C 
HETATM    7  C7  UNL     1       4.669   9.310  14.514  1.00  0.00     0.000 C 
HETATM    8  C8  UNL     1       3.970  10.588  14.969  1.00  0.00     0.000 C 
HETATM    9  C9  UNL     1       4.938  11.775  15.040  1.00  0.00     0.000 C 
HETATM   10  C10 UNL     1       4.212  13.068  15.419  1.00  0.00     0.002 C 
HETATM   11  C11 UNL     1       3.833  13.120  16.902  1.00  0.00     0.020 C 
HETATM   12  C12 UNL     1       2.647  14.042  17.185  1.00  0.00     0.128 C 
HETATM   13  N2  UNL     1       1.386  13.513  16.682  1.00  0.00    -0.355 N 
HETATM   14  C13 UNL     1       0.707  12.478  17.279  1.00  0.00     0.106 A 
HETATM   15  C14 UNL     1      -0.447  12.253  16.559  1.00  0.00     0.019 A 
HETATM   16  C15 UNL     1      -0.475  13.195  15.486  1.00  0.00     0.005 A 
HETATM   17  C16 UNL     1      -1.390  13.462  14.443  1.00  0.00     0.014 A 
HETATM   18  C17 UNL     1      -1.130  14.494  13.535  1.00  0.00     0.001 A 
HETATM   19  C18 UNL     1       0.024  15.263  13.656  1.00  0.00     0.002 A 
HETATM   20  C19 UNL     1       0.945  15.021  14.682  1.00  0.00     0.030 A 
HETATM   21  C20 UNL     1       0.678  13.982  15.591  1.00  0.00     0.045 A 
HETATM   22  C21 UNL     1      -1.458  11.305  16.976  1.00  0.00     0.048 A 
HETATM   23  C22 UNL     1      -2.496  11.747  17.768  1.00  0.00     0.047 A 
HETATM   24  C23 UNL     1      -3.389  10.784  18.149  1.00  0.00     0.093 A 
HETATM   25  N3  UNL     1      -3.282   9.496  17.779  1.00  0.00    -0.342 N 
ATOM     26  H3  UNL     1      -3.956   8.797  18.092  1.00  0.00     0.167 HD
HETATM   27  C24 UNL     1      -2.251   9.163  16.975  1.00  0.00     0.162 A 
HETATM   28  N4  UNL     1      -1.314  10.027  16.563  1.00  0.00    -0.332 N 
ATOM     29  H4  UNL     1      -0.536   9.737  15.971  1.00  0.00     0.168 HD
HETATM   30  N5  UNL     1      -2.241   7.808  16.597  1.00  0.00    -0.230 NA
HETATM   31  C25 UNL     1      -2.082   7.361  15.265  1.00  0.00     0.017 A 
HETATM   32  C26 UNL     1      -3.185   6.821  14.595  1.00  0.00     0.024 A 
HETATM   33  C27 UNL     1      -3.062   6.383  13.281  1.00  0.00     0.004 A 
HETATM   34  C28 UNL     1      -1.831   6.468  12.629  1.00  0.00     0.030 A 
HETATM   35  C29 UNL     1      -0.700   6.999  13.267  1.00  0.00     0.039 A 
HETATM   36  C30 UNL     1      -0.855   7.459  14.590  1.00  0.00     0.053 A 
HETATM   37  H29 UNL     1      -3.111   7.467  16.997  1.00  0.00     0.136 HD
ENDROOT
BRANCH   1  38
HETATM   38  C2  UNL     1       1.998   6.949  10.549  1.00  0.00     0.064 C 
HETATM   39  C1  UNL     1       2.086   6.648   9.245  1.00  0.00     0.017 C 
ENDBRANCH   1  38
TORSDOF 1
ENDMDL
MODEL 7
REMARK minimizedAffinity -7.58129358
REMARK  1 active torsions:
REMARK  status: ('A' for Active; 'I' for Inactive)
REMARK    1  A    between atoms: C2_2  and  C3_3 
REMARK       I    between atoms: C3_3  and  N1_5 
ROOT
HETATM    1  C3  UNL     1       5.294   9.398  15.514  1.00  0.00     0.247 C 
HETATM    2  O1  UNL     1       5.572   8.237  15.822  1.00  0.00    -0.268 OA
HETATM    3  N1  UNL     1       6.015  10.529  15.935  1.00  0.00    -0.315 N 
HETATM    4  C4  UNL     1       5.539  11.910  15.717  1.00  0.00     0.132 C 
HETATM    5  C5  UNL     1       4.379  12.294  16.641  1.00  0.00     0.020 C 
HETATM    6  C6  UNL     1       3.949  13.744  16.404  1.00  0.00     0.002 C 
HETATM    7  C7  UNL     1       2.647  14.116  17.123  1.00  0.00     0.000 C 
HETATM    8  C8  UNL     1       2.744  13.971  18.640  1.00  0.00     0.000 C 
HETATM    9  C9  UNL     1       1.462  14.436  19.341  1.00  0.00     0.000 C 
HETATM   10  C10 UNL     1       1.538  14.212  20.854  1.00  0.00     0.002 C 
HETATM   11  C11 UNL     1       2.447  15.225  21.556  1.00  0.00     0.020 C 
HETATM   12  C12 UNL     1       3.010  14.707  22.880  1.00  0.00     0.128 C 
HETATM   13  N2  UNL     1       4.000  13.654  22.700  1.00  0.00    -0.355 N 
HETATM   14  C13 UNL     1       5.281  13.885  22.260  1.00  0.00     0.106 A 
HETATM   15  C14 UNL     1       5.947  12.678  22.229  1.00  0.00     0.019 A 
HETATM   16  C15 UNL     1       5.035  11.673  22.676  1.00  0.00     0.005 A 
HETATM   17  C16 UNL     1       5.137  10.277  22.870  1.00  0.00     0.014 A 
HETATM   18  C17 UNL     1       4.036   9.558  23.348  1.00  0.00     0.001 A 
HETATM   19  C18 UNL     1       2.843  10.211  23.640  1.00  0.00     0.002 A 
HETATM   20  C19 UNL     1       2.716  11.594  23.459  1.00  0.00     0.030 A 
HETATM   21  C20 UNL     1       3.825  12.310  22.977  1.00  0.00     0.045 A 
HETATM   22  C21 UNL     1       7.356  12.568  21.920  1.00  0.00     0.048 A 
HETATM   23  C22 UNL     1       8.267  12.605  22.954  1.00  0.00     0.047 A 
HETATM   24  C23 UNL     1       9.579  12.532  22.578  1.00  0.00     0.093 A 
HETATM   25  N3  UNL     1       9.970  12.422  21.296  1.00  0.00    -0.342 N 
ATOM     26  H3  UNL     1      10.958  12.386  21.045  1.00  0.00     0.167 HD
HETATM   27  C24 UNL     1       9.006  12.360  20.354  1.00  0.00     0.162 A 
HETATM   28  N4  UNL     1       7.695  12.442  20.619  1.00  0.00    -0.332 N 
ATOM     29  H4  UNL     1       6.993  12.411  19.880  1.00  0.00     0.168 HD
HETATM   30  N5  UNL     1       9.499  12.197  19.048  1.00  0.00    -0.230 NA
HETATM   31  C25 UNL     1       9.018  11.230  18.136  1.00  0.00     0.017 A 
HETATM   32  C26 UNL     1       9.821  10.125  17.831  1.00  0.00     0.024 A 
HETATM   33  C27 UNL     1       9.369   9.153  16.946  1.00  0.00     0.004 A 
HETATM   34  C28 UNL     1       8.116   9.281  16.347  1.00  0.00     0.030 A 
HETATM   35  C29 UNL     1       7.281  10.376  16.623  1.00  0.00     0.039 A 
HETATM   36  C30 UNL     1       7.750  11.336  17.542  1.00  0.00     0.053 A 
HETATM   37  H29 UNL     1      10.498  12.086  19.206  1.00  0.00     0.136 HD
ENDROOT
BRANCH   1  38
HETATM   38  C2  UNL     1       4.086   9.616  14.653  1.00  0.00     0.064 C 
HETATM   39  C1  UNL     1       3.990   9.020  13.455  1.00  0.00     0.017 C 
ENDBRANCH   1  38
TORSDOF 1
ENDMDL
MODEL 8
REMARK minimizedAffinity -7.57671022
REMARK  1 active torsions:
REMARK  status: ('A' for Active; 'I' for Inactive)
REMARK    1  A    between atoms: C2_2  and  C3_3 
REMARK       I    between atoms: C3_3  and  N1_5 
ROOT
HETATM    1  C3  UNL     1     -13.081  -1.468  -8.583  1.00  0.00     0.247 C 
HETATM    2  O1  UNL     1     -12.281  -1.504  -9.521  1.00  0.00    -0.268 OA
HETATM    3  N1  UNL     1     -12.769  -1.802  -7.254  1.00  0.00    -0.315 N 
HETATM    4  C4  UNL     1     -13.794  -1.942  -6.200  1.00  0.00     0.132 C 
HETATM    5  C5  UNL     1     -14.619  -3.225  -6.338  1.00  0.00     0.020 C 
HETATM    6  C6  UNL     1     -15.638  -3.344  -5.202  1.00  0.00     0.002 C 
HETATM    7  C7  UNL     1     -16.650  -4.477  -5.411  1.00  0.00     0.000 C 
HETATM    8  C8  UNL     1     -15.992  -5.851  -5.501  1.00  0.00     0.000 C 
HETATM    9  C9  UNL     1     -17.029  -6.975  -5.617  1.00  0.00     0.000 C 
HETATM   10  C10 UNL     1     -16.359  -8.341  -5.788  1.00  0.00     0.002 C 
HETATM   11  C11 UNL     1     -15.743  -8.864  -4.487  1.00  0.00     0.020 C 
HETATM   12  C12 UNL     1     -14.606  -9.859  -4.720  1.00  0.00     0.128 C 
HETATM   13  N2  UNL     1     -13.408  -9.232  -5.262  1.00  0.00    -0.355 N 
HETATM   14  C13 UNL     1     -12.557  -8.454  -4.514  1.00  0.00     0.106 A 
HETATM   15  C14 UNL     1     -11.523  -8.045  -5.331  1.00  0.00     0.019 A 
HETATM   16  C15 UNL     1     -11.751  -8.604  -6.625  1.00  0.00     0.005 A 
HETATM   17  C16 UNL     1     -11.048  -8.555  -7.849  1.00  0.00     0.014 A 
HETATM   18  C17 UNL     1     -11.540  -9.243  -8.964  1.00  0.00     0.001 A 
HETATM   19  C18 UNL     1     -12.716  -9.981  -8.872  1.00  0.00     0.002 A 
HETATM   20  C19 UNL     1     -13.431 -10.049  -7.670  1.00  0.00     0.030 A 
HETATM   21  C20 UNL     1     -12.932  -9.354  -6.554  1.00  0.00     0.045 A 
HETATM   22  C21 UNL     1     -10.383  -7.302  -4.839  1.00  0.00     0.048 A 
HETATM   23  C22 UNL     1      -9.267  -7.997  -4.423  1.00  0.00     0.047 A 
HETATM   24  C23 UNL     1      -8.248  -7.225  -3.939  1.00  0.00     0.093 A 
HETATM   25  N3  UNL     1      -8.309  -5.883  -3.875  1.00  0.00    -0.342 N 
ATOM     26  H3  UNL     1      -7.537  -5.336  -3.493  1.00  0.00     0.167 HD
HETATM   27  C24 UNL     1      -9.428  -5.289  -4.336  1.00  0.00     0.162 A 
HETATM   28  N4  UNL     1     -10.489  -5.956  -4.811  1.00  0.00    -0.332 N 
ATOM     29  H4  UNL     1     -11.328  -5.475  -5.134  1.00  0.00     0.168 HD
HETATM   30  N5  UNL     1      -9.390  -3.884  -4.277  1.00  0.00    -0.230 NA
HETATM   31  C25 UNL     1      -9.731  -3.038  -5.357  1.00  0.00     0.017 A 
HETATM   32  C26 UNL     1      -8.715  -2.345  -6.023  1.00  0.00     0.024 A 
HETATM   33  C27 UNL     1      -9.019  -1.514  -7.096  1.00  0.00     0.004 A 
HETATM   34  C28 UNL     1     -10.343  -1.358  -7.505  1.00  0.00     0.030 A 
HETATM   35  C29 UNL     1     -11.393  -2.033  -6.862  1.00  0.00     0.039 A 
HETATM   36  C30 UNL     1     -11.057  -2.888  -5.793  1.00  0.00     0.053 A 
HETATM   37  H29 UNL     1      -8.441  -3.708  -3.959  1.00  0.00     0.136 HD
ENDROOT
BRANCH   1  38
HETATM   38  C2  UNL     1     -14.492  -1.064  -8.892  1.00  0.00     0.064 C 
HETATM   39  C1  UNL     1     -15.508  -1.522  -8.146  1.00  0.00     0.017 C 
ENDBRANCH   1  38
TORSDOF 1
ENDMDL
MODEL 9
REMARK minimizedAffinity -7.57650757
REMARK  1 active torsions:
REMARK  status: ('A' for Active; 'I' for Inactive)
REMARK    1  A    between atoms: C2_2  and  C3_3 
REMARK       I    between atoms: C3_3  and  N1_5 
ROOT
HETATM    1  C3  UNL     1       3.929   8.204  10.661  1.00  0.00     0.247 C 
HETATM    2  O1  UNL     1       3.157   8.427   9.726  1.00  0.00    -0.268 OA
HETATM    3  N1  UNL     1       3.579   7.522  11.840  1.00  0.00    -0.315 N 
HETATM    4  C4  UNL     1       4.465   7.450  13.018  1.00  0.00     0.132 C 
HETATM    5  C5  UNL     1       4.538   8.770  13.792  1.00  0.00     0.020 C 
HETATM    6  C6  UNL     1       5.437   8.633  15.024  1.00  0.00     0.002 C 
HETATM    7  C7  UNL     1       5.740   9.972  15.706  1.00  0.00     0.000 C 
HETATM    8  C8  UNL     1       4.485  10.682  16.206  1.00  0.00     0.000 C 
HETATM    9  C9  UNL     1       4.821  11.971  16.964  1.00  0.00     0.000 C 
HETATM   10  C10 UNL     1       3.554  12.718  17.390  1.00  0.00     0.002 C 
HETATM   11  C11 UNL     1       2.845  12.051  18.573  1.00  0.00     0.020 C 
HETATM   12  C12 UNL     1       1.353  12.375  18.637  1.00  0.00     0.128 C 
HETATM   13  N2  UNL     1       0.589  11.740  17.573  1.00  0.00    -0.355 N 
HETATM   14  C13 UNL     1       0.284  10.400  17.556  1.00  0.00     0.106 A 
HETATM   15  C14 UNL     1      -0.463  10.146  16.424  1.00  0.00     0.019 A 
HETATM   16  C15 UNL     1      -0.625  11.384  15.730  1.00  0.00     0.005 A 
HETATM   17  C16 UNL     1      -1.289  11.758  14.540  1.00  0.00     0.014 A 
HETATM   18  C17 UNL     1      -1.274  13.094  14.124  1.00  0.00     0.001 A 
HETATM   19  C18 UNL     1      -0.614  14.058  14.879  1.00  0.00     0.002 A 
HETATM   20  C19 UNL     1       0.050  13.715  16.063  1.00  0.00     0.030 A 
HETATM   21  C20 UNL     1       0.033  12.370  16.475  1.00  0.00     0.045 A 
HETATM   22  C21 UNL     1      -1.052   8.854  16.148  1.00  0.00     0.048 A 
HETATM   23  C22 UNL     1      -2.336   8.603  16.583  1.00  0.00     0.047 A 
HETATM   24  C23 UNL     1      -2.807   7.348  16.316  1.00  0.00     0.093 A 
HETATM   25  N3  UNL     1      -2.087   6.416  15.666  1.00  0.00    -0.342 N 
ATOM     26  H3  UNL     1      -2.461   5.483  15.496  1.00  0.00     0.167 HD
HETATM   27  C24 UNL     1      -0.852   6.764  15.249  1.00  0.00     0.162 A 
HETATM   28  N4  UNL     1      -0.293   7.960  15.478  1.00  0.00    -0.332 N 
ATOM     29  H4  UNL     1       0.651   8.182  15.165  1.00  0.00     0.168 HD
HETATM   30  N5  UNL     1      -0.188   5.749  14.538  1.00  0.00    -0.230 NA
HETATM   31  C25 UNL     1       0.456   5.945  13.296  1.00  0.00     0.017 A 
HETATM   32  C26 UNL     1      -0.125   5.416  12.138  1.00  0.00     0.024 A 
HETATM   33  C27 UNL     1       0.480   5.603  10.900  1.00  0.00     0.004 A 
HETATM   34  C28 UNL     1       1.679   6.310  10.809  1.00  0.00     0.030 A 
HETATM   35  C29 UNL     1       2.297   6.855  11.945  1.00  0.00     0.039 A 
HETATM   36  C30 UNL     1       1.652   6.673  13.186  1.00  0.00     0.053 A 
HETATM   37  H29 UNL     1      -0.903   5.029  14.471  1.00  0.00     0.136 HD
ENDROOT
BRANCH   1  38
HETATM   38  C2  UNL     1       5.331   8.720  10.540  1.00  0.00     0.064 C 
HETATM   39  C1  UNL     1       6.372   7.876  10.585  1.00  0.00     0.017 C 
ENDBRANCH   1  38
TORSDOF 1
ENDMDL
