MODEL 1
REMARK minimizedAffinity -8.94587326
REMARK  9 active torsions:
REMARK  status: ('A' for Active; 'I' for Inactive)
REMARK    1  A    between atoms: C1_2  and  O2_3 
REMARK    2  A    between atoms: C1_2  and  C2_4 
REMARK    3  A    between atoms: C2_4  and  O3_5 
REMARK    4  A    between atoms: O3_5  and  C3_6 
REMARK    5  A    between atoms: C3_6  and  C4_7 
REMARK    6  A    between atoms: C8_16  and  N4_17 
REMARK    7  A    between atoms: N4_17  and  C9_18 
REMARK    8  A    between atoms: N6_26  and  C15_27 
REMARK    9  A    between atoms: C15_27  and  C16_28 
ROOT
HETATM    1  N4  UNL     1      10.309  34.786  19.021  1.00  0.00    -0.243 NA
HETATM    2  H9  UNL     1       9.933  33.891  18.716  1.00  0.00     0.135 HD
ENDROOT
BRANCH   1   3
HETATM    3  C8  UNL     1      10.065  34.943  20.368  1.00  0.00     0.115 A 
HETATM    4  N3  UNL     1      11.053  34.674  21.175  1.00  0.00    -0.340 N 
HETATM    5  C7  UNL     1      10.885  34.857  22.524  1.00  0.00     0.199 A 
ATOM      6  H3  UNL     1      11.941  34.332  20.808  1.00  0.00     0.167 HD
HETATM    7  N2  UNL     1       9.819  35.280  23.127  1.00  0.00    -0.289 N 
HETATM    8  N1  UNL     1       8.789  35.517  22.303  1.00  0.00    -0.263 N 
ATOM      9  H2  UNL     1       9.769  35.420  24.136  1.00  0.00     0.188 HD
HETATM   10  C6  UNL     1       7.553  35.949  22.689  1.00  0.00     0.117 A 
HETATM   11  C23 UNL     1       8.813  35.342  20.950  1.00  0.00     0.102 A 
HETATM   12  C5  UNL     1       6.752  35.998  21.572  1.00  0.00     0.031 A 
HETATM   13  C4  UNL     1       7.535  35.574  20.454  1.00  0.00    -0.001 A 
BRANCH  13  14
HETATM   14  C3  UNL     1       7.032  35.423  19.052  1.00  0.00     0.209 C 
BRANCH  14  15
HETATM   15  O3  UNL     1       5.691  34.922  19.000  1.00  0.00    -0.376 OA
BRANCH  15  16
HETATM   16  C2  UNL     1       5.571  33.631  19.588  1.00  0.00     0.277 C 
BRANCH  16  17
HETATM   17  C1  UNL     1       4.951  32.626  18.632  1.00  0.00     0.164 C 
HETATM   18  O1  UNL     1       5.455  31.619  18.161  1.00  0.00    -0.648 OA
BRANCH  17  19
HETATM   19  O2  UNL     1       3.680  32.956  18.306  1.00  0.00    -0.775 OA
HETATM   20  H1  UNL     1       3.412  32.242  17.691  1.00  0.00     0.167 HD
ENDBRANCH  17  19
ENDBRANCH  16  17
ENDBRANCH  15  16
ENDBRANCH  14  15
ENDBRANCH  13  14
ENDBRANCH   1   3
BRANCH   1  21
HETATM   21  C9  UNL     1      11.595  34.930  18.430  1.00  0.00     0.015 A 
HETATM   22  C10 UNL     1      11.727  35.841  17.371  1.00  0.00     0.026 A 
HETATM   23  C11 UNL     1      12.952  36.060  16.726  1.00  0.00     0.034 A 
HETATM   24  C12 UNL     1      14.054  35.325  17.176  1.00  0.00     0.062 A 
HETATM   25  C13 UNL     1      13.960  34.409  18.219  1.00  0.00     0.011 A 
HETATM   26  N6  UNL     1      15.372  35.284  16.779  1.00  0.00    -0.288 N 
HETATM   27  C14 UNL     1      15.264  33.889  18.361  1.00  0.00     0.121 A 
HETATM   28  C22 UNL     1      12.719  34.204  18.854  1.00  0.00     0.039 A 
HETATM   29  N5  UNL     1      16.129  34.419  17.494  1.00  0.00    -0.308 N 
ATOM     30  H5  UNL     1      17.125  34.220  17.394  1.00  0.00     0.186 HD
BRANCH  26  31
HETATM   31  C15 UNL     1      16.001  36.083  15.732  1.00  0.00     0.187 C 
BRANCH  31  32
HETATM   32  C16 UNL     1      16.426  35.242  14.552  1.00  0.00    -0.035 A 
HETATM   33  C17 UNL     1      15.581  35.087  13.439  1.00  0.00     0.009 A 
HETATM   34  C18 UNL     1      15.970  34.301  12.350  1.00  0.00     0.004 A 
HETATM   35  C19 UNL     1      17.205  33.657  12.365  1.00  0.00     0.042 A 
HETATM   36  C20 UNL     1      18.037  33.801  13.466  1.00  0.00     0.117 A 
HETATM   37  F1  UNL     1      19.224  33.178  13.484  1.00  0.00    -0.206 F 
HETATM   38  C21 UNL     1      17.661  34.580  14.557  1.00  0.00     0.051 A 
ENDBRANCH  31  32
ENDBRANCH  26  31
ENDBRANCH   1  21
TORSDOF 9
ENDMDL
MODEL 2
REMARK minimizedAffinity -8.27412891
REMARK  9 active torsions:
REMARK  status: ('A' for Active; 'I' for Inactive)
REMARK    1  A    between atoms: C1_2  and  O2_3 
REMARK    2  A    between atoms: C1_2  and  C2_4 
REMARK    3  A    between atoms: C2_4  and  O3_5 
REMARK    4  A    between atoms: O3_5  and  C3_6 
REMARK    5  A    between atoms: C3_6  and  C4_7 
REMARK    6  A    between atoms: C8_16  and  N4_17 
REMARK    7  A    between atoms: N4_17  and  C9_18 
REMARK    8  A    between atoms: N6_26  and  C15_27 
REMARK    9  A    between atoms: C15_27  and  C16_28 
ROOT
HETATM    1  N4  UNL     1      11.584  34.384  18.604  1.00  0.00    -0.243 NA
HETATM    2  H9  UNL     1      11.904  34.194  19.552  1.00  0.00     0.135 HD
ENDROOT
BRANCH   1   3
HETATM    3  C8  UNL     1      10.352  34.997  18.659  1.00  0.00     0.115 A 
HETATM    4  N3  UNL     1       9.972  35.642  17.591  1.00  0.00    -0.340 N 
HETATM    5  C7  UNL     1       8.734  36.232  17.569  1.00  0.00     0.199 A 
ATOM      6  H3  UNL     1      10.589  35.707  16.782  1.00  0.00     0.167 HD
HETATM    7  N2  UNL     1       7.853  36.233  18.518  1.00  0.00    -0.289 N 
HETATM    8  N1  UNL     1       8.257  35.606  19.632  1.00  0.00    -0.263 N 
ATOM      9  H2  UNL     1       6.937  36.670  18.427  1.00  0.00     0.188 HD
HETATM   10  C6  UNL     1       7.527  35.484  20.779  1.00  0.00     0.117 A 
HETATM   11  C23 UNL     1       9.474  35.010  19.797  1.00  0.00     0.102 A 
HETATM   12  C5  UNL     1       8.308  34.848  21.715  1.00  0.00     0.031 A 
HETATM   13  C4  UNL     1       9.574  34.573  21.113  1.00  0.00    -0.001 A 
BRANCH  13  14
HETATM   14  C3  UNL     1      10.743  33.941  21.805  1.00  0.00     0.209 C 
BRANCH  14  15
HETATM   15  O3  UNL     1      11.461  34.868  22.627  1.00  0.00    -0.376 OA
BRANCH  15  16
HETATM   16  C2  UNL     1      12.507  35.525  21.919  1.00  0.00     0.277 C 
BRANCH  16  17
HETATM   17  C1  UNL     1      12.127  36.943  21.527  1.00  0.00     0.164 C 
HETATM   18  O1  UNL     1      11.507  37.768  22.178  1.00  0.00    -0.648 OA
BRANCH  17  19
HETATM   19  O2  UNL     1      12.564  37.258  20.286  1.00  0.00    -0.775 OA
HETATM   20  H1  UNL     1      12.248  38.178  20.163  1.00  0.00     0.167 HD
ENDBRANCH  17  19
ENDBRANCH  16  17
ENDBRANCH  15  16
ENDBRANCH  14  15
ENDBRANCH  13  14
ENDBRANCH   1   3
BRANCH   1  21
HETATM   21  C9  UNL     1      12.692  34.902  17.878  1.00  0.00     0.015 A 
HETATM   22  C10 UNL     1      13.885  34.164  17.893  1.00  0.00     0.026 A 
HETATM   23  C11 UNL     1      15.030  34.586  17.205  1.00  0.00     0.034 A 
HETATM   24  C12 UNL     1      14.946  35.788  16.495  1.00  0.00     0.062 A 
HETATM   25  C13 UNL     1      13.782  36.550  16.462  1.00  0.00     0.011 A 
HETATM   26  N6  UNL     1      15.855  36.487  15.733  1.00  0.00    -0.288 N 
HETATM   27  C14 UNL     1      14.104  37.665  15.659  1.00  0.00     0.121 A 
HETATM   28  C22 UNL     1      12.641  36.108  17.161  1.00  0.00     0.039 A 
HETATM   29  N5  UNL     1      15.359  37.631  15.207  1.00  0.00    -0.308 N 
ATOM     30  H5  UNL     1      15.833  38.307  14.607  1.00  0.00     0.186 HD
BRANCH  26  31
HETATM   31  C15 UNL     1      17.227  36.098  15.424  1.00  0.00     0.187 C 
BRANCH  31  32
HETATM   32  C16 UNL     1      17.295  35.106  14.287  1.00  0.00    -0.035 A 
HETATM   33  C17 UNL     1      16.281  35.056  13.315  1.00  0.00     0.009 A 
HETATM   34  C18 UNL     1      16.339  34.132  12.268  1.00  0.00     0.004 A 
HETATM   35  C19 UNL     1      17.408  33.243  12.184  1.00  0.00     0.042 A 
HETATM   36  C20 UNL     1      18.407  33.285  13.147  1.00  0.00     0.117 A 
HETATM   37  F1  UNL     1      19.435  32.427  13.071  1.00  0.00    -0.206 F 
HETATM   38  C21 UNL     1      18.360  34.200  14.195  1.00  0.00     0.051 A 
ENDBRANCH  31  32
ENDBRANCH  26  31
ENDBRANCH   1  21
TORSDOF 9
ENDMDL
MODEL 3
REMARK minimizedAffinity -8.09454823
REMARK  9 active torsions:
REMARK  status: ('A' for Active; 'I' for Inactive)
REMARK    1  A    between atoms: C1_2  and  O2_3 
REMARK    2  A    between atoms: C1_2  and  C2_4 
REMARK    3  A    between atoms: C2_4  and  O3_5 
REMARK    4  A    between atoms: O3_5  and  C3_6 
REMARK    5  A    between atoms: C3_6  and  C4_7 
REMARK    6  A    between atoms: C8_16  and  N4_17 
REMARK    7  A    between atoms: N4_17  and  C9_18 
REMARK    8  A    between atoms: N6_26  and  C15_27 
REMARK    9  A    between atoms: C15_27  and  C16_28 
ROOT
HETATM    1  N4  UNL     1      10.170  34.600  19.433  1.00  0.00    -0.243 NA
HETATM    2  H9  UNL     1       9.940  33.612  19.343  1.00  0.00     0.135 HD
ENDROOT
BRANCH   1   3
HETATM    3  C8  UNL     1       9.987  34.988  20.742  1.00  0.00     0.115 A 
HETATM    4  N3  UNL     1      11.035  34.941  21.516  1.00  0.00    -0.340 N 
HETATM    5  C7  UNL     1      10.926  35.362  22.818  1.00  0.00     0.199 A 
ATOM      6  H3  UNL     1      11.925  34.597  21.159  1.00  0.00     0.167 HD
HETATM    7  N2  UNL     1       9.864  35.818  23.404  1.00  0.00    -0.289 N 
HETATM    8  N1  UNL     1       8.776  35.828  22.621  1.00  0.00    -0.263 N 
ATOM      9  H2  UNL     1       9.857  36.140  24.371  1.00  0.00     0.188 HD
HETATM   10  C6  UNL     1       7.532  36.240  23.003  1.00  0.00     0.117 A 
HETATM   11  C23 UNL     1       8.741  35.405  21.324  1.00  0.00     0.102 A 
HETATM   12  C5  UNL     1       6.671  36.026  21.952  1.00  0.00     0.031 A 
HETATM   13  C4  UNL     1       7.424  35.454  20.881  1.00  0.00    -0.001 A 
BRANCH  13  14
HETATM   14  C3  UNL     1       6.859  35.011  19.566  1.00  0.00     0.209 C 
BRANCH  14  15
HETATM   15  O3  UNL     1       6.654  33.595  19.507  1.00  0.00    -0.376 OA
BRANCH  15  16
HETATM   16  C2  UNL     1       5.274  33.249  19.443  1.00  0.00     0.277 C 
BRANCH  16  17
HETATM   17  C1  UNL     1       4.834  32.925  18.025  1.00  0.00     0.164 C 
HETATM   18  O1  UNL     1       5.483  33.001  16.995  1.00  0.00    -0.648 OA
BRANCH  17  19
HETATM   19  O2  UNL     1       3.548  32.506  17.979  1.00  0.00    -0.775 OA
HETATM   20  H1  UNL     1       3.397  32.345  17.024  1.00  0.00     0.167 HD
ENDBRANCH  17  19
ENDBRANCH  16  17
ENDBRANCH  15  16
ENDBRANCH  14  15
ENDBRANCH  13  14
ENDBRANCH   1   3
BRANCH   1  21
HETATM   21  C9  UNL     1      11.371  34.823  18.704  1.00  0.00     0.015 A 
HETATM   22  C10 UNL     1      11.314  35.694  17.605  1.00  0.00     0.026 A 
HETATM   23  C11 UNL     1      12.441  35.985  16.826  1.00  0.00     0.034 A 
HETATM   24  C12 UNL     1      13.644  35.365  17.182  1.00  0.00     0.062 A 
HETATM   25  C13 UNL     1      13.738  34.491  18.261  1.00  0.00     0.011 A 
HETATM   26  N6  UNL     1      14.913  35.415  16.648  1.00  0.00    -0.288 N 
HETATM   27  C14 UNL     1      15.090  34.088  18.281  1.00  0.00     0.121 A 
HETATM   28  C22 UNL     1      12.592  34.213  19.031  1.00  0.00     0.039 A 
HETATM   29  N5  UNL     1      15.811  34.649  17.309  1.00  0.00    -0.308 N 
ATOM     30  H5  UNL     1      16.805  34.529  17.111  1.00  0.00     0.186 HD
BRANCH  26  31
HETATM   31  C15 UNL     1      15.359  36.217  15.513  1.00  0.00     0.187 C 
BRANCH  31  32
HETATM   32  C16 UNL     1      15.922  37.549  15.944  1.00  0.00    -0.035 A 
HETATM   33  C17 UNL     1      17.203  37.956  15.530  1.00  0.00     0.009 A 
HETATM   34  C18 UNL     1      17.729  39.186  15.937  1.00  0.00     0.004 A 
HETATM   35  C19 UNL     1      16.983  40.020  16.766  1.00  0.00     0.042 A 
HETATM   36  C20 UNL     1      15.722  39.617  17.184  1.00  0.00     0.117 A 
HETATM   37  F1  UNL     1      15.005  40.417  17.986  1.00  0.00    -0.206 F 
HETATM   38  C21 UNL     1      15.187  38.395  16.787  1.00  0.00     0.051 A 
ENDBRANCH  31  32
ENDBRANCH  26  31
ENDBRANCH   1  21
TORSDOF 9
ENDMDL
MODEL 4
REMARK minimizedAffinity -7.89778185
REMARK  9 active torsions:
REMARK  status: ('A' for Active; 'I' for Inactive)
REMARK    1  A    between atoms: C1_2  and  O2_3 
REMARK    2  A    between atoms: C1_2  and  C2_4 
REMARK    3  A    between atoms: C2_4  and  O3_5 
REMARK    4  A    between atoms: O3_5  and  C3_6 
REMARK    5  A    between atoms: C3_6  and  C4_7 
REMARK    6  A    between atoms: C8_16  and  N4_17 
REMARK    7  A    between atoms: N4_17  and  C9_18 
REMARK    8  A    between atoms: N6_26  and  C15_27 
REMARK    9  A    between atoms: C15_27  and  C16_28 
ROOT
HETATM    1  N4  UNL     1      16.568  51.656   5.555  1.00  0.00    -0.243 NA
HETATM    2  H9  UNL     1      16.636  51.081   4.717  1.00  0.00     0.135 HD
ENDROOT
BRANCH   1   3
HETATM    3  C8  UNL     1      17.613  51.350   6.398  1.00  0.00     0.115 A 
HETATM    4  N3  UNL     1      18.160  52.348   7.035  1.00  0.00    -0.340 N 
HETATM    5  C7  UNL     1      19.174  52.099   7.926  1.00  0.00     0.199 A 
ATOM      6  H3  UNL     1      17.838  53.302   6.873  1.00  0.00     0.167 HD
HETATM    7  N2  UNL     1      19.683  50.947   8.226  1.00  0.00    -0.289 N 
HETATM    8  N1  UNL     1      19.150  49.925   7.543  1.00  0.00    -0.263 N 
ATOM      9  H2  UNL     1      20.420  50.828   8.920  1.00  0.00     0.188 HD
HETATM   10  C6  UNL     1      19.523  48.616   7.659  1.00  0.00     0.117 A 
HETATM   11  C23 UNL     1      18.164  50.039   6.606  1.00  0.00     0.102 A 
HETATM   12  C5  UNL     1      18.804  47.886   6.742  1.00  0.00     0.031 A 
HETATM   13  C4  UNL     1      17.957  48.790   6.031  1.00  0.00    -0.001 A 
BRANCH  13  14
HETATM   14  C3  UNL     1      17.048  48.418   4.900  1.00  0.00     0.209 C 
BRANCH  14  15
HETATM   15  O3  UNL     1      16.889  47.001   4.767  1.00  0.00    -0.376 OA
BRANCH  15  16
HETATM   16  C2  UNL     1      15.541  46.585   4.956  1.00  0.00     0.277 C 
BRANCH  16  17
HETATM   17  C1  UNL     1      15.181  46.473   6.429  1.00  0.00     0.164 C 
HETATM   18  O1  UNL     1      15.647  45.718   7.267  1.00  0.00    -0.648 OA
BRANCH  17  19
HETATM   19  O2  UNL     1      14.215  47.352   6.780  1.00  0.00    -0.775 OA
HETATM   20  H1  UNL     1      14.078  47.167   7.733  1.00  0.00     0.167 HD
ENDBRANCH  17  19
ENDBRANCH  16  17
ENDBRANCH  15  16
ENDBRANCH  14  15
ENDBRANCH  13  14
ENDBRANCH   1   3
BRANCH   1  21
HETATM   21  C9  UNL     1      16.252  52.979   5.137  1.00  0.00     0.015 A 
HETATM   22  C10 UNL     1      14.900  53.356   5.132  1.00  0.00     0.026 A 
HETATM   23  C11 UNL     1      14.487  54.636   4.743  1.00  0.00     0.034 A 
HETATM   24  C12 UNL     1      15.479  55.540   4.348  1.00  0.00     0.062 A 
HETATM   25  C13 UNL     1      16.828  55.200   4.334  1.00  0.00     0.011 A 
HETATM   26  N6  UNL     1      15.432  56.844   3.910  1.00  0.00    -0.288 N 
HETATM   27  C14 UNL     1      17.488  56.362   3.882  1.00  0.00     0.121 A 
HETATM   28  C22 UNL     1      17.224  53.906   4.730  1.00  0.00     0.039 A 
HETATM   29  N5  UNL     1      16.648  57.367   3.627  1.00  0.00    -0.308 N 
ATOM     30  H5  UNL     1      16.870  58.307   3.298  1.00  0.00     0.186 HD
BRANCH  26  31
HETATM   31  C15 UNL     1      14.247  57.684   3.772  1.00  0.00     0.187 C 
BRANCH  31  32
HETATM   32  C16 UNL     1      13.871  58.356   5.070  1.00  0.00    -0.035 A 
HETATM   33  C17 UNL     1      14.418  57.923   6.290  1.00  0.00     0.009 A 
HETATM   34  C18 UNL     1      14.063  58.539   7.493  1.00  0.00     0.004 A 
HETATM   35  C19 UNL     1      13.151  59.592   7.491  1.00  0.00     0.042 A 
HETATM   36  C20 UNL     1      12.601  60.017   6.288  1.00  0.00     0.117 A 
HETATM   37  F1  UNL     1      11.720  61.027   6.285  1.00  0.00    -0.206 F 
HETATM   38  C21 UNL     1      12.947  59.411   5.084  1.00  0.00     0.051 A 
ENDBRANCH  31  32
ENDBRANCH  26  31
ENDBRANCH   1  21
TORSDOF 9
ENDMDL
MODEL 5
REMARK minimizedAffinity -7.86930656
REMARK  9 active torsions:
REMARK  status: ('A' for Active; 'I' for Inactive)
REMARK    1  A    between atoms: C1_2  and  O2_3 
REMARK    2  A    between atoms: C1_2  and  C2_4 
REMARK    3  A    between atoms: C2_4  and  O3_5 
REMARK    4  A    between atoms: O3_5  and  C3_6 
REMARK    5  A    between atoms: C3_6  and  C4_7 
REMARK    6  A    between atoms: C8_16  and  N4_17 
REMARK    7  A    between atoms: N4_17  and  C9_18 
REMARK    8  A    between atoms: N6_26  and  C15_27 
REMARK    9  A    between atoms: C15_27  and  C16_28 
ROOT
HETATM    1  N4  UNL     1      16.515  51.754   5.454  1.00  0.00    -0.243 NA
HETATM    2  H9  UNL     1      16.620  51.231   4.587  1.00  0.00     0.135 HD
ENDROOT
BRANCH   1   3
HETATM    3  C8  UNL     1      17.562  51.446   6.295  1.00  0.00     0.115 A 
HETATM    4  N3  UNL     1      18.130  52.445   6.910  1.00  0.00    -0.340 N 
HETATM    5  C7  UNL     1      19.147  52.196   7.797  1.00  0.00     0.199 A 
ATOM      6  H3  UNL     1      17.822  53.401   6.734  1.00  0.00     0.167 HD
HETATM    7  N2  UNL     1      19.639  51.041   8.115  1.00  0.00    -0.289 N 
HETATM    8  N1  UNL     1      19.085  50.016   7.453  1.00  0.00    -0.263 N 
ATOM      9  H2  UNL     1      20.380  50.922   8.805  1.00  0.00     0.188 HD
HETATM   10  C6  UNL     1      19.437  48.704   7.590  1.00  0.00     0.117 A 
HETATM   11  C23 UNL     1      18.094  50.130   6.522  1.00  0.00     0.102 A 
HETATM   12  C5  UNL     1      18.700  47.969   6.691  1.00  0.00     0.031 A 
HETATM   13  C4  UNL     1      17.862  48.874   5.971  1.00  0.00    -0.001 A 
BRANCH  13  14
HETATM   14  C3  UNL     1      16.938  48.497   4.853  1.00  0.00     0.209 C 
BRANCH  14  15
HETATM   15  O3  UNL     1      16.824  47.079   4.691  1.00  0.00    -0.376 OA
BRANCH  15  16
HETATM   16  C2  UNL     1      15.498  46.611   4.915  1.00  0.00     0.277 C 
BRANCH  16  17
HETATM   17  C1  UNL     1      15.177  46.496   6.396  1.00  0.00     0.164 C 
HETATM   18  O1  UNL     1      15.680  45.755   7.224  1.00  0.00    -0.648 OA
BRANCH  17  19
HETATM   19  O2  UNL     1      14.200  47.355   6.769  1.00  0.00    -0.775 OA
HETATM   20  H1  UNL     1      14.091  47.170   7.725  1.00  0.00     0.167 HD
ENDBRANCH  17  19
ENDBRANCH  16  17
ENDBRANCH  15  16
ENDBRANCH  14  15
ENDBRANCH  13  14
ENDBRANCH   1   3
BRANCH   1  21
HETATM   21  C9  UNL     1      16.147  53.083   5.107  1.00  0.00     0.015 A 
HETATM   22  C10 UNL     1      14.799  53.445   5.250  1.00  0.00     0.026 A 
HETATM   23  C11 UNL     1      14.337  54.730   4.940  1.00  0.00     0.034 A 
HETATM   24  C12 UNL     1      15.276  55.655   4.470  1.00  0.00     0.062 A 
HETATM   25  C13 UNL     1      16.619  55.330   4.309  1.00  0.00     0.011 A 
HETATM   26  N6  UNL     1      15.173  56.970   4.075  1.00  0.00    -0.288 N 
HETATM   27  C14 UNL     1      17.219  56.511   3.823  1.00  0.00     0.121 A 
HETATM   28  C22 UNL     1      17.064  54.032   4.627  1.00  0.00     0.039 A 
HETATM   29  N5  UNL     1      16.350  57.513   3.683  1.00  0.00    -0.308 N 
ATOM     30  H5  UNL     1      16.528  58.464   3.358  1.00  0.00     0.186 HD
BRANCH  26  31
HETATM   31  C15 UNL     1      13.973  57.799   4.081  1.00  0.00     0.187 C 
BRANCH  31  32
HETATM   32  C16 UNL     1      13.596  58.266   2.695  1.00  0.00    -0.035 A 
HETATM   33  C17 UNL     1      13.411  59.632   2.422  1.00  0.00     0.009 A 
HETATM   34  C18 UNL     1      13.053  60.064   1.142  1.00  0.00     0.004 A 
HETATM   35  C19 UNL     1      12.870  59.133   0.121  1.00  0.00     0.042 A 
HETATM   36  C20 UNL     1      13.043  57.782   0.390  1.00  0.00     0.117 A 
HETATM   37  F1  UNL     1      12.863  56.886  -0.589  1.00  0.00    -0.206 F 
HETATM   38  C21 UNL     1      13.399  57.340   1.661  1.00  0.00     0.051 A 
ENDBRANCH  31  32
ENDBRANCH  26  31
ENDBRANCH   1  21
TORSDOF 9
ENDMDL
MODEL 6
REMARK minimizedAffinity -7.72136354
REMARK  9 active torsions:
REMARK  status: ('A' for Active; 'I' for Inactive)
REMARK    1  A    between atoms: C1_2  and  O2_3 
REMARK    2  A    between atoms: C1_2  and  C2_4 
REMARK    3  A    between atoms: C2_4  and  O3_5 
REMARK    4  A    between atoms: O3_5  and  C3_6 
REMARK    5  A    between atoms: C3_6  and  C4_7 
REMARK    6  A    between atoms: C8_16  and  N4_17 
REMARK    7  A    between atoms: N4_17  and  C9_18 
REMARK    8  A    between atoms: N6_26  and  C15_27 
REMARK    9  A    between atoms: C15_27  and  C16_28 
ROOT
HETATM    1  N4  UNL     1      16.611  35.697  16.261  1.00  0.00    -0.243 NA
HETATM    2  H9  UNL     1      17.143  34.983  16.754  1.00  0.00     0.135 HD
ENDROOT
BRANCH   1   3
HETATM    3  C8  UNL     1      16.988  35.708  14.936  1.00  0.00     0.115 A 
HETATM    4  N3  UNL     1      17.259  34.552  14.397  1.00  0.00    -0.340 N 
HETATM    5  C7  UNL     1      17.594  34.494  13.068  1.00  0.00     0.199 A 
ATOM      6  H3  UNL     1      17.221  33.701  14.957  1.00  0.00     0.167 HD
HETATM    7  N2  UNL     1      17.683  35.488  12.242  1.00  0.00    -0.289 N 
HETATM    8  N1  UNL     1      17.446  36.682  12.804  1.00  0.00    -0.263 N 
ATOM      9  H2  UNL     1      17.912  35.373  11.255  1.00  0.00     0.188 HD
HETATM   10  C6  UNL     1      17.496  37.883  12.157  1.00  0.00     0.117 A 
HETATM   11  C23 UNL     1      17.138  36.880  14.119  1.00  0.00     0.102 A 
HETATM   12  C5  UNL     1      17.272  38.875  13.084  1.00  0.00     0.031 A 
HETATM   13  C4  UNL     1      17.080  38.250  14.354  1.00  0.00    -0.001 A 
BRANCH  13  14
HETATM   14  C3  UNL     1      16.866  38.970  15.650  1.00  0.00     0.209 C 
BRANCH  14  15
HETATM   15  O3  UNL     1      16.306  40.275  15.466  1.00  0.00    -0.376 OA
BRANCH  15  16
HETATM   16  C2  UNL     1      16.968  41.265  16.245  1.00  0.00     0.277 C 
BRANCH  16  17
HETATM   17  C1  UNL     1      16.083  42.474  16.501  1.00  0.00     0.164 C 
HETATM   18  O1  UNL     1      16.357  43.655  16.365  1.00  0.00    -0.648 OA
BRANCH  17  19
HETATM   19  O2  UNL     1      14.853  42.115  16.935  1.00  0.00    -0.775 OA
HETATM   20  H1  UNL     1      14.401  42.976  17.066  1.00  0.00     0.167 HD
ENDBRANCH  17  19
ENDBRANCH  16  17
ENDBRANCH  15  16
ENDBRANCH  14  15
ENDBRANCH  13  14
ENDBRANCH   1   3
BRANCH   1  21
HETATM   21  C9  UNL     1      15.260  35.596  16.695  1.00  0.00     0.015 A 
HETATM   22  C10 UNL     1      14.306  36.400  16.053  1.00  0.00     0.026 A 
HETATM   23  C11 UNL     1      12.950  36.369  16.404  1.00  0.00     0.034 A 
HETATM   24  C12 UNL     1      12.572  35.501  17.434  1.00  0.00     0.062 A 
HETATM   25  C13 UNL     1      13.491  34.694  18.098  1.00  0.00     0.011 A 
HETATM   26  N6  UNL     1      11.359  35.227  18.025  1.00  0.00    -0.288 N 
HETATM   27  C14 UNL     1      12.727  33.986  19.050  1.00  0.00     0.121 A 
HETATM   28  C22 UNL     1      14.851  34.740  17.730  1.00  0.00     0.039 A 
HETATM   29  N5  UNL     1      11.431  34.299  19.008  1.00  0.00    -0.308 N 
ATOM     30  H5  UNL     1      10.673  33.928  19.582  1.00  0.00     0.186 HD
BRANCH  26  31
HETATM   31  C15 UNL     1      10.061  35.792  17.672  1.00  0.00     0.187 C 
BRANCH  31  32
HETATM   32  C16 UNL     1       9.081  35.726  18.819  1.00  0.00    -0.035 A 
HETATM   33  C17 UNL     1       7.818  36.334  18.721  1.00  0.00     0.009 A 
HETATM   34  C18 UNL     1       6.914  36.283  19.786  1.00  0.00     0.004 A 
HETATM   35  C19 UNL     1       7.266  35.627  20.964  1.00  0.00     0.042 A 
HETATM   36  C20 UNL     1       8.517  35.033  21.067  1.00  0.00     0.117 A 
HETATM   37  F1  UNL     1       8.858  34.406  22.201  1.00  0.00    -0.206 F 
HETATM   38  C21 UNL     1       9.425  35.079  20.014  1.00  0.00     0.051 A 
ENDBRANCH  31  32
ENDBRANCH  26  31
ENDBRANCH   1  21
TORSDOF 9
ENDMDL
MODEL 7
REMARK minimizedAffinity -7.68377256
REMARK  9 active torsions:
REMARK  status: ('A' for Active; 'I' for Inactive)
REMARK    1  A    between atoms: C1_2  and  O2_3 
REMARK    2  A    between atoms: C1_2  and  C2_4 
REMARK    3  A    between atoms: C2_4  and  O3_5 
REMARK    4  A    between atoms: O3_5  and  C3_6 
REMARK    5  A    between atoms: C3_6  and  C4_7 
REMARK    6  A    between atoms: C8_16  and  N4_17 
REMARK    7  A    between atoms: N4_17  and  C9_18 
REMARK    8  A    between atoms: N6_26  and  C15_27 
REMARK    9  A    between atoms: C15_27  and  C16_28 
ROOT
HETATM    1  N4  UNL     1      14.876  38.682  15.075  1.00  0.00    -0.243 NA
HETATM    2  H9  UNL     1      14.118  38.993  14.471  1.00  0.00     0.135 HD
ENDROOT
BRANCH   1   3
HETATM    3  C8  UNL     1      15.699  39.751  15.354  1.00  0.00     0.115 A 
HETATM    4  N3  UNL     1      15.212  40.674  16.135  1.00  0.00    -0.340 N 
HETATM    5  C7  UNL     1      16.001  41.739  16.487  1.00  0.00     0.199 A 
ATOM      6  H3  UNL     1      14.255  40.605  16.480  1.00  0.00     0.167 HD
HETATM    7  N2  UNL     1      17.225  41.956  16.124  1.00  0.00    -0.289 N 
HETATM    8  N1  UNL     1      17.715  41.030  15.288  1.00  0.00    -0.263 N 
ATOM      9  H2  UNL     1      17.767  42.758  16.445  1.00  0.00     0.188 HD
HETATM   10  C6  UNL     1      18.967  41.038  14.746  1.00  0.00     0.117 A 
HETATM   11  C23 UNL     1      17.024  39.944  14.834  1.00  0.00     0.102 A 
HETATM   12  C5  UNL     1      19.065  39.970  13.884  1.00  0.00     0.031 A 
HETATM   13  C4  UNL     1      17.813  39.281  13.899  1.00  0.00    -0.001 A 
BRANCH  13  14
HETATM   14  C3  UNL     1      17.470  38.091  13.057  1.00  0.00     0.209 C 
BRANCH  14  15
HETATM   15  O3  UNL     1      17.100  36.952  13.841  1.00  0.00    -0.376 OA
BRANCH  15  16
HETATM   16  C2  UNL     1      17.672  35.745  13.350  1.00  0.00     0.277 C 
BRANCH  16  17
HETATM   17  C1  UNL     1      17.105  35.356  11.995  1.00  0.00     0.164 C 
HETATM   18  O1  UNL     1      17.670  35.341  10.914  1.00  0.00    -0.648 OA
BRANCH  17  19
HETATM   19  O2  UNL     1      15.804  34.994  12.077  1.00  0.00    -0.775 OA
HETATM   20  H1  UNL     1      15.570  34.782  11.149  1.00  0.00     0.167 HD
ENDBRANCH  17  19
ENDBRANCH  16  17
ENDBRANCH  15  16
ENDBRANCH  14  15
ENDBRANCH  13  14
ENDBRANCH   1   3
BRANCH   1  21
HETATM   21  C9  UNL     1      14.306  37.843  16.073  1.00  0.00     0.015 A 
HETATM   22  C10 UNL     1      13.324  36.925  15.670  1.00  0.00     0.026 A 
HETATM   23  C11 UNL     1      12.707  36.052  16.575  1.00  0.00     0.034 A 
HETATM   24  C12 UNL     1      13.102  36.129  17.915  1.00  0.00     0.062 A 
HETATM   25  C13 UNL     1      14.068  37.031  18.352  1.00  0.00     0.011 A 
HETATM   26  N6  UNL     1      12.711  35.445  19.044  1.00  0.00    -0.288 N 
HETATM   27  C14 UNL     1      14.175  36.798  19.740  1.00  0.00     0.121 A 
HETATM   28  C22 UNL     1      14.677  37.900  17.426  1.00  0.00     0.039 A 
HETATM   29  N5  UNL     1      13.359  35.833  20.167  1.00  0.00    -0.308 N 
ATOM     30  H5  UNL     1      13.249  35.473  21.115  1.00  0.00     0.186 HD
BRANCH  26  31
HETATM   31  C15 UNL     1      11.736  34.363  19.123  1.00  0.00     0.187 C 
BRANCH  31  32
HETATM   32  C16 UNL     1      10.357  34.863  19.481  1.00  0.00    -0.035 A 
HETATM   33  C17 UNL     1       9.670  34.346  20.592  1.00  0.00     0.009 A 
HETATM   34  C18 UNL     1       8.389  34.802  20.918  1.00  0.00     0.004 A 
HETATM   35  C19 UNL     1       7.779  35.777  20.133  1.00  0.00     0.042 A 
HETATM   36  C20 UNL     1       8.452  36.284  19.029  1.00  0.00     0.117 A 
HETATM   37  F1  UNL     1       7.864  37.219  18.270  1.00  0.00    -0.206 F 
HETATM   38  C21 UNL     1       9.726  35.837  18.694  1.00  0.00     0.051 A 
ENDBRANCH  31  32
ENDBRANCH  26  31
ENDBRANCH   1  21
TORSDOF 9
ENDMDL
MODEL 8
REMARK minimizedAffinity -7.68100166
REMARK  9 active torsions:
REMARK  status: ('A' for Active; 'I' for Inactive)
REMARK    1  A    between atoms: C1_2  and  O2_3 
REMARK    2  A    between atoms: C1_2  and  C2_4 
REMARK    3  A    between atoms: C2_4  and  O3_5 
REMARK    4  A    between atoms: O3_5  and  C3_6 
REMARK    5  A    between atoms: C3_6  and  C4_7 
REMARK    6  A    between atoms: C8_16  and  N4_17 
REMARK    7  A    between atoms: N4_17  and  C9_18 
REMARK    8  A    between atoms: N6_26  and  C15_27 
REMARK    9  A    between atoms: C15_27  and  C16_28 
ROOT
HETATM    1  N4  UNL     1      16.401  51.370   5.584  1.00  0.00    -0.243 NA
HETATM    2  H9  UNL     1      16.350  50.808   4.736  1.00  0.00     0.135 HD
ENDROOT
BRANCH   1   3
HETATM    3  C8  UNL     1      17.464  50.938   6.346  1.00  0.00     0.115 A 
HETATM    4  N3  UNL     1      18.088  51.845   7.045  1.00  0.00    -0.340 N 
HETATM    5  C7  UNL     1      19.125  51.468   7.860  1.00  0.00     0.199 A 
ATOM      6  H3  UNL     1      17.809  52.824   6.985  1.00  0.00     0.167 HD
HETATM    7  N2  UNL     1      19.586  50.270   8.032  1.00  0.00    -0.289 N 
HETATM    8  N1  UNL     1      18.973  49.342   7.284  1.00  0.00    -0.263 N 
ATOM      9  H2  UNL     1      20.345  50.053   8.676  1.00  0.00     0.188 HD
HETATM   10  C6  UNL     1      19.283  48.012   7.264  1.00  0.00     0.117 A 
HETATM   11  C23 UNL     1      17.956  49.589   6.408  1.00  0.00     0.102 A 
HETATM   12  C5  UNL     1      18.490  47.404   6.319  1.00  0.00     0.031 A 
HETATM   13  C4  UNL     1      17.660  48.410   5.733  1.00  0.00    -0.001 A 
BRANCH  13  14
HETATM   14  C3  UNL     1      16.687  48.187   4.617  1.00  0.00     0.209 C 
BRANCH  14  15
HETATM   15  O3  UNL     1      16.707  46.840   4.132  1.00  0.00    -0.376 OA
BRANCH  15  16
HETATM   16  C2  UNL     1      15.407  46.357   3.812  1.00  0.00     0.277 C 
BRANCH  16  17
HETATM   17  C1  UNL     1      15.333  45.818   2.393  1.00  0.00     0.164 C 
HETATM   18  O1  UNL     1      15.317  44.655   2.025  1.00  0.00    -0.648 OA
BRANCH  17  19
HETATM   19  O2  UNL     1      15.281  46.813   1.477  1.00  0.00    -0.775 OA
HETATM   20  H1  UNL     1      15.246  46.331   0.624  1.00  0.00     0.167 HD
ENDBRANCH  17  19
ENDBRANCH  16  17
ENDBRANCH  15  16
ENDBRANCH  14  15
ENDBRANCH  13  14
ENDBRANCH   1   3
BRANCH   1  21
HETATM   21  C9  UNL     1      16.199  52.726   5.207  1.00  0.00     0.015 A 
HETATM   22  C10 UNL     1      14.892  53.233   5.272  1.00  0.00     0.026 A 
HETATM   23  C11 UNL     1      14.591  54.557   4.928  1.00  0.00     0.034 A 
HETATM   24  C12 UNL     1      15.649  55.369   4.507  1.00  0.00     0.062 A 
HETATM   25  C13 UNL     1      16.956  54.900   4.425  1.00  0.00     0.011 A 
HETATM   26  N6  UNL     1      15.712  56.683   4.098  1.00  0.00    -0.288 N 
HETATM   27  C14 UNL     1      17.707  56.003   3.966  1.00  0.00     0.121 A 
HETATM   28  C22 UNL     1      17.239  53.565   4.775  1.00  0.00     0.039 A 
HETATM   29  N5  UNL     1      16.960  57.091   3.770  1.00  0.00    -0.308 N 
ATOM     30  H5  UNL     1      17.259  58.013   3.450  1.00  0.00     0.186 HD
BRANCH  26  31
HETATM   31  C15 UNL     1      14.610  57.637   4.031  1.00  0.00     0.187 C 
BRANCH  31  32
HETATM   32  C16 UNL     1      14.028  57.738   2.641  1.00  0.00    -0.035 A 
HETATM   33  C17 UNL     1      13.647  58.981   2.110  1.00  0.00     0.009 A 
HETATM   34  C18 UNL     1      13.099  59.074   0.827  1.00  0.00     0.004 A 
HETATM   35  C19 UNL     1      12.921  57.922   0.063  1.00  0.00     0.042 A 
HETATM   36  C20 UNL     1      13.288  56.691   0.589  1.00  0.00     0.117 A 
HETATM   37  F1  UNL     1      13.114  55.582  -0.143  1.00  0.00    -0.206 F 
HETATM   38  C21 UNL     1      13.834  56.586   1.865  1.00  0.00     0.051 A 
ENDBRANCH  31  32
ENDBRANCH  26  31
ENDBRANCH   1  21
TORSDOF 9
ENDMDL
MODEL 9
REMARK minimizedAffinity -7.62347698
REMARK  9 active torsions:
REMARK  status: ('A' for Active; 'I' for Inactive)
REMARK    1  A    between atoms: C1_2  and  O2_3 
REMARK    2  A    between atoms: C1_2  and  C2_4 
REMARK    3  A    between atoms: C2_4  and  O3_5 
REMARK    4  A    between atoms: O3_5  and  C3_6 
REMARK    5  A    between atoms: C3_6  and  C4_7 
REMARK    6  A    between atoms: C8_16  and  N4_17 
REMARK    7  A    between atoms: N4_17  and  C9_18 
REMARK    8  A    between atoms: N6_26  and  C15_27 
REMARK    9  A    between atoms: C15_27  and  C16_28 
ROOT
HETATM    1  N4  UNL     1      14.223  37.880  18.443  1.00  0.00    -0.243 NA
HETATM    2  H9  UNL     1      13.256  37.794  18.136  1.00  0.00     0.135 HD
ENDROOT
BRANCH   1   3
HETATM    3  C8  UNL     1      14.408  37.111  19.570  1.00  0.00     0.115 A 
HETATM    4  N3  UNL     1      15.368  37.474  20.374  1.00  0.00    -0.340 N 
HETATM    5  C7  UNL     1      15.570  36.775  21.537  1.00  0.00     0.199 A 
ATOM      6  H3  UNL     1      15.962  38.270  20.141  1.00  0.00     0.167 HD
HETATM    7  N2  UNL     1      14.899  35.750  21.957  1.00  0.00    -0.289 N 
HETATM    8  N1  UNL     1      13.939  35.349  21.113  1.00  0.00    -0.263 N 
ATOM      9  H2  UNL     1      15.085  35.290  22.848  1.00  0.00     0.188 HD
HETATM   10  C6  UNL     1      13.107  34.284  21.310  1.00  0.00     0.117 A 
HETATM   11  C23 UNL     1      13.658  35.933  19.911  1.00  0.00     0.102 A 
HETATM   12  C5  UNL     1      12.317  34.148  20.192  1.00  0.00     0.031 A 
HETATM   13  C4  UNL     1      12.686  35.174  19.269  1.00  0.00    -0.001 A 
BRANCH  13  14
HETATM   14  C3  UNL     1      12.112  35.351  17.897  1.00  0.00     0.209 C 
BRANCH  14  15
HETATM   15  O3  UNL     1      10.811  34.768  17.767  1.00  0.00    -0.376 OA
BRANCH  15  16
HETATM   16  C2  UNL     1       9.832  35.443  18.549  1.00  0.00     0.277 C 
BRANCH  16  17
HETATM   17  C1  UNL     1       8.859  36.231  17.687  1.00  0.00     0.164 C 
HETATM   18  O1  UNL     1       8.028  37.051  18.040  1.00  0.00    -0.648 OA
BRANCH  17  19
HETATM   19  O2  UNL     1       8.990  35.930  16.374  1.00  0.00    -0.775 OA
HETATM   20  H1  UNL     1       8.311  36.492  15.946  1.00  0.00     0.167 HD
ENDBRANCH  17  19
ENDBRANCH  16  17
ENDBRANCH  15  16
ENDBRANCH  14  15
ENDBRANCH  13  14
ENDBRANCH   1   3
BRANCH   1  21
HETATM   21  C9  UNL     1      15.045  37.796  17.286  1.00  0.00     0.015 A 
HETATM   22  C10 UNL     1      15.940  36.719  17.198  1.00  0.00     0.026 A 
HETATM   23  C11 UNL     1      16.788  36.544  16.097  1.00  0.00     0.034 A 
HETATM   24  C12 UNL     1      16.718  37.495  15.074  1.00  0.00     0.062 A 
HETATM   25  C13 UNL     1      15.848  38.580  15.129  1.00  0.00     0.011 A 
HETATM   26  N6  UNL     1      17.392  37.634  13.882  1.00  0.00    -0.288 N 
HETATM   27  C14 UNL     1      16.081  39.289  13.932  1.00  0.00     0.121 A 
HETATM   28  C22 UNL     1      15.003  38.738  16.245  1.00  0.00     0.039 A 
HETATM   29  N5  UNL     1      17.013  38.719  13.166  1.00  0.00    -0.308 N 
ATOM     30  H5  UNL     1      17.359  39.027  12.256  1.00  0.00     0.186 HD
BRANCH  26  31
HETATM   31  C15 UNL     1      18.401  36.735  13.331  1.00  0.00     0.187 C 
BRANCH  31  32
HETATM   32  C16 UNL     1      17.813  35.409  12.911  1.00  0.00    -0.035 A 
HETATM   33  C17 UNL     1      18.615  34.258  12.835  1.00  0.00     0.009 A 
HETATM   34  C18 UNL     1      18.073  33.033  12.437  1.00  0.00     0.004 A 
HETATM   35  C19 UNL     1      16.723  32.946  12.104  1.00  0.00     0.042 A 
HETATM   36  C20 UNL     1      15.930  34.083  12.169  1.00  0.00     0.117 A 
HETATM   37  F1  UNL     1      14.632  34.002  11.844  1.00  0.00    -0.206 F 
HETATM   38  C21 UNL     1      16.458  35.309  12.563  1.00  0.00     0.051 A 
ENDBRANCH  31  32
ENDBRANCH  26  31
ENDBRANCH   1  21
TORSDOF 9
ENDMDL
