MODEL 1
REMARK minimizedAffinity -7.35997152
REMARK CNNscore 0.798076093
REMARK CNNaffinity 5.82698011
REMARK  3 active torsions:
REMARK  status: ('A' for Active; 'I' for Inactive)
REMARK    1  A    between atoms: C4_5  and  C5_6 
REMARK    2  A    between atoms: N2_9  and  C6_10 
REMARK    3  A    between atoms: C12_16  and  C13_17 
ROOT
HETATM    1  C5  UNL     1      17.321  52.181   5.583  1.00  0.00     0.038 C 
HETATM    2  N1  UNL     1      16.884  50.968   5.734  1.00  0.00    -0.301 N 
ATOM      3  H1  UNL     1      15.930  50.645   5.574  1.00  0.00     0.187 HD
HETATM    4  N2  UNL     1      17.938  50.204   6.146  1.00  0.00    -0.283 N 
HETATM    5  C12 UNL     1      19.167  50.980   6.360  1.00  0.00     0.148 C 
HETATM    6  C23 UNL     1      18.794  52.364   5.824  1.00  0.00     0.091 C 
ENDROOT
BRANCH   5   7
HETATM    7  C13 UNL     1      19.606  51.072   7.822  1.00  0.00    -0.022 A 
HETATM    8  C14 UNL     1      20.014  49.908   8.504  1.00  0.00     0.010 A 
HETATM    9  C15 UNL     1      20.406  49.952   9.836  1.00  0.00     0.002 A 
HETATM   10  C16 UNL     1      20.387  51.162  10.522  1.00  0.00     0.012 A 
HETATM   11  C17 UNL     1      19.971  52.340   9.889  1.00  0.00    -0.025 A 
HETATM   12  C18 UNL     1      19.952  53.545  10.613  1.00  0.00     0.012 A 
HETATM   13  C22 UNL     1      19.567  52.315   8.528  1.00  0.00    -0.018 A 
HETATM   14  C19 UNL     1      19.534  54.733  10.020  1.00  0.00     0.001 A 
HETATM   15  C20 UNL     1      19.128  54.732   8.694  1.00  0.00     0.001 A 
HETATM   16  C21 UNL     1      19.143  53.542   7.960  1.00  0.00     0.013 A 
ENDBRANCH   5   7
BRANCH   4  17
HETATM   17  C6  UNL     1      17.865  48.810   6.112  1.00  0.00     0.051 A 
HETATM   18  C7  UNL     1      16.627  48.152   6.229  1.00  0.00     0.031 A 
HETATM   19  C8  UNL     1      16.524  46.757   6.203  1.00  0.00     0.002 A 
HETATM   20  C9  UNL     1      17.667  45.979   6.063  1.00  0.00     0.000 A 
HETATM   21  C10 UNL     1      18.907  46.599   5.954  1.00  0.00     0.002 A 
HETATM   22  C11 UNL     1      19.001  47.996   5.980  1.00  0.00     0.031 A 
ENDBRANCH   4  17
BRANCH   1  23
HETATM   23  C4  UNL     1      16.451  53.306   5.168  1.00  0.00    -0.012 A 
HETATM   24  C3  UNL     1      15.062  53.255   5.328  1.00  0.00     0.015 A 
HETATM   25  C2  UNL     1      14.269  54.335   4.924  1.00  0.00     0.020 A 
HETATM   26  C1  UNL     1      14.866  55.463   4.362  1.00  0.00     0.011 A 
HETATM   27 BR1  UNL     1      13.791  56.920   3.819  1.00  0.00    -0.051 Br
HETATM   28  C25 UNL     1      16.248  55.524   4.199  1.00  0.00     0.020 A 
HETATM   29  C24 UNL     1      17.040  54.446   4.602  1.00  0.00     0.015 A 
ENDBRANCH   1  23
TORSDOF 3
ENDMDL
MODEL 2
REMARK minimizedAffinity -7.10120487
REMARK CNNscore 0.76244247
REMARK CNNaffinity 6.03539991
REMARK  3 active torsions:
REMARK  status: ('A' for Active; 'I' for Inactive)
REMARK    1  A    between atoms: C4_5  and  C5_6 
REMARK    2  A    between atoms: N2_9  and  C6_10 
REMARK    3  A    between atoms: C12_16  and  C13_17 
ROOT
HETATM    1  C5  UNL     1      17.105  52.586   5.112  1.00  0.00     0.038 C 
HETATM    2  N1  UNL     1      16.600  51.390   5.129  1.00  0.00    -0.301 N 
ATOM      3  H1  UNL     1      15.629  51.142   4.940  1.00  0.00     0.187 HD
HETATM    4  N2  UNL     1      17.610  50.527   5.445  1.00  0.00    -0.283 N 
HETATM    5  C12 UNL     1      18.880  51.203   5.737  1.00  0.00     0.148 C 
HETATM    6  C23 UNL     1      18.586  52.658   5.362  1.00  0.00     0.091 C 
ENDROOT
BRANCH   5   7
HETATM    7  C13 UNL     1      19.325  51.106   7.196  1.00  0.00    -0.022 A 
HETATM    8  C14 UNL     1      19.044  52.163   8.084  1.00  0.00     0.010 A 
HETATM    9  C15 UNL     1      19.446  52.114   9.414  1.00  0.00     0.002 A 
HETATM   10  C16 UNL     1      20.149  51.010   9.883  1.00  0.00     0.012 A 
HETATM   11  C17 UNL     1      20.466  49.945   9.030  1.00  0.00    -0.025 A 
HETATM   12  C18 UNL     1      21.189  48.849   9.531  1.00  0.00     0.012 A 
HETATM   13  C22 UNL     1      20.065  49.977   7.668  1.00  0.00    -0.018 A 
HETATM   14  C19 UNL     1      21.531  47.777   8.711  1.00  0.00     0.001 A 
HETATM   15  C20 UNL     1      21.156  47.790   7.376  1.00  0.00     0.001 A 
HETATM   16  C21 UNL     1      20.435  48.872   6.862  1.00  0.00     0.013 A 
ENDBRANCH   5   7
BRANCH   4  17
HETATM   17  C6  UNL     1      17.458  49.152   5.256  1.00  0.00     0.051 A 
HETATM   18  C7  UNL     1      17.936  48.530   4.088  1.00  0.00     0.031 A 
HETATM   19  C8  UNL     1      17.794  47.156   3.869  1.00  0.00     0.002 A 
HETATM   20  C9  UNL     1      17.162  46.363   4.819  1.00  0.00     0.000 A 
HETATM   21  C10 UNL     1      16.671  46.949   5.980  1.00  0.00     0.002 A 
HETATM   22  C11 UNL     1      16.818  48.325   6.192  1.00  0.00     0.031 A 
ENDBRANCH   4  17
BRANCH   1  23
HETATM   23  C4  UNL     1      16.300  53.798   4.832  1.00  0.00    -0.012 A 
HETATM   24  C3  UNL     1      16.890  54.978   4.365  1.00  0.00     0.015 A 
HETATM   25  C2  UNL     1      16.100  56.105   4.112  1.00  0.00     0.020 A 
HETATM   26  C1  UNL     1      14.722  56.050   4.324  1.00  0.00     0.011 A 
HETATM   27 BR1  UNL     1      13.659  57.573   3.979  1.00  0.00    -0.051 Br
HETATM   28  C25 UNL     1      14.126  54.879   4.788  1.00  0.00     0.020 A 
HETATM   29  C24 UNL     1      14.914  53.754   5.041  1.00  0.00     0.015 A 
ENDBRANCH   1  23
TORSDOF 3
ENDMDL
MODEL 3
REMARK minimizedAffinity -6.24663782
REMARK CNNscore 0.603980303
REMARK CNNaffinity 5.51066446
REMARK  3 active torsions:
REMARK  status: ('A' for Active; 'I' for Inactive)
REMARK    1  A    between atoms: C4_5  and  C5_6 
REMARK    2  A    between atoms: N2_9  and  C6_10 
REMARK    3  A    between atoms: C12_16  and  C13_17 
ROOT
HETATM    1  C5  UNL     1      13.521  62.309   4.516  1.00  0.00     0.038 C 
HETATM    2  N1  UNL     1      13.038  62.412   5.717  1.00  0.00    -0.301 N 
ATOM      3  H1  UNL     1      12.925  63.273   6.252  1.00  0.00     0.187 HD
HETATM    4  N2  UNL     1      12.709  61.153   6.131  1.00  0.00    -0.283 N 
HETATM    5  C12 UNL     1      13.067  60.111   5.160  1.00  0.00     0.148 C 
HETATM    6  C23 UNL     1      13.511  60.921   3.939  1.00  0.00     0.091 C 
ENDROOT
BRANCH   5   7
HETATM    7  C13 UNL     1      14.189  59.180   5.621  1.00  0.00    -0.022 A 
HETATM    8  C14 UNL     1      15.179  59.660   6.502  1.00  0.00     0.010 A 
HETATM    9  C15 UNL     1      16.220  58.846   6.930  1.00  0.00     0.002 A 
HETATM   10  C16 UNL     1      16.302  57.534   6.477  1.00  0.00     0.012 A 
HETATM   11  C17 UNL     1      15.351  57.020   5.586  1.00  0.00    -0.025 A 
HETATM   12  C18 UNL     1      15.468  55.694   5.136  1.00  0.00     0.012 A 
HETATM   13  C22 UNL     1      14.279  57.838   5.137  1.00  0.00    -0.018 A 
HETATM   14  C19 UNL     1      14.548  55.153   4.243  1.00  0.00     0.001 A 
HETATM   15  C20 UNL     1      13.497  55.935   3.784  1.00  0.00     0.001 A 
HETATM   16  C21 UNL     1      13.365  57.255   4.224  1.00  0.00     0.013 A 
ENDBRANCH   5   7
BRANCH   4  17
HETATM   17  C6  UNL     1      11.901  60.960   7.253  1.00  0.00     0.051 A 
HETATM   18  C7  UNL     1      11.904  61.888   8.310  1.00  0.00     0.031 A 
HETATM   19  C8  UNL     1      11.108  61.719   9.448  1.00  0.00     0.002 A 
HETATM   20  C9  UNL     1      10.286  60.605   9.560  1.00  0.00     0.000 A 
HETATM   21  C10 UNL     1      10.265  59.665   8.536  1.00  0.00     0.002 A 
HETATM   22  C11 UNL     1      11.064  59.843   7.400  1.00  0.00     0.031 A 
ENDBRANCH   4  17
BRANCH   1  23
HETATM   23  C4  UNL     1      14.015  63.473   3.744  1.00  0.00    -0.012 A 
HETATM   24  C3  UNL     1      14.540  63.328   2.454  1.00  0.00     0.015 A 
HETATM   25  C2  UNL     1      15.000  64.448   1.753  1.00  0.00     0.020 A 
HETATM   26  C1  UNL     1      14.933  65.711   2.341  1.00  0.00     0.011 A 
HETATM   27 BR1  UNL     1      15.553  67.221   1.390  1.00  0.00    -0.051 Br
HETATM   28  C25 UNL     1      14.412  65.866   3.624  1.00  0.00     0.020 A 
HETATM   29  C24 UNL     1      13.953  64.748   4.324  1.00  0.00     0.015 A 
ENDBRANCH   1  23
TORSDOF 3
ENDMDL
MODEL 4
REMARK minimizedAffinity -6.77117443
REMARK CNNscore 0.583044648
REMARK CNNaffinity 5.42209673
REMARK  3 active torsions:
REMARK  status: ('A' for Active; 'I' for Inactive)
REMARK    1  A    between atoms: C4_5  and  C5_6 
REMARK    2  A    between atoms: N2_9  and  C6_10 
REMARK    3  A    between atoms: C12_16  and  C13_17 
ROOT
HETATM    1  C5  UNL     1      12.654  51.427  -2.479  1.00  0.00     0.038 C 
HETATM    2  N1  UNL     1      13.787  51.913  -2.072  1.00  0.00    -0.301 N 
ATOM      3  H1  UNL     1      14.429  51.478  -1.410  1.00  0.00     0.187 HD
HETATM    4  N2  UNL     1      13.959  53.117  -2.694  1.00  0.00    -0.283 N 
HETATM    5  C12 UNL     1      12.816  53.505  -3.530  1.00  0.00     0.148 C 
HETATM    6  C23 UNL     1      11.939  52.251  -3.512  1.00  0.00     0.091 C 
ENDROOT
BRANCH   5   7
HETATM    7  C13 UNL     1      12.036  54.713  -3.010  1.00  0.00    -0.022 A 
HETATM    8  C14 UNL     1      12.076  55.031  -1.637  1.00  0.00     0.010 A 
HETATM    9  C15 UNL     1      11.369  56.113  -1.127  1.00  0.00     0.002 A 
HETATM   10  C16 UNL     1      10.594  56.895  -1.977  1.00  0.00     0.012 A 
HETATM   11  C17 UNL     1      10.510  56.603  -3.344  1.00  0.00    -0.025 A 
HETATM   12  C18 UNL     1       9.709  57.404  -4.176  1.00  0.00     0.012 A 
HETATM   13  C22 UNL     1      11.226  55.501  -3.884  1.00  0.00    -0.018 A 
HETATM   14  C19 UNL     1       9.593  57.138  -5.537  1.00  0.00     0.001 A 
HETATM   15  C20 UNL     1      10.277  56.064  -6.085  1.00  0.00     0.001 A 
HETATM   16  C21 UNL     1      11.080  55.258  -5.273  1.00  0.00     0.013 A 
ENDBRANCH   5   7
BRANCH   4  17
HETATM   17  C6  UNL     1      15.205  53.748  -2.694  1.00  0.00     0.051 A 
HETATM   18  C7  UNL     1      16.158  53.457  -3.687  1.00  0.00     0.031 A 
HETATM   19  C8  UNL     1      17.415  54.071  -3.710  1.00  0.00     0.002 A 
HETATM   20  C9  UNL     1      17.755  54.994  -2.729  1.00  0.00     0.000 A 
HETATM   21  C10 UNL     1      16.838  55.298  -1.729  1.00  0.00     0.002 A 
HETATM   22  C11 UNL     1      15.581  54.680  -1.714  1.00  0.00     0.031 A 
ENDBRANCH   4  17
BRANCH   1  23
HETATM   23  C4  UNL     1      12.112  50.135  -1.996  1.00  0.00    -0.012 A 
HETATM   24  C3  UNL     1      10.756  49.979  -1.688  1.00  0.00     0.015 A 
HETATM   25  C2  UNL     1      10.276  48.745  -1.234  1.00  0.00     0.020 A 
HETATM   26  C1  UNL     1      11.153  47.670  -1.090  1.00  0.00     0.011 A 
HETATM   27 BR1  UNL     1      10.502  46.006  -0.477  1.00  0.00    -0.051 Br
HETATM   28  C25 UNL     1      12.504  47.815  -1.394  1.00  0.00     0.020 A 
HETATM   29  C24 UNL     1      12.983  49.047  -1.848  1.00  0.00     0.015 A 
ENDBRANCH   1  23
TORSDOF 3
ENDMDL
MODEL 5
REMARK minimizedAffinity -6.3460145
REMARK CNNscore 0.574039757
REMARK CNNaffinity 5.27677536
REMARK  3 active torsions:
REMARK  status: ('A' for Active; 'I' for Inactive)
REMARK    1  A    between atoms: C4_5  and  C5_6 
REMARK    2  A    between atoms: N2_9  and  C6_10 
REMARK    3  A    between atoms: C12_16  and  C13_17 
ROOT
HETATM    1  C5  UNL     1      11.676  52.256  -2.970  1.00  0.00     0.038 C 
HETATM    2  N1  UNL     1      12.238  52.876  -1.977  1.00  0.00    -0.301 N 
ATOM      3  H1  UNL     1      12.325  52.532  -1.021  1.00  0.00     0.187 HD
HETATM    4  N2  UNL     1      12.689  54.075  -2.450  1.00  0.00    -0.283 N 
HETATM    5  C12 UNL     1      12.339  54.312  -3.857  1.00  0.00     0.148 C 
HETATM    6  C23 UNL     1      11.747  52.969  -4.291  1.00  0.00     0.091 C 
ENDROOT
BRANCH   5   7
HETATM    7  C13 UNL     1      11.328  55.438  -4.072  1.00  0.00    -0.022 A 
HETATM    8  C14 UNL     1      10.664  56.003  -2.964  1.00  0.00     0.010 A 
HETATM    9  C15 UNL     1       9.729  57.019  -3.125  1.00  0.00     0.002 A 
HETATM   10  C16 UNL     1       9.426  57.484  -4.400  1.00  0.00     0.012 A 
HETATM   11  C17 UNL     1      10.047  56.938  -5.530  1.00  0.00    -0.025 A 
HETATM   12  C18 UNL     1       9.710  57.421  -6.806  1.00  0.00     0.012 A 
HETATM   13  C22 UNL     1      11.005  55.899  -5.387  1.00  0.00    -0.018 A 
HETATM   14  C19 UNL     1      10.298  56.895  -7.953  1.00  0.00     0.001 A 
HETATM   15  C20 UNL     1      11.232  55.875  -7.838  1.00  0.00     0.001 A 
HETATM   16  C21 UNL     1      11.579  55.385  -6.576  1.00  0.00     0.013 A 
ENDBRANCH   5   7
BRANCH   4  17
HETATM   17  C6  UNL     1      13.591  54.841  -1.708  1.00  0.00     0.051 A 
HETATM   18  C7  UNL     1      13.146  55.640  -0.639  1.00  0.00     0.031 A 
HETATM   19  C8  UNL     1      14.025  56.420   0.119  1.00  0.00     0.002 A 
HETATM   20  C9  UNL     1      15.382  56.425  -0.179  1.00  0.00     0.000 A 
HETATM   21  C10 UNL     1      15.853  55.652  -1.234  1.00  0.00     0.002 A 
HETATM   22  C11 UNL     1      14.966  54.872  -1.987  1.00  0.00     0.031 A 
ENDBRANCH   4  17
BRANCH   1  23
HETATM   23  C4  UNL     1      11.040  50.925  -2.833  1.00  0.00    -0.012 A 
HETATM   24  C3  UNL     1      10.194  50.411  -3.823  1.00  0.00     0.015 A 
HETATM   25  C2  UNL     1       9.609  49.151  -3.661  1.00  0.00     0.020 A 
HETATM   26  C1  UNL     1       9.871  48.405  -2.512  1.00  0.00     0.011 A 
HETATM   27 BR1  UNL     1       9.079  46.703  -2.298  1.00  0.00    -0.051 Br
HETATM   28  C25 UNL     1      10.712  48.907  -1.521  1.00  0.00     0.020 A 
HETATM   29  C24 UNL     1      11.297  50.166  -1.682  1.00  0.00     0.015 A 
ENDBRANCH   1  23
TORSDOF 3
ENDMDL
MODEL 6
REMARK minimizedAffinity -6.64845181
REMARK CNNscore 0.551583886
REMARK CNNaffinity 4.96586084
REMARK  3 active torsions:
REMARK  status: ('A' for Active; 'I' for Inactive)
REMARK    1  A    between atoms: C4_5  and  C5_6 
REMARK    2  A    between atoms: N2_9  and  C6_10 
REMARK    3  A    between atoms: C12_16  and  C13_17 
ROOT
HETATM    1  C5  UNL     1      16.773  52.638   5.540  1.00  0.00     0.038 C 
HETATM    2  N1  UNL     1      17.777  52.704   6.360  1.00  0.00    -0.301 N 
ATOM      3  H1  UNL     1      18.186  53.555   6.748  1.00  0.00     0.187 HD
HETATM    4  N2  UNL     1      18.185  51.425   6.608  1.00  0.00    -0.283 N 
HETATM    5  C12 UNL     1      17.443  50.421   5.835  1.00  0.00     0.148 C 
HETATM    6  C23 UNL     1      16.333  51.247   5.179  1.00  0.00     0.091 C 
ENDROOT
BRANCH   5   7
HETATM    7  C13 UNL     1      18.275  49.703   4.772  1.00  0.00    -0.022 A 
HETATM    8  C14 UNL     1      19.520  50.236   4.382  1.00  0.00     0.010 A 
HETATM    9  C15 UNL     1      20.297  49.618   3.409  1.00  0.00     0.002 A 
HETATM   10  C16 UNL     1      19.840  48.457   2.796  1.00  0.00     0.012 A 
HETATM   11  C17 UNL     1      18.601  47.902   3.139  1.00  0.00    -0.025 A 
HETATM   12  C18 UNL     1      18.161  46.735   2.492  1.00  0.00     0.012 A 
HETATM   13  C22 UNL     1      17.792  48.520   4.131  1.00  0.00    -0.018 A 
HETATM   14  C19 UNL     1      16.930  46.161   2.800  1.00  0.00     0.001 A 
HETATM   15  C20 UNL     1      16.121  46.751   3.759  1.00  0.00     0.001 A 
HETATM   16  C21 UNL     1      16.544  47.911   4.414  1.00  0.00     0.013 A 
ENDBRANCH   5   7
BRANCH   4  17
HETATM   17  C6  UNL     1      19.047  51.144   7.670  1.00  0.00     0.051 A 
HETATM   18  C7  UNL     1      19.611  49.864   7.819  1.00  0.00     0.031 A 
HETATM   19  C8  UNL     1      20.474  49.552   8.875  1.00  0.00     0.002 A 
HETATM   20  C9  UNL     1      20.792  50.520   9.819  1.00  0.00     0.000 A 
HETATM   21  C10 UNL     1      20.245  51.793   9.705  1.00  0.00     0.002 A 
HETATM   22  C11 UNL     1      19.383  52.097   8.644  1.00  0.00     0.031 A 
ENDBRANCH   4  17
BRANCH   1  23
HETATM   23  C4  UNL     1      16.078  53.838   5.018  1.00  0.00    -0.012 A 
HETATM   24  C3  UNL     1      14.690  53.983   5.122  1.00  0.00     0.015 A 
HETATM   25  C2  UNL     1      14.065  55.129   4.617  1.00  0.00     0.020 A 
HETATM   26  C1  UNL     1      14.827  56.127   4.011  1.00  0.00     0.011 A 
HETATM   27 BR1  UNL     1      13.979  57.673   3.332  1.00  0.00    -0.051 Br
HETATM   28  C25 UNL     1      16.210  55.991   3.903  1.00  0.00     0.020 A 
HETATM   29  C24 UNL     1      16.834  54.848   4.407  1.00  0.00     0.015 A 
ENDBRANCH   1  23
TORSDOF 3
ENDMDL
MODEL 7
REMARK minimizedAffinity -7.19442749
REMARK CNNscore 0.535939634
REMARK CNNaffinity 5.36974001
REMARK  3 active torsions:
REMARK  status: ('A' for Active; 'I' for Inactive)
REMARK    1  A    between atoms: C4_5  and  C5_6 
REMARK    2  A    between atoms: N2_9  and  C6_10 
REMARK    3  A    between atoms: C12_16  and  C13_17 
ROOT
HETATM    1  C5  UNL     1      11.347  57.523  -2.414  1.00  0.00     0.038 C 
HETATM    2  N1  UNL     1      11.966  58.086  -1.422  1.00  0.00    -0.301 N 
ATOM      3  H1  UNL     1      12.055  59.089  -1.255  1.00  0.00     0.187 HD
HETATM    4  N2  UNL     1      12.476  57.088  -0.642  1.00  0.00    -0.283 N 
HETATM    5  C12 UNL     1      12.244  55.747  -1.193  1.00  0.00     0.148 C 
HETATM    6  C23 UNL     1      11.314  56.021  -2.377  1.00  0.00     0.091 C 
ENDROOT
BRANCH   5   7
HETATM    7  C13 UNL     1      13.511  55.031  -1.661  1.00  0.00    -0.022 A 
HETATM    8  C14 UNL     1      14.737  55.727  -1.689  1.00  0.00     0.010 A 
HETATM    9  C15 UNL     1      15.905  55.111  -2.122  1.00  0.00     0.002 A 
HETATM   10  C16 UNL     1      15.872  53.788  -2.549  1.00  0.00     0.012 A 
HETATM   11  C17 UNL     1      14.673  53.065  -2.556  1.00  0.00    -0.025 A 
HETATM   12  C18 UNL     1      14.670  51.734  -3.006  1.00  0.00     0.012 A 
HETATM   13  C22 UNL     1      13.468  53.677  -2.118  1.00  0.00    -0.018 A 
HETATM   14  C19 UNL     1      13.495  50.988  -3.037  1.00  0.00     0.001 A 
HETATM   15  C20 UNL     1      12.305  51.566  -2.621  1.00  0.00     0.001 A 
HETATM   16  C21 UNL     1      12.291  52.889  -2.169  1.00  0.00     0.013 A 
ENDBRANCH   5   7
BRANCH   4  17
HETATM   17  C6  UNL     1      12.939  57.357   0.648  1.00  0.00     0.051 A 
HETATM   18  C7  UNL     1      12.992  58.676   1.132  1.00  0.00     0.031 A 
HETATM   19  C8  UNL     1      13.456  58.976   2.418  1.00  0.00     0.002 A 
HETATM   20  C9  UNL     1      13.884  57.955   3.257  1.00  0.00     0.000 A 
HETATM   21  C10 UNL     1      13.851  56.640   2.805  1.00  0.00     0.002 A 
HETATM   22  C11 UNL     1      13.385  56.349   1.517  1.00  0.00     0.031 A 
ENDBRANCH   4  17
BRANCH   1  23
HETATM   23  C4  UNL     1      10.685  58.293  -3.493  1.00  0.00    -0.012 A 
HETATM   24  C3  UNL     1      11.284  59.424  -4.060  1.00  0.00     0.015 A 
HETATM   25  C2  UNL     1      10.631  60.129  -5.077  1.00  0.00     0.020 A 
HETATM   26  C1  UNL     1       9.380  59.703  -5.525  1.00  0.00     0.011 A 
HETATM   27 BR1  UNL     1       8.502  60.658  -6.898  1.00  0.00    -0.051 Br
HETATM   28  C25 UNL     1       8.776  58.579  -4.967  1.00  0.00     0.020 A 
HETATM   29  C24 UNL     1       9.428  57.875  -3.952  1.00  0.00     0.015 A 
ENDBRANCH   1  23
TORSDOF 3
ENDMDL
MODEL 8
REMARK minimizedAffinity -6.27910423
REMARK CNNscore 0.523657441
REMARK CNNaffinity 5.57346535
REMARK  3 active torsions:
REMARK  status: ('A' for Active; 'I' for Inactive)
REMARK    1  A    between atoms: C4_5  and  C5_6 
REMARK    2  A    between atoms: N2_9  and  C6_10 
REMARK    3  A    between atoms: C12_16  and  C13_17 
ROOT
HETATM    1  C5  UNL     1      12.771  56.222  -0.315  1.00  0.00     0.038 C 
HETATM    2  N1  UNL     1      13.382  55.136  -0.678  1.00  0.00    -0.301 N 
ATOM      3  H1  UNL     1      14.171  54.698  -0.203  1.00  0.00     0.187 HD
HETATM    4  N2  UNL     1      12.774  54.689  -1.816  1.00  0.00    -0.283 N 
HETATM    5  C12 UNL     1      11.716  55.586  -2.298  1.00  0.00     0.148 C 
HETATM    6  C23 UNL     1      11.593  56.608  -1.165  1.00  0.00     0.091 C 
ENDROOT
BRANCH   5   7
HETATM    7  C13 UNL     1      12.036  56.286  -3.618  1.00  0.00    -0.022 A 
HETATM    8  C14 UNL     1      13.351  56.254  -4.125  1.00  0.00     0.010 A 
HETATM    9  C15 UNL     1      13.681  56.892  -5.315  1.00  0.00     0.002 A 
HETATM   10  C16 UNL     1      12.704  57.586  -6.021  1.00  0.00     0.012 A 
HETATM   11  C17 UNL     1      11.389  57.659  -5.545  1.00  0.00    -0.025 A 
HETATM   12  C18 UNL     1      10.428  58.380  -6.274  1.00  0.00     0.012 A 
HETATM   13  C22 UNL     1      11.033  57.015  -4.330  1.00  0.00    -0.018 A 
HETATM   14  C19 UNL     1       9.114  58.483  -5.827  1.00  0.00     0.001 A 
HETATM   15  C20 UNL     1       8.744  57.868  -4.640  1.00  0.00     0.001 A 
HETATM   16  C21 UNL     1       9.688  57.146  -3.903  1.00  0.00     0.013 A 
ENDBRANCH   5   7
BRANCH   4  17
HETATM   17  C6  UNL     1      13.006  53.395  -2.287  1.00  0.00     0.051 A 
HETATM   18  C7  UNL     1      14.293  52.996  -2.689  1.00  0.00     0.031 A 
HETATM   19  C8  UNL     1      14.554  51.708  -3.169  1.00  0.00     0.002 A 
HETATM   20  C9  UNL     1      13.523  50.781  -3.264  1.00  0.00     0.000 A 
HETATM   21  C10 UNL     1      12.237  51.147  -2.882  1.00  0.00     0.002 A 
HETATM   22  C11 UNL     1      11.985  52.438  -2.402  1.00  0.00     0.031 A 
ENDBRANCH   4  17
BRANCH   1  23
HETATM   23  C4  UNL     1      13.171  57.013   0.873  1.00  0.00    -0.012 A 
HETATM   24  C3  UNL     1      12.945  58.393   0.944  1.00  0.00     0.015 A 
HETATM   25  C2  UNL     1      13.337  59.110   2.079  1.00  0.00     0.020 A 
HETATM   26  C1  UNL     1      13.952  58.448   3.142  1.00  0.00     0.011 A 
HETATM   27 BR1  UNL     1      14.478  59.421   4.674  1.00  0.00    -0.051 Br
HETATM   28  C25 UNL     1      14.181  57.076   3.081  1.00  0.00     0.020 A 
HETATM   29  C24 UNL     1      13.790  56.359   1.947  1.00  0.00     0.015 A 
ENDBRANCH   1  23
TORSDOF 3
ENDMDL
MODEL 9
REMARK minimizedAffinity -6.58717728
REMARK CNNscore 0.501496077
REMARK CNNaffinity 4.99235868
REMARK  3 active torsions:
REMARK  status: ('A' for Active; 'I' for Inactive)
REMARK    1  A    between atoms: C4_5  and  C5_6 
REMARK    2  A    between atoms: N2_9  and  C6_10 
REMARK    3  A    between atoms: C12_16  and  C13_17 
ROOT
HETATM    1  C5  UNL     1       1.417  67.640  -7.896  1.00  0.00     0.038 C 
HETATM    2  N1  UNL     1       2.429  66.828  -7.872  1.00  0.00    -0.301 N 
ATOM      3  H1  UNL     1       2.938  66.471  -8.681  1.00  0.00     0.187 HD
HETATM    4  N2  UNL     1       2.689  66.540  -6.562  1.00  0.00    -0.283 N 
HETATM    5  C12 UNL     1       1.727  67.150  -5.634  1.00  0.00     0.148 C 
HETATM    6  C23 UNL     1       0.901  68.059  -6.548  1.00  0.00     0.091 C 
ENDROOT
BRANCH   5   7
HETATM    7  C13 UNL     1       0.824  66.148  -4.916  1.00  0.00    -0.022 A 
HETATM    8  C14 UNL     1       0.143  65.163  -5.660  1.00  0.00     0.010 A 
HETATM    9  C15 UNL     1      -0.698  64.245  -5.041  1.00  0.00     0.002 A 
HETATM   10  C16 UNL     1      -0.886  64.299  -3.664  1.00  0.00     0.012 A 
HETATM   11  C17 UNL     1      -0.244  65.273  -2.889  1.00  0.00    -0.025 A 
HETATM   12  C18 UNL     1      -0.465  65.309  -1.501  1.00  0.00     0.012 A 
HETATM   13  C22 UNL     1       0.618  66.220  -3.503  1.00  0.00    -0.018 A 
HETATM   14  C19 UNL     1       0.148  66.269  -0.701  1.00  0.00     0.001 A 
HETATM   15  C20 UNL     1       0.988  67.209  -1.279  1.00  0.00     0.001 A 
HETATM   16  C21 UNL     1       1.220  67.185  -2.657  1.00  0.00     0.013 A 
ENDBRANCH   5   7
BRANCH   4  17
HETATM   17  C6  UNL     1       3.890  65.934  -6.189  1.00  0.00     0.051 A 
HETATM   18  C7  UNL     1       4.936  65.779  -7.117  1.00  0.00     0.031 A 
HETATM   19  C8  UNL     1       6.148  65.172  -6.773  1.00  0.00     0.002 A 
HETATM   20  C9  UNL     1       6.344  64.696  -5.483  1.00  0.00     0.000 A 
HETATM   21  C10 UNL     1       5.327  64.826  -4.544  1.00  0.00     0.002 A 
HETATM   22  C11 UNL     1       4.117  65.437  -4.897  1.00  0.00     0.031 A 
ENDBRANCH   4  17
BRANCH   1  23
HETATM   23  C4  UNL     1       0.826  68.155  -9.154  1.00  0.00    -0.012 A 
HETATM   24  C3  UNL     1       0.748  69.527  -9.419  1.00  0.00     0.015 A 
HETATM   25  C2  UNL     1       0.182  69.979 -10.616  1.00  0.00     0.020 A 
HETATM   26  C1  UNL     1      -0.301  69.060 -11.547  1.00  0.00     0.011 A 
HETATM   27 BR1  UNL     1      -1.063  69.675 -13.163  1.00  0.00    -0.051 Br
HETATM   28  C25 UNL     1      -0.227  67.692 -11.293  1.00  0.00     0.020 A 
HETATM   29  C24 UNL     1       0.337  67.240 -10.097  1.00  0.00     0.015 A 
ENDBRANCH   1  23
TORSDOF 3
ENDMDL
