MODEL 1
REMARK minimizedAffinity -10.093852
REMARK  4 active torsions:
REMARK  status: ('A' for Active; 'I' for Inactive)
REMARK    1  A    between atoms: O1_2  and  C2_3 
REMARK    2  A    between atoms: C5_6  and  N1_7 
REMARK    3  A    between atoms: N1_7  and  C6_8 
REMARK    4  A    between atoms: C10_14  and  C11_15 
ROOT
HETATM    1  C6  UNL     1       6.476  -7.014  28.478  1.00  0.00     0.684 A 
HETATM    2  N2  UNL     1       7.629  -7.676  28.640  1.00  0.00    -0.201 N 
ATOM      3  H2  UNL     1       7.829  -8.528  28.115  1.00  0.00     0.183 HD
HETATM    4  C7  UNL     1       8.515  -7.174  29.520  1.00  0.00     0.121 A 
HETATM    5  C8  UNL     1       8.297  -6.031  30.251  1.00  0.00     0.026 A 
HETATM    6  C9  UNL     1       9.258  -5.494  31.200  1.00  0.00     0.034 A 
HETATM    7  C10 UNL     1       8.964  -4.371  31.874  1.00  0.00     0.047 A 
HETATM    8  C17 UNL     1       7.655  -3.666  31.657  1.00  0.00     0.260 A 
HETATM    9  O2  UNL     1       7.414  -2.638  32.289  1.00  0.00    -0.267 OA
HETATM   10  N3  UNL     1       6.780  -4.226  30.740  1.00  0.00    -0.303 N 
HETATM   11  C18 UNL     1       5.499  -3.594  30.483  1.00  0.00     0.161 C 
HETATM   12  C19 UNL     1       7.084  -5.413  30.024  1.00  0.00     0.137 A 
HETATM   13  N4  UNL     1       6.175  -5.892  29.147  1.00  0.00    -0.175 N 
ATOM     14  H4  UNL     1       5.286  -5.414  28.998  1.00  0.00     0.186 HD
ENDROOT
BRANCH   1  15
HETATM   15  N1  UNL     1       5.494  -7.449  27.593  1.00  0.00    -0.190 N 
HETATM   16  H6  UNL     1       5.925  -7.649  26.701  1.00  0.00     0.184 HD
BRANCH  15  17
HETATM   17  C5  UNL     1       4.116  -7.648  27.697  1.00  0.00     0.064 A 
HETATM   18  C4  UNL     1       3.456  -8.821  27.336  1.00  0.00     0.036 A 
HETATM   19  C3  UNL     1       2.071  -8.928  27.475  1.00  0.00     0.058 A 
HETATM   20  C2  UNL     1       1.369  -7.848  27.979  1.00  0.00     0.141 A 
HETATM   21  N5  UNL     1       1.953  -6.690  28.344  1.00  0.00    -0.345 N 
HETATM   22  C20 UNL     1       3.299  -6.626  28.194  1.00  0.00     0.120 A 
ATOM     23  H5  UNL     1       1.413  -5.907  28.711  1.00  0.00     0.167 HD
BRANCH  20  24
HETATM   24  O1  UNL     1       0.003  -8.005  28.097  1.00  0.00    -0.341 OA
HETATM   25  C1  UNL     1      -0.438  -9.314  27.755  1.00  0.00     0.211 C 
ENDBRANCH  20  24
ENDBRANCH  15  17
ENDBRANCH   1  15
BRANCH   7  26
HETATM   26  C11 UNL     1       9.935  -3.820  32.839  1.00  0.00     0.023 A 
HETATM   27  C12 UNL     1       9.887  -4.180  34.198  1.00  0.00     0.046 A 
HETATM   28 CL1  UNL     1       8.677  -5.254  34.817  1.00  0.00    -0.083 Cl
HETATM   29  C13 UNL     1      10.819  -3.669  35.109  1.00  0.00     0.025 A 
HETATM   30  C14 UNL     1      11.813  -2.794  34.678  1.00  0.00     0.003 A 
HETATM   31  C15 UNL     1      11.877  -2.426  33.336  1.00  0.00     0.025 A 
HETATM   32  C16 UNL     1      10.946  -2.934  32.423  1.00  0.00     0.046 A 
HETATM   33 CL2  UNL     1      11.088  -2.418  30.775  1.00  0.00    -0.083 Cl
ENDBRANCH   7  26
TORSDOF 4
ENDMDL
MODEL 2
REMARK minimizedAffinity -10.0657244
REMARK  4 active torsions:
REMARK  status: ('A' for Active; 'I' for Inactive)
REMARK    1  A    between atoms: O1_2  and  C2_3 
REMARK    2  A    between atoms: C5_6  and  N1_7 
REMARK    3  A    between atoms: N1_7  and  C6_8 
REMARK    4  A    between atoms: C10_14  and  C11_15 
ROOT
HETATM    1  C6  UNL     1       6.459  -7.053  28.467  1.00  0.00     0.684 A 
HETATM    2  N2  UNL     1       7.620  -7.707  28.608  1.00  0.00    -0.201 N 
ATOM      3  H2  UNL     1       7.820  -8.552  28.073  1.00  0.00     0.183 HD
HETATM    4  C7  UNL     1       8.512  -7.206  29.482  1.00  0.00     0.121 A 
HETATM    5  C8  UNL     1       8.295  -6.071  30.226  1.00  0.00     0.026 A 
HETATM    6  C9  UNL     1       9.263  -5.536  31.167  1.00  0.00     0.034 A 
HETATM    7  C10 UNL     1       8.968  -4.422  31.855  1.00  0.00     0.047 A 
HETATM    8  C17 UNL     1       7.651  -3.725  31.662  1.00  0.00     0.260 A 
HETATM    9  O2  UNL     1       7.410  -2.705  32.306  1.00  0.00    -0.267 OA
HETATM   10  N3  UNL     1       6.770  -4.284  30.750  1.00  0.00    -0.303 N 
HETATM   11  C18 UNL     1       5.480  -3.660  30.515  1.00  0.00     0.161 C 
HETATM   12  C19 UNL     1       7.073  -5.462  30.019  1.00  0.00     0.137 A 
HETATM   13  N4  UNL     1       6.158  -5.940  29.150  1.00  0.00    -0.175 N 
ATOM     14  H4  UNL     1       5.264  -5.468  29.016  1.00  0.00     0.186 HD
ENDROOT
BRANCH   1  15
HETATM   15  N1  UNL     1       5.470  -7.488  27.590  1.00  0.00    -0.190 N 
HETATM   16  H6  UNL     1       5.897  -7.708  26.701  1.00  0.00     0.184 HD
BRANCH  15  17
HETATM   17  C5  UNL     1       4.089  -7.665  27.699  1.00  0.00     0.064 A 
HETATM   18  C4  UNL     1       3.408  -8.822  27.325  1.00  0.00     0.036 A 
HETATM   19  C3  UNL     1       2.021  -8.907  27.471  1.00  0.00     0.058 A 
HETATM   20  C2  UNL     1       1.341  -7.821  27.992  1.00  0.00     0.141 A 
HETATM   21  N5  UNL     1       1.946  -6.679  28.369  1.00  0.00    -0.345 N 
HETATM   22  C20 UNL     1       3.293  -6.635  28.213  1.00  0.00     0.120 A 
ATOM     23  H5  UNL     1       1.422  -5.891  28.750  1.00  0.00     0.167 HD
BRANCH  20  24
HETATM   24  O1  UNL     1      -0.027  -7.956  28.115  1.00  0.00    -0.341 OA
HETATM   25  C1  UNL     1      -0.508  -9.207  27.635  1.00  0.00     0.211 C 
ENDBRANCH  20  24
ENDBRANCH  15  17
ENDBRANCH   1  15
BRANCH   7  26
HETATM   26  C11 UNL     1       9.947  -3.872  32.814  1.00  0.00     0.023 A 
HETATM   27  C12 UNL     1      10.939  -2.967  32.395  1.00  0.00     0.046 A 
HETATM   28 CL1  UNL     1      11.089  -2.475  30.741  1.00  0.00    -0.083 Cl
HETATM   29  C13 UNL     1      11.856  -2.434  33.308  1.00  0.00     0.025 A 
HETATM   30  C14 UNL     1      11.797  -2.795  34.653  1.00  0.00     0.003 A 
HETATM   31  C15 UNL     1      10.822  -3.690  35.086  1.00  0.00     0.025 A 
HETATM   32  C16 UNL     1       9.903  -4.225  34.176  1.00  0.00     0.046 A 
HETATM   33 CL2  UNL     1       8.730  -5.339  34.794  1.00  0.00    -0.083 Cl
ENDBRANCH   7  26
TORSDOF 4
ENDMDL
MODEL 3
REMARK minimizedAffinity -9.80775738
REMARK  4 active torsions:
REMARK  status: ('A' for Active; 'I' for Inactive)
REMARK    1  A    between atoms: O1_2  and  C2_3 
REMARK    2  A    between atoms: C5_6  and  N1_7 
REMARK    3  A    between atoms: N1_7  and  C6_8 
REMARK    4  A    between atoms: C10_14  and  C11_15 
ROOT
HETATM    1  C6  UNL     1       4.749  -5.027  29.258  1.00  0.00     0.684 A 
HETATM    2  N2  UNL     1       4.477  -3.935  29.985  1.00  0.00    -0.201 N 
ATOM      3  H2  UNL     1       3.580  -3.457  29.907  1.00  0.00     0.183 HD
HETATM    4  C7  UNL     1       5.433  -3.495  30.824  1.00  0.00     0.121 A 
HETATM    5  C8  UNL     1       6.657  -4.102  30.970  1.00  0.00     0.026 A 
HETATM    6  C9  UNL     1       7.684  -3.621  31.878  1.00  0.00     0.034 A 
HETATM    7  C10 UNL     1       8.854  -4.275  31.958  1.00  0.00     0.047 A 
HETATM    8  C17 UNL     1       9.111  -5.495  31.119  1.00  0.00     0.260 A 
HETATM    9  O2  UNL     1      10.193  -6.074  31.214  1.00  0.00    -0.267 OA
HETATM   10  N3  UNL     1       8.093  -5.904  30.273  1.00  0.00    -0.303 N 
HETATM   11  C18 UNL     1       8.276  -7.076  29.435  1.00  0.00     0.161 C 
HETATM   12  C19 UNL     1       6.854  -5.219  30.182  1.00  0.00     0.137 A 
HETATM   13  N4  UNL     1       5.915  -5.685  29.331  1.00  0.00    -0.175 N 
ATOM     14  H4  UNL     1       6.087  -6.513  28.762  1.00  0.00     0.186 HD
ENDROOT
BRANCH   1  15
HETATM   15  N1  UNL     1       3.830  -5.563  28.361  1.00  0.00    -0.190 N 
HETATM   16  H6  UNL     1       3.387  -4.807  27.858  1.00  0.00     0.184 HD
BRANCH  15  17
HETATM   17  C5  UNL     1       3.430  -6.863  28.046  1.00  0.00     0.064 A 
HETATM   18  C4  UNL     1       4.296  -7.887  27.668  1.00  0.00     0.036 A 
HETATM   19  C3  UNL     1       3.803  -9.160  27.370  1.00  0.00     0.058 A 
HETATM   20  C2  UNL     1       2.440  -9.381  27.459  1.00  0.00     0.141 A 
HETATM   21  N5  UNL     1       1.557  -8.429  27.819  1.00  0.00    -0.345 N 
HETATM   22  C20 UNL     1       2.075  -7.208  28.100  1.00  0.00     0.120 A 
ATOM     23  H5  UNL     1       0.556  -8.617  27.875  1.00  0.00     0.167 HD
BRANCH  20  24
HETATM   24  O1  UNL     1       2.004 -10.654  27.155  1.00  0.00    -0.341 OA
HETATM   25  C1  UNL     1       3.062 -11.529  26.777  1.00  0.00     0.211 C 
ENDBRANCH  20  24
ENDBRANCH  15  17
ENDBRANCH   1  15
BRANCH   7  26
HETATM   26  C11 UNL     1       9.902  -3.792  32.878  1.00  0.00     0.023 A 
HETATM   27  C12 UNL     1      10.921  -2.933  32.427  1.00  0.00     0.046 A 
HETATM   28 CL1  UNL     1      11.023  -2.424  30.775  1.00  0.00    -0.083 Cl
HETATM   29  C13 UNL     1      11.905  -2.464  33.305  1.00  0.00     0.025 A 
HETATM   30  C14 UNL     1      11.886  -2.842  34.646  1.00  0.00     0.003 A 
HETATM   31  C15 UNL     1      10.886  -3.692  35.111  1.00  0.00     0.025 A 
HETATM   32  C16 UNL     1       9.900  -4.164  34.236  1.00  0.00     0.046 A 
HETATM   33 CL2  UNL     1       8.698  -5.225  34.891  1.00  0.00    -0.083 Cl
ENDBRANCH   7  26
TORSDOF 4
ENDMDL
MODEL 4
REMARK minimizedAffinity -9.72533607
REMARK  4 active torsions:
REMARK  status: ('A' for Active; 'I' for Inactive)
REMARK    1  A    between atoms: O1_2  and  C2_3 
REMARK    2  A    between atoms: C5_6  and  N1_7 
REMARK    3  A    between atoms: N1_7  and  C6_8 
REMARK    4  A    between atoms: C10_14  and  C11_15 
ROOT
HETATM    1  C6  UNL     1       5.456  -6.418  28.790  1.00  0.00     0.684 A 
HETATM    2  N2  UNL     1       4.944  -5.355  29.423  1.00  0.00    -0.201 N 
ATOM      3  H2  UNL     1       3.986  -5.049  29.255  1.00  0.00     0.183 HD
HETATM    4  C7  UNL     1       5.743  -4.704  30.290  1.00  0.00     0.121 A 
HETATM    5  C8  UNL     1       7.040  -5.074  30.554  1.00  0.00     0.026 A 
HETATM    6  C9  UNL     1       7.896  -4.368  31.491  1.00  0.00     0.034 A 
HETATM    7  C10 UNL     1       9.153  -4.796  31.690  1.00  0.00     0.047 A 
HETATM    8  C17 UNL     1       9.681  -5.996  30.955  1.00  0.00     0.260 A 
HETATM    9  O2  UNL     1      10.837  -6.365  31.157  1.00  0.00    -0.267 OA
HETATM   10  N3  UNL     1       8.816  -6.627  30.074  1.00  0.00    -0.303 N 
HETATM   11  C18 UNL     1       9.263  -7.792  29.332  1.00  0.00     0.161 C 
HETATM   12  C19 UNL     1       7.487  -6.180  29.859  1.00  0.00     0.137 A 
HETATM   13  N4  UNL     1       6.710  -6.853  28.983  1.00  0.00    -0.175 N 
ATOM     14  H4  UNL     1       7.066  -7.667  28.483  1.00  0.00     0.186 HD
ENDROOT
BRANCH   1  15
HETATM   15  N1  UNL     1       4.714  -7.159  27.875  1.00  0.00    -0.190 N 
HETATM   16  H6  UNL     1       5.315  -7.423  27.107  1.00  0.00     0.184 HD
BRANCH  15  17
HETATM   17  C5  UNL     1       3.384  -7.579  27.821  1.00  0.00     0.064 A 
HETATM   18  C4  UNL     1       2.974  -8.865  27.471  1.00  0.00     0.036 A 
HETATM   19  C3  UNL     1       1.616  -9.194  27.444  1.00  0.00     0.058 A 
HETATM   20  C2  UNL     1       0.691  -8.219  27.772  1.00  0.00     0.141 A 
HETATM   21  N5  UNL     1       1.029  -6.962  28.118  1.00  0.00    -0.345 N 
HETATM   22  C20 UNL     1       2.356  -6.682  28.133  1.00  0.00     0.120 A 
ATOM     23  H5  UNL     1       0.327  -6.261  28.354  1.00  0.00     0.167 HD
BRANCH  20  24
HETATM   24  O1  UNL     1      -0.637  -8.595  27.731  1.00  0.00    -0.341 OA
HETATM   25  C1  UNL     1      -0.850  -9.930  28.174  1.00  0.00     0.211 C 
ENDBRANCH  20  24
ENDBRANCH  15  17
ENDBRANCH   1  15
BRANCH   7  26
HETATM   26  C11 UNL     1      10.029  -4.084  32.641  1.00  0.00     0.023 A 
HETATM   27  C12 UNL     1       9.962  -4.345  34.021  1.00  0.00     0.046 A 
HETATM   28 CL1  UNL     1       8.836  -5.483  34.683  1.00  0.00    -0.083 Cl
HETATM   29  C13 UNL     1      10.804  -3.680  34.919  1.00  0.00     0.025 A 
HETATM   30  C14 UNL     1      11.727  -2.745  34.454  1.00  0.00     0.003 A 
HETATM   31  C15 UNL     1      11.808  -2.473  33.090  1.00  0.00     0.025 A 
HETATM   32  C16 UNL     1      10.967  -3.136  32.189  1.00  0.00     0.046 A 
HETATM   33 CL2  UNL     1      11.123  -2.732  30.512  1.00  0.00    -0.083 Cl
ENDBRANCH   7  26
TORSDOF 4
ENDMDL
MODEL 5
REMARK minimizedAffinity -9.37369251
REMARK  4 active torsions:
REMARK  status: ('A' for Active; 'I' for Inactive)
REMARK    1  A    between atoms: O1_2  and  C2_3 
REMARK    2  A    between atoms: C5_6  and  N1_7 
REMARK    3  A    between atoms: N1_7  and  C6_8 
REMARK    4  A    between atoms: C10_14  and  C11_15 
ROOT
HETATM    1  C6  UNL     1       6.819  -7.002  28.128  1.00  0.00     0.684 A 
HETATM    2  N2  UNL     1       8.010  -7.597  28.277  1.00  0.00    -0.201 N 
ATOM      3  H2  UNL     1       8.281  -8.391  27.698  1.00  0.00     0.183 HD
HETATM    4  C7  UNL     1       8.835  -7.106  29.221  1.00  0.00     0.121 A 
HETATM    5  C8  UNL     1       8.521  -6.038  30.027  1.00  0.00     0.026 A 
HETATM    6  C9  UNL     1       9.417  -5.514  31.043  1.00  0.00     0.034 A 
HETATM    7  C10 UNL     1       9.029  -4.467  31.789  1.00  0.00     0.047 A 
HETATM    8  C17 UNL     1       7.682  -3.834  31.583  1.00  0.00     0.260 A 
HETATM    9  O2  UNL     1       7.354  -2.876  32.281  1.00  0.00    -0.267 OA
HETATM   10  N3  UNL     1       6.873  -4.380  30.599  1.00  0.00    -0.303 N 
HETATM   11  C18 UNL     1       5.558  -3.815  30.348  1.00  0.00     0.161 C 
HETATM   12  C19 UNL     1       7.275  -5.486  29.807  1.00  0.00     0.137 A 
HETATM   13  N4  UNL     1       6.425  -5.956  28.869  1.00  0.00    -0.175 N 
ATOM     14  H4  UNL     1       5.510  -5.527  28.727  1.00  0.00     0.186 HD
ENDROOT
BRANCH   1  15
HETATM   15  N1  UNL     1       5.893  -7.431  27.182  1.00  0.00    -0.190 N 
HETATM   16  H6  UNL     1       6.011  -6.885  26.341  1.00  0.00     0.184 HD
BRANCH  15  17
HETATM   17  C5  UNL     1       4.897  -8.409  27.177  1.00  0.00     0.064 A 
HETATM   18  C4  UNL     1       3.553  -8.172  27.461  1.00  0.00     0.036 A 
HETATM   19  C3  UNL     1       2.626  -9.216  27.431  1.00  0.00     0.058 A 
HETATM   20  C2  UNL     1       3.070 -10.488  27.115  1.00  0.00     0.141 A 
HETATM   21  N5  UNL     1       4.355 -10.776  26.832  1.00  0.00    -0.345 N 
HETATM   22  C20 UNL     1       5.223  -9.735  26.871  1.00  0.00     0.120 A 
ATOM     23  H5  UNL     1       4.657 -11.723  26.603  1.00  0.00     0.167 HD
BRANCH  20  24
HETATM   24  O1  UNL     1       2.114 -11.484  27.099  1.00  0.00    -0.341 OA
HETATM   25  C1  UNL     1       0.827 -11.013  26.716  1.00  0.00     0.211 C 
ENDBRANCH  20  24
ENDBRANCH  15  17
ENDBRANCH   1  15
BRANCH   7  26
HETATM   26  C11 UNL     1       9.934  -3.929  32.823  1.00  0.00     0.023 A 
HETATM   27  C12 UNL     1       9.821  -4.335  34.165  1.00  0.00     0.046 A 
HETATM   28 CL1  UNL     1       8.604  -5.454  34.682  1.00  0.00    -0.083 Cl
HETATM   29  C13 UNL     1      10.691  -3.836  35.142  1.00  0.00     0.025 A 
HETATM   30  C14 UNL     1      11.687  -2.925  34.794  1.00  0.00     0.003 A 
HETATM   31  C15 UNL     1      11.814  -2.511  33.470  1.00  0.00     0.025 A 
HETATM   32  C16 UNL     1      10.946  -3.009  32.491  1.00  0.00     0.046 A 
HETATM   33 CL2  UNL     1      11.165  -2.435  30.871  1.00  0.00    -0.083 Cl
ENDBRANCH   7  26
TORSDOF 4
ENDMDL
MODEL 6
REMARK minimizedAffinity -8.9919548
REMARK  4 active torsions:
REMARK  status: ('A' for Active; 'I' for Inactive)
REMARK    1  A    between atoms: O1_2  and  C2_3 
REMARK    2  A    between atoms: C5_6  and  N1_7 
REMARK    3  A    between atoms: N1_7  and  C6_8 
REMARK    4  A    between atoms: C10_14  and  C11_15 
ROOT
HETATM    1  C6  UNL     1       6.072  -6.980  28.421  1.00  0.00     0.684 A 
HETATM    2  N2  UNL     1       7.213  -7.673  28.527  1.00  0.00    -0.201 N 
ATOM      3  H2  UNL     1       7.367  -8.525  27.987  1.00  0.00     0.183 HD
HETATM    4  C7  UNL     1       8.148  -7.204  29.373  1.00  0.00     0.121 A 
HETATM    5  C8  UNL     1       7.993  -6.063  30.123  1.00  0.00     0.026 A 
HETATM    6  C9  UNL     1       9.008  -5.562  31.034  1.00  0.00     0.034 A 
HETATM    7  C10 UNL     1       8.773  -4.438  31.730  1.00  0.00     0.047 A 
HETATM    8  C17 UNL     1       7.476  -3.696  31.576  1.00  0.00     0.260 A 
HETATM    9  O2  UNL     1       7.290  -2.668  32.227  1.00  0.00    -0.267 OA
HETATM   10  N3  UNL     1       6.548  -4.224  30.692  1.00  0.00    -0.303 N 
HETATM   11  C18 UNL     1       5.274  -3.555  30.496  1.00  0.00     0.161 C 
HETATM   12  C19 UNL     1       6.788  -5.411  29.954  1.00  0.00     0.137 A 
HETATM   13  N4  UNL     1       5.830  -5.857  29.113  1.00  0.00    -0.175 N 
ATOM     14  H4  UNL     1       4.949  -5.354  29.006  1.00  0.00     0.186 HD
ENDROOT
BRANCH   1  15
HETATM   15  N1  UNL     1       5.042  -7.379  27.575  1.00  0.00    -0.190 N 
HETATM   16  H6  UNL     1       4.612  -6.557  27.176  1.00  0.00     0.184 HD
BRANCH  15  17
HETATM   17  C5  UNL     1       4.524  -8.620  27.200  1.00  0.00     0.064 A 
HETATM   18  C4  UNL     1       5.239  -9.602  26.516  1.00  0.00     0.036 A 
HETATM   19  C3  UNL     1       4.634 -10.816  26.181  1.00  0.00     0.058 A 
HETATM   20  C2  UNL     1       3.315 -11.022  26.542  1.00  0.00     0.141 A 
HETATM   21  N5  UNL     1       2.576 -10.110  27.202  1.00  0.00    -0.345 N 
HETATM   22  C20 UNL     1       3.198  -8.945  27.510  1.00  0.00     0.120 A 
ATOM     23  H5  UNL     1       1.604 -10.286  27.456  1.00  0.00     0.167 HD
BRANCH  20  24
HETATM   24  O1  UNL     1       2.765 -12.238  26.188  1.00  0.00    -0.341 OA
HETATM   25  C1  UNL     1       3.716 -13.134  25.623  1.00  0.00     0.211 C 
ENDBRANCH  20  24
ENDBRANCH  15  17
ENDBRANCH   1  15
BRANCH   7  26
HETATM   26  C11 UNL     1       9.800  -3.923  32.658  1.00  0.00     0.023 A 
HETATM   27  C12 UNL     1      10.801  -3.042  32.211  1.00  0.00     0.046 A 
HETATM   28 CL1  UNL     1      10.907  -2.541  30.557  1.00  0.00    -0.083 Cl
HETATM   29  C13 UNL     1      11.764  -2.542  33.096  1.00  0.00     0.025 A 
HETATM   30  C14 UNL     1      11.741  -2.912  34.439  1.00  0.00     0.003 A 
HETATM   31  C15 UNL     1      10.757  -3.784  34.900  1.00  0.00     0.025 A 
HETATM   32  C16 UNL     1       9.793  -4.285  34.018  1.00  0.00     0.046 A 
HETATM   33 CL2  UNL     1       8.611  -5.372  34.668  1.00  0.00    -0.083 Cl
ENDBRANCH   7  26
TORSDOF 4
ENDMDL
MODEL 7
REMARK minimizedAffinity -8.79970074
REMARK  4 active torsions:
REMARK  status: ('A' for Active; 'I' for Inactive)
REMARK    1  A    between atoms: O1_2  and  C2_3 
REMARK    2  A    between atoms: C5_6  and  N1_7 
REMARK    3  A    between atoms: N1_7  and  C6_8 
REMARK    4  A    between atoms: C10_14  and  C11_15 
ROOT
HETATM    1  C6  UNL     1       4.922  -6.222  28.821  1.00  0.00     0.684 A 
HETATM    2  N2  UNL     1       4.482  -5.141  29.477  1.00  0.00    -0.201 N 
ATOM      3  H2  UNL     1       3.530  -4.796  29.350  1.00  0.00     0.183 HD
HETATM    4  C7  UNL     1       5.342  -4.528  30.311  1.00  0.00     0.121 A 
HETATM    5  C8  UNL     1       6.632  -4.951  30.521  1.00  0.00     0.026 A 
HETATM    6  C9  UNL     1       7.555  -4.284  31.423  1.00  0.00     0.034 A 
HETATM    7  C10 UNL     1       8.800  -4.765  31.568  1.00  0.00     0.047 A 
HETATM    8  C17 UNL     1       9.247  -5.982  30.808  1.00  0.00     0.260 A 
HETATM    9  O2  UNL     1      10.394  -6.400  30.962  1.00  0.00    -0.267 OA
HETATM   10  N3  UNL     1       8.321  -6.573  29.963  1.00  0.00    -0.303 N 
HETATM   11  C18 UNL     1       8.689  -7.753  29.200  1.00  0.00     0.161 C 
HETATM   12  C19 UNL     1       7.004  -6.071  29.804  1.00  0.00     0.137 A 
HETATM   13  N4  UNL     1       6.164  -6.708  28.960  1.00  0.00    -0.175 N 
ATOM     14  H4  UNL     1       6.465  -7.535  28.444  1.00  0.00     0.186 HD
ENDROOT
BRANCH   1  15
HETATM   15  N1  UNL     1       4.113  -6.928  27.936  1.00  0.00    -0.190 N 
HETATM   16  H6  UNL     1       3.234  -6.441  27.840  1.00  0.00     0.184 HD
BRANCH  15  17
HETATM   17  C5  UNL     1       4.276  -8.107  27.205  1.00  0.00     0.064 A 
HETATM   18  C4  UNL     1       3.581  -9.290  27.446  1.00  0.00     0.036 A 
HETATM   19  C3  UNL     1       3.812 -10.422  26.660  1.00  0.00     0.058 A 
HETATM   20  C2  UNL     1       4.742 -10.342  25.640  1.00  0.00     0.141 A 
HETATM   21  N5  UNL     1       5.443  -9.226  25.361  1.00  0.00    -0.345 N 
HETATM   22  C20 UNL     1       5.190  -8.149  26.146  1.00  0.00     0.120 A 
ATOM     23  H5  UNL     1       6.125  -9.193  24.603  1.00  0.00     0.167 HD
BRANCH  20  24
HETATM   24  O1  UNL     1       4.932 -11.487  24.893  1.00  0.00    -0.341 OA
HETATM   25  C1  UNL     1       6.234 -12.041  25.046  1.00  0.00     0.211 C 
ENDBRANCH  20  24
ENDBRANCH  15  17
ENDBRANCH   1  15
BRANCH   7  26
HETATM   26  C11 UNL     1       9.744  -4.093  32.483  1.00  0.00     0.023 A 
HETATM   27  C12 UNL     1       9.757  -4.394  33.857  1.00  0.00     0.046 A 
HETATM   28 CL1  UNL     1       8.656  -5.535  34.553  1.00  0.00    -0.083 Cl
HETATM   29  C13 UNL     1      10.663  -3.767  34.720  1.00  0.00     0.025 A 
HETATM   30  C14 UNL     1      11.570  -2.832  34.226  1.00  0.00     0.003 A 
HETATM   31  C15 UNL     1      11.572  -2.521  32.868  1.00  0.00     0.025 A 
HETATM   32  C16 UNL     1      10.667  -3.145  32.002  1.00  0.00     0.046 A 
HETATM   33 CL2  UNL     1      10.727  -2.694  30.331  1.00  0.00    -0.083 Cl
ENDBRANCH   7  26
TORSDOF 4
ENDMDL
MODEL 8
REMARK minimizedAffinity -8.54422092
REMARK  4 active torsions:
REMARK  status: ('A' for Active; 'I' for Inactive)
REMARK    1  A    between atoms: O1_2  and  C2_3 
REMARK    2  A    between atoms: C5_6  and  N1_7 
REMARK    3  A    between atoms: N1_7  and  C6_8 
REMARK    4  A    between atoms: C10_14  and  C11_15 
ROOT
HETATM    1  C6  UNL     1       6.105  -6.068  28.518  1.00  0.00     0.684 A 
HETATM    2  N2  UNL     1       5.558  -5.025  29.156  1.00  0.00    -0.201 N 
ATOM      3  H2  UNL     1       4.635  -4.674  28.903  1.00  0.00     0.183 HD
HETATM    4  C7  UNL     1       6.274  -4.458  30.145  1.00  0.00     0.121 A 
HETATM    5  C8  UNL     1       7.520  -4.892  30.528  1.00  0.00     0.026 A 
HETATM    6  C9  UNL     1       8.287  -4.275  31.597  1.00  0.00     0.034 A 
HETATM    7  C10 UNL     1       9.499  -4.762  31.906  1.00  0.00     0.047 A 
HETATM    8  C17 UNL     1      10.069  -5.934  31.159  1.00  0.00     0.260 A 
HETATM    9  O2  UNL     1      11.183  -6.358  31.465  1.00  0.00    -0.267 OA
HETATM   10  N3  UNL     1       9.290  -6.479  30.150  1.00  0.00    -0.303 N 
HETATM   11  C18 UNL     1       9.782  -7.614  29.390  1.00  0.00     0.161 C 
HETATM   12  C19 UNL     1       8.009  -5.970  29.818  1.00  0.00     0.137 A 
HETATM   13  N4  UNL     1       7.315  -6.560  28.820  1.00  0.00    -0.175 N 
ATOM     14  H4  UNL     1       7.700  -7.356  28.313  1.00  0.00     0.186 HD
ENDROOT
BRANCH   1  15
HETATM   15  N1  UNL     1       5.449  -6.725  27.482  1.00  0.00    -0.190 N 
HETATM   16  H6  UNL     1       4.712  -6.128  27.132  1.00  0.00     0.184 HD
BRANCH  15  17
HETATM   17  C5  UNL     1       5.604  -7.972  26.873  1.00  0.00     0.064 A 
HETATM   18  C4  UNL     1       4.816  -9.089  27.145  1.00  0.00     0.036 A 
HETATM   19  C3  UNL     1       5.048 -10.298  26.485  1.00  0.00     0.058 A 
HETATM   20  C2  UNL     1       6.072 -10.363  25.558  1.00  0.00     0.141 A 
HETATM   21  N5  UNL     1       6.866  -9.317  25.256  1.00  0.00    -0.345 N 
HETATM   22  C20 UNL     1       6.609  -8.161  25.917  1.00  0.00     0.120 A 
ATOM     23  H5  UNL     1       7.616  -9.390  24.569  1.00  0.00     0.167 HD
BRANCH  20  24
HETATM   24  O1  UNL     1       6.259 -11.580  24.934  1.00  0.00    -0.341 OA
HETATM   25  C1  UNL     1       5.097 -12.039  24.253  1.00  0.00     0.211 C 
ENDBRANCH  20  24
ENDBRANCH  15  17
ENDBRANCH   1  15
BRANCH   7  26
HETATM   26  C11 UNL     1      10.284  -4.140  32.991  1.00  0.00     0.023 A 
HETATM   27  C12 UNL     1      11.350  -3.269  32.704  1.00  0.00     0.046 A 
HETATM   28 CL1  UNL     1      11.821  -2.904  31.077  1.00  0.00    -0.083 Cl
HETATM   29  C13 UNL     1      12.083  -2.668  33.734  1.00  0.00     0.025 A 
HETATM   30  C14 UNL     1      11.762  -2.925  35.065  1.00  0.00     0.003 A 
HETATM   31  C15 UNL     1      10.709  -3.786  35.369  1.00  0.00     0.025 A 
HETATM   32  C16 UNL     1       9.975  -4.388  34.341  1.00  0.00     0.046 A 
HETATM   33 CL2  UNL     1       8.689  -5.453  34.803  1.00  0.00    -0.083 Cl
ENDBRANCH   7  26
TORSDOF 4
ENDMDL
MODEL 9
REMARK minimizedAffinity -8.12160206
REMARK  4 active torsions:
REMARK  status: ('A' for Active; 'I' for Inactive)
REMARK    1  A    between atoms: O1_2  and  C2_3 
REMARK    2  A    between atoms: C5_6  and  N1_7 
REMARK    3  A    between atoms: N1_7  and  C6_8 
REMARK    4  A    between atoms: C10_14  and  C11_15 
ROOT
HETATM    1  C6  UNL     1       4.153  -7.267  28.201  1.00  0.00     0.684 A 
HETATM    2  N2  UNL     1       3.901  -5.980  28.477  1.00  0.00    -0.201 N 
ATOM      3  H2  UNL     1       2.981  -5.573  28.311  1.00  0.00     0.183 HD
HETATM    4  C7  UNL     1       4.910  -5.245  28.980  1.00  0.00     0.121 A 
HETATM    5  C8  UNL     1       6.168  -5.742  29.224  1.00  0.00     0.026 A 
HETATM    6  C9  UNL     1       7.251  -4.943  29.768  1.00  0.00     0.034 A 
HETATM    7  C10 UNL     1       8.451  -5.509  29.974  1.00  0.00     0.047 A 
HETATM    8  C17 UNL     1       8.683  -6.957  29.648  1.00  0.00     0.260 A 
HETATM    9  O2  UNL     1       9.793  -7.449  29.847  1.00  0.00    -0.267 OA
HETATM   10  N3  UNL     1       7.610  -7.667  29.131  1.00  0.00    -0.303 N 
HETATM   11  C18 UNL     1       7.767  -9.071  28.795  1.00  0.00     0.161 C 
HETATM   12  C19 UNL     1       6.340  -7.076  28.910  1.00  0.00     0.137 A 
HETATM   13  N4  UNL     1       5.348  -7.840  28.404  1.00  0.00    -0.175 N 
ATOM     14  H4  UNL     1       5.503  -8.823  28.182  1.00  0.00     0.186 HD
ENDROOT
BRANCH   1  15
HETATM   15  N1  UNL     1       3.180  -8.112  27.678  1.00  0.00    -0.190 N 
HETATM   16  H6  UNL     1       2.741  -8.613  28.438  1.00  0.00     0.184 HD
BRANCH  15  17
HETATM   17  C5  UNL     1       2.725  -8.383  26.386  1.00  0.00     0.064 A 
HETATM   18  C4  UNL     1       3.461  -9.061  25.414  1.00  0.00     0.036 A 
HETATM   19  C3  UNL     1       2.922  -9.286  24.145  1.00  0.00     0.058 A 
HETATM   20  C2  UNL     1       1.647  -8.824  23.875  1.00  0.00     0.141 A 
HETATM   21  N5  UNL     1       0.891  -8.164  24.773  1.00  0.00    -0.345 N 
HETATM   22  C20 UNL     1       1.449  -7.965  25.993  1.00  0.00     0.120 A 
ATOM     23  H5  UNL     1      -0.047  -7.831  24.548  1.00  0.00     0.167 HD
BRANCH  20  24
HETATM   24  O1  UNL     1       1.161  -9.072  22.607  1.00  0.00    -0.341 OA
HETATM   25  C1  UNL     1      -0.254  -8.944  22.519  1.00  0.00     0.211 C 
ENDBRANCH  20  24
ENDBRANCH  15  17
ENDBRANCH   1  15
BRANCH   7  26
HETATM   26  C11 UNL     1       9.557  -4.702  30.526  1.00  0.00     0.023 A 
HETATM   27  C12 UNL     1       9.699  -4.525  31.915  1.00  0.00     0.046 A 
HETATM   28 CL1  UNL     1       8.576  -5.207  33.043  1.00  0.00    -0.083 Cl
HETATM   29  C13 UNL     1      10.757  -3.773  32.438  1.00  0.00     0.025 A 
HETATM   30  C14 UNL     1      11.691  -3.189  31.584  1.00  0.00     0.003 A 
HETATM   31  C15 UNL     1      11.567  -3.354  30.207  1.00  0.00     0.025 A 
HETATM   32  C16 UNL     1      10.510  -4.105  29.680  1.00  0.00     0.046 A 
HETATM   33 CL2  UNL     1      10.422  -4.252  27.957  1.00  0.00    -0.083 Cl
ENDBRANCH   7  26
TORSDOF 4
ENDMDL
