MODEL 1
REMARK minimizedAffinity -10.1095972
REMARK CNNscore 0.927444458
REMARK CNNaffinity 7.99469376
REMARK  6 active torsions:
REMARK  status: ('A' for Active; 'I' for Inactive)
REMARK    1  A    between atoms: O1_2  and  C2_3 
REMARK    2  A    between atoms: C3_4  and  N1_5 
REMARK       I    between atoms: N1_5  and  C5_7 
REMARK    3  A    between atoms: C5_7  and  C6_9 
REMARK    4  A    between atoms: C6_9  and  N2_10 
REMARK    5  A    between atoms: C8_12  and  N4_33 
REMARK    6  A    between atoms: C9_14  and  N3_16 
ROOT
HETATM    1  C2  UNL     1       9.761  -7.730  27.061  1.00  0.00     0.199 C 
HETATM    2  C3  UNL     1      10.788  -8.555  26.256  1.00  0.00     0.124 C 
HETATM    3  C7  UNL     1      12.182  -7.955  26.460  1.00  0.00     0.082 C 
HETATM    4  C8  UNL     1      12.486  -7.785  27.954  1.00  0.00     0.233 C 
HETATM    5  O3  UNL     1      11.478  -8.296  28.829  1.00  0.00    -0.333 OA
HETATM    6  C9  UNL     1      10.098  -7.915  28.581  1.00  0.00     0.168 C 
HETATM    7  C10 UNL     1       9.382  -9.177  29.121  1.00  0.00     0.074 C 
ENDROOT
BRANCH   2   8
HETATM    8  N1  UNL     1      10.395  -8.821  24.849  1.00  0.00    -0.347 N 
HETATM    9  C4  UNL     1       9.155  -9.573  24.676  1.00  0.00     0.153 C 
HETATM   10  C5  UNL     1      11.174  -8.401  23.769  1.00  0.00     0.247 C 
HETATM   11  O2  UNL     1      12.195  -7.723  23.897  1.00  0.00    -0.271 OA
BRANCH  10  12
HETATM   12  C6  UNL     1      10.752  -8.816  22.350  1.00  0.00     0.369 C 
BRANCH  12  13
HETATM   13  N2  UNL     1       9.295  -8.704  22.175  1.00  0.00     0.087 N 
HETATM   14  H11 UNL     1       8.848  -9.289  22.885  1.00  0.00     0.313 HD
HETATM   15  H12 UNL     1       9.044  -9.123  21.281  1.00  0.00     0.313 HD
ENDBRANCH  12  13
ENDBRANCH  10  12
ENDBRANCH   2   8
BRANCH   1  16
HETATM   16  O1  UNL     1       9.890  -6.352  26.680  1.00  0.00    -0.384 OA
HETATM   17  C1  UNL     1      11.236  -5.919  26.549  1.00  0.00     0.202 C 
ENDBRANCH   1  16
BRANCH   6  18
HETATM   18  N3  UNL     1       9.790  -6.712  29.375  1.00  0.00    -0.308 N 
HETATM   19  C11 UNL     1      10.645  -5.970  30.188  1.00  0.00     0.049 A 
HETATM   20  C12 UNL     1      12.002  -6.122  30.535  1.00  0.00     0.030 A 
HETATM   21  C16 UNL     1       9.894  -4.904  30.720  1.00  0.00     0.004 A 
HETATM   22  C13 UNL     1      12.606  -5.171  31.365  1.00  0.00     0.002 A 
HETATM   23  C14 UNL     1      11.885  -4.095  31.861  1.00  0.00     0.001 A 
HETATM   24  C15 UNL     1      10.531  -3.958  31.553  1.00  0.00     0.014 A 
HETATM   25  C17 UNL     1       8.545  -5.074  30.303  1.00  0.00     0.015 A 
HETATM   26  C18 UNL     1       7.314  -4.438  30.528  1.00  0.00    -0.010 A 
HETATM   27  C28 UNL     1       8.524  -6.201  29.510  1.00  0.00     0.077 A 
HETATM   28  C19 UNL     1       6.089  -4.949  29.995  1.00  0.00     0.054 A 
HETATM   29  C30 UNL     1       7.022  -3.211  31.341  1.00  0.00     0.163 A 
HETATM   30  C20 UNL     1       5.977  -6.105  29.208  1.00  0.00     0.022 A 
HETATM   31  C29 UNL     1       5.015  -4.050  30.445  1.00  0.00     0.253 A 
HETATM   32  C21 UNL     1       4.964  -6.880  28.564  1.00  0.00     0.004 A 
HETATM   33  C27 UNL     1       7.178  -6.742  28.938  1.00  0.00     0.077 A 
HETATM   34  C22 UNL     1       3.559  -6.781  28.462  1.00  0.00     0.014 A 
HETATM   35  C26 UNL     1       5.598  -7.956  27.919  1.00  0.00     0.048 A 
HETATM   36  C23 UNL     1       2.836  -7.734  27.739  1.00  0.00     0.001 A 
HETATM   37  C24 UNL     1       3.487  -8.788  27.111  1.00  0.00     0.002 A 
HETATM   38  C25 UNL     1       4.875  -8.917  27.189  1.00  0.00     0.030 A 
HETATM   39  N4  UNL     1       6.959  -7.831  28.153  1.00  0.00    -0.316 N 
HETATM   40  O4  UNL     1       3.827  -4.125  30.209  1.00  0.00    -0.268 OA
HETATM   41  N5  UNL     1       5.600  -3.065  31.210  1.00  0.00    -0.353 N 
HETATM   42  H27 UNL     1       5.040  -2.338  31.634  1.00  0.00     0.163 HD
ENDBRANCH   6  18
TORSDOF 6
ENDMDL
MODEL 2
REMARK minimizedAffinity -9.84163761
REMARK CNNscore 0.870031416
REMARK CNNaffinity 7.89217567
REMARK  6 active torsions:
REMARK  status: ('A' for Active; 'I' for Inactive)
REMARK    1  A    between atoms: O1_2  and  C2_3 
REMARK    2  A    between atoms: C3_4  and  N1_5 
REMARK       I    between atoms: N1_5  and  C5_7 
REMARK    3  A    between atoms: C5_7  and  C6_9 
REMARK    4  A    between atoms: C6_9  and  N2_10 
REMARK    5  A    between atoms: C8_12  and  N4_33 
REMARK    6  A    between atoms: C9_14  and  N3_16 
ROOT
HETATM    1  C2  UNL     1      11.313  -8.443  28.647  1.00  0.00     0.199 C 
HETATM    2  C3  UNL     1      11.081  -9.925  28.284  1.00  0.00     0.124 C 
HETATM    3  C7  UNL     1       9.974 -10.492  29.178  1.00  0.00     0.082 C 
HETATM    4  C8  UNL     1       8.732  -9.592  29.138  1.00  0.00     0.233 C 
HETATM    5  O3  UNL     1       8.820  -8.495  28.227  1.00  0.00    -0.333 OA
HETATM    6  C9  UNL     1      10.007  -7.659  28.274  1.00  0.00     0.168 C 
HETATM    7  C10 UNL     1      10.071  -7.220  26.791  1.00  0.00     0.074 C 
ENDROOT
BRANCH   2   8
HETATM    8  N1  UNL     1      12.322 -10.737  28.194  1.00  0.00    -0.347 N 
HETATM    9  C4  UNL     1      13.322 -10.249  27.248  1.00  0.00     0.153 C 
HETATM   10  C5  UNL     1      12.504 -11.899  28.945  1.00  0.00     0.247 C 
HETATM   11  O2  UNL     1      11.692 -12.295  29.783  1.00  0.00    -0.271 OA
BRANCH  10  12
HETATM   12  C6  UNL     1      13.769 -12.740  28.707  1.00  0.00     0.369 C 
BRANCH  12  13
HETATM   13  N2  UNL     1      13.485 -13.891  27.835  1.00  0.00     0.087 N 
HETATM   14  H11 UNL     1      12.745 -14.443  28.276  1.00  0.00     0.313 HD
HETATM   15  H12 UNL     1      14.304 -14.498  27.822  1.00  0.00     0.313 HD
ENDBRANCH  12  13
ENDBRANCH  10  12
ENDBRANCH   2   8
BRANCH   1  16
HETATM   16  O1  UNL     1      11.568  -8.357  30.057  1.00  0.00    -0.384 OA
HETATM   17  C1  UNL     1      12.846  -8.846  30.437  1.00  0.00     0.202 C 
ENDBRANCH   1  16
BRANCH   6  18
HETATM   18  N3  UNL     1       9.753  -6.527  29.184  1.00  0.00    -0.308 N 
HETATM   19  C11 UNL     1      10.658  -5.860  30.009  1.00  0.00     0.049 A 
HETATM   20  C12 UNL     1      12.030  -6.047  30.267  1.00  0.00     0.030 A 
HETATM   21  C16 UNL     1       9.946  -4.841  30.670  1.00  0.00     0.004 A 
HETATM   22  C13 UNL     1      12.687  -5.174  31.141  1.00  0.00     0.002 A 
HETATM   23  C14 UNL     1      12.003  -4.141  31.765  1.00  0.00     0.001 A 
HETATM   24  C15 UNL     1      10.636  -3.973  31.545  1.00  0.00     0.014 A 
HETATM   25  C17 UNL     1       8.575  -4.969  30.314  1.00  0.00     0.015 A 
HETATM   26  C18 UNL     1       7.363  -4.350  30.660  1.00  0.00    -0.010 A 
HETATM   27  C28 UNL     1       8.501  -6.024  29.430  1.00  0.00     0.077 A 
HETATM   28  C19 UNL     1       6.107  -4.808  30.153  1.00  0.00     0.054 A 
HETATM   29  C30 UNL     1       7.127  -3.196  31.589  1.00  0.00     0.163 A 
HETATM   30  C20 UNL     1       5.942  -5.892  29.277  1.00  0.00     0.022 A 
HETATM   31  C29 UNL     1       5.067  -3.946  30.736  1.00  0.00     0.253 A 
HETATM   32  C21 UNL     1       4.889  -6.604  28.625  1.00  0.00     0.004 A 
HETATM   33  C27 UNL     1       7.121  -6.509  28.889  1.00  0.00     0.077 A 
HETATM   34  C22 UNL     1       3.482  -6.491  28.609  1.00  0.00     0.014 A 
HETATM   35  C26 UNL     1       5.478  -7.624  27.857  1.00  0.00     0.048 A 
HETATM   36  C23 UNL     1       2.712  -7.376  27.848  1.00  0.00     0.001 A 
HETATM   37  C24 UNL     1       3.319  -8.375  27.098  1.00  0.00     0.002 A 
HETATM   38  C25 UNL     1       4.708  -8.516  27.089  1.00  0.00     0.030 A 
HETATM   39  N4  UNL     1       6.851  -7.525  28.027  1.00  0.00    -0.316 N 
HETATM   40  O4  UNL     1       3.867  -3.996  30.559  1.00  0.00    -0.268 OA
HETATM   41  N5  UNL     1       5.701  -3.033  31.549  1.00  0.00    -0.353 N 
HETATM   42  H27 UNL     1       5.171  -2.343  32.063  1.00  0.00     0.163 HD
ENDBRANCH   6  18
TORSDOF 6
ENDMDL
MODEL 3
REMARK minimizedAffinity -9.62921047
REMARK CNNscore 0.854186833
REMARK CNNaffinity 7.72532797
REMARK  6 active torsions:
REMARK  status: ('A' for Active; 'I' for Inactive)
REMARK    1  A    between atoms: O1_2  and  C2_3 
REMARK    2  A    between atoms: C3_4  and  N1_5 
REMARK       I    between atoms: N1_5  and  C5_7 
REMARK    3  A    between atoms: C5_7  and  C6_9 
REMARK    4  A    between atoms: C6_9  and  N2_10 
REMARK    5  A    between atoms: C8_12  and  N4_33 
REMARK    6  A    between atoms: C9_14  and  N3_16 
ROOT
HETATM    1  C2  UNL     1      10.133  -8.800  26.777  1.00  0.00     0.199 C 
HETATM    2  C3  UNL     1      11.553  -8.208  26.647  1.00  0.00     0.124 C 
HETATM    3  C7  UNL     1      11.452  -6.683  26.548  1.00  0.00     0.082 C 
HETATM    4  C8  UNL     1      10.595  -6.122  27.690  1.00  0.00     0.233 C 
HETATM    5  O3  UNL     1      10.160  -7.093  28.642  1.00  0.00    -0.333 OA
HETATM    6  C9  UNL     1       9.544  -8.312  28.145  1.00  0.00     0.168 C 
HETATM    7  C10 UNL     1       9.963  -9.290  29.270  1.00  0.00     0.074 C 
ENDROOT
BRANCH   2   8
HETATM    8  N1  UNL     1      12.403  -8.870  25.626  1.00  0.00    -0.347 N 
HETATM    9  C4  UNL     1      12.477 -10.326  25.721  1.00  0.00     0.153 C 
HETATM   10  C5  UNL     1      13.103  -8.146  24.660  1.00  0.00     0.247 C 
HETATM   11  O2  UNL     1      13.011  -6.923  24.536  1.00  0.00    -0.271 OA
BRANCH  10  12
HETATM   12  C6  UNL     1      14.049  -8.901  23.712  1.00  0.00     0.369 C 
BRANCH  12  13
HETATM   13  N2  UNL     1      15.271  -8.123  23.453  1.00  0.00     0.087 N 
HETATM   14  H11 UNL     1      14.991  -7.221  23.061  1.00  0.00     0.313 HD
HETATM   15  H12 UNL     1      15.799  -8.587  22.713  1.00  0.00     0.313 HD
ENDBRANCH  12  13
ENDBRANCH  10  12
ENDBRANCH   2   8
BRANCH   1  16
HETATM   16  O1  UNL     1       9.339  -8.315  25.683  1.00  0.00    -0.384 OA
HETATM   17  C1  UNL     1       9.504  -9.057  24.484  1.00  0.00     0.202 C 
ENDBRANCH   1  16
BRANCH   6  18
HETATM   18  N3  UNL     1       8.084  -8.114  28.090  1.00  0.00    -0.308 N 
HETATM   19  C11 UNL     1       7.147  -8.801  27.318  1.00  0.00     0.049 A 
HETATM   20  C12 UNL     1       7.267  -9.830  26.363  1.00  0.00     0.030 A 
HETATM   21  C16 UNL     1       5.881  -8.266  27.626  1.00  0.00     0.004 A 
HETATM   22  C13 UNL     1       6.113 -10.350  25.770  1.00  0.00     0.002 A 
HETATM   23  C14 UNL     1       4.858  -9.858  26.096  1.00  0.00     0.001 A 
HETATM   24  C15 UNL     1       4.732  -8.813  27.012  1.00  0.00     0.014 A 
HETATM   25  C17 UNL     1       6.077  -7.173  28.514  1.00  0.00     0.015 A 
HETATM   26  C18 UNL     1       5.279  -6.194  29.129  1.00  0.00    -0.010 A 
HETATM   27  C28 UNL     1       7.434  -7.101  28.747  1.00  0.00     0.077 A 
HETATM   28  C19 UNL     1       5.842  -5.151  29.928  1.00  0.00     0.054 A 
HETATM   29  C30 UNL     1       3.792  -6.012  29.059  1.00  0.00     0.163 A 
HETATM   30  C20 UNL     1       7.211  -4.988  30.187  1.00  0.00     0.022 A 
HETATM   31  C29 UNL     1       4.726  -4.310  30.386  1.00  0.00     0.253 A 
HETATM   32  C21 UNL     1       8.081  -4.092  30.881  1.00  0.00     0.004 A 
HETATM   33  C27 UNL     1       8.028  -5.955  29.621  1.00  0.00     0.077 A 
HETATM   34  C22 UNL     1       7.888  -2.917  31.640  1.00  0.00     0.014 A 
HETATM   35  C26 UNL     1       9.395  -4.561  30.715  1.00  0.00     0.048 A 
HETATM   36  C23 UNL     1       8.983  -2.252  32.201  1.00  0.00     0.001 A 
HETATM   37  C24 UNL     1      10.272  -2.737  32.020  1.00  0.00     0.002 A 
HETATM   38  C25 UNL     1      10.500  -3.896  31.278  1.00  0.00     0.030 A 
HETATM   39  N4  UNL     1       9.326  -5.717  29.952  1.00  0.00    -0.316 N 
HETATM   40  O4  UNL     1       4.772  -3.322  31.091  1.00  0.00    -0.268 OA
HETATM   41  N5  UNL     1       3.568  -4.847  29.867  1.00  0.00    -0.353 N 
HETATM   42  H27 UNL     1       2.672  -4.417  30.049  1.00  0.00     0.163 HD
ENDBRANCH   6  18
TORSDOF 6
ENDMDL
MODEL 4
REMARK minimizedAffinity -7.66804743
REMARK CNNscore 0.829903245
REMARK CNNaffinity 6.40064287
REMARK  6 active torsions:
REMARK  status: ('A' for Active; 'I' for Inactive)
REMARK    1  A    between atoms: O1_2  and  C2_3 
REMARK    2  A    between atoms: C3_4  and  N1_5 
REMARK       I    between atoms: N1_5  and  C5_7 
REMARK    3  A    between atoms: C5_7  and  C6_9 
REMARK    4  A    between atoms: C6_9  and  N2_10 
REMARK    5  A    between atoms: C8_12  and  N4_33 
REMARK    6  A    between atoms: C9_14  and  N3_16 
ROOT
HETATM    1  C2  UNL     1       1.233   7.829  36.048  1.00  0.00     0.199 C 
HETATM    2  C3  UNL     1       0.081   7.883  35.022  1.00  0.00     0.124 C 
HETATM    3  C7  UNL     1      -0.827   6.666  35.226  1.00  0.00     0.082 C 
HETATM    4  C8  UNL     1      -1.247   6.545  36.697  1.00  0.00     0.233 C 
HETATM    5  O3  UNL     1      -0.801   7.612  37.535  1.00  0.00    -0.333 OA
HETATM    6  C9  UNL     1       0.601   7.992  37.473  1.00  0.00     0.168 C 
HETATM    7  C10 UNL     1       0.476   9.496  37.817  1.00  0.00     0.074 C 
ENDROOT
BRANCH   2   8
HETATM    8  N1  UNL     1       0.513   8.142  33.625  1.00  0.00    -0.347 N 
HETATM    9  C4  UNL     1       0.229   7.072  32.673  1.00  0.00     0.153 C 
HETATM   10  C5  UNL     1       1.168   9.318  33.257  1.00  0.00     0.247 C 
HETATM   11  O2  UNL     1       1.370  10.250  34.038  1.00  0.00    -0.271 OA
BRANCH  10  12
HETATM   12  C6  UNL     1       1.682   9.457  31.814  1.00  0.00     0.369 C 
BRANCH  12  13
HETATM   13  N2  UNL     1       3.115   9.133  31.729  1.00  0.00     0.087 N 
HETATM   14  H11 UNL     1       3.616   9.756  32.366  1.00  0.00     0.313 HD
HETATM   15  H12 UNL     1       3.446   9.377  30.795  1.00  0.00     0.313 HD
ENDBRANCH  12  13
ENDBRANCH  10  12
ENDBRANCH   2   8
BRANCH   1  16
HETATM   16  O1  UNL     1       1.887   6.557  35.928  1.00  0.00    -0.384 OA
HETATM   17  C1  UNL     1       3.053   6.588  35.117  1.00  0.00     0.202 C 
ENDBRANCH   1  16
BRANCH   6  18
HETATM   18  N3  UNL     1       1.339   7.240  38.504  1.00  0.00    -0.308 N 
HETATM   19  C11 UNL     1       0.853   6.274  39.385  1.00  0.00     0.049 A 
HETATM   20  C12 UNL     1      -0.433   5.743  39.603  1.00  0.00     0.030 A 
HETATM   21  C16 UNL     1       1.942   5.835  40.163  1.00  0.00     0.004 A 
HETATM   22  C13 UNL     1      -0.603   4.735  40.557  1.00  0.00     0.002 A 
HETATM   23  C14 UNL     1       0.470   4.266  41.300  1.00  0.00     0.001 A 
HETATM   24  C15 UNL     1       1.740   4.814  41.118  1.00  0.00     0.014 A 
HETATM   25  C17 UNL     1       3.071   6.625  39.814  1.00  0.00     0.015 A 
HETATM   26  C18 UNL     1       4.402   6.758  40.242  1.00  0.00    -0.010 A 
HETATM   27  C28 UNL     1       2.651   7.484  38.821  1.00  0.00     0.077 A 
HETATM   28  C19 UNL     1       5.274   7.756  39.705  1.00  0.00     0.054 A 
HETATM   29  C30 UNL     1       5.135   5.980  41.294  1.00  0.00     0.163 A 
HETATM   30  C20 UNL     1       4.916   8.688  38.718  1.00  0.00     0.022 A 
HETATM   31  C29 UNL     1       6.566   7.615  40.392  1.00  0.00     0.253 A 
HETATM   32  C21 UNL     1       5.493   9.784  38.006  1.00  0.00     0.004 A 
HETATM   33  C27 UNL     1       3.617   8.566  38.249  1.00  0.00     0.077 A 
HETATM   34  C22 UNL     1       6.755  10.418  38.022  1.00  0.00     0.014 A 
HETATM   35  C26 UNL     1       4.517  10.279  37.124  1.00  0.00     0.048 A 
HETATM   36  C23 UNL     1       7.008  11.505  37.179  1.00  0.00     0.001 A 
HETATM   37  C24 UNL     1       6.026  11.974  36.317  1.00  0.00     0.002 A 
HETATM   38  C25 UNL     1       4.768  11.371  36.273  1.00  0.00     0.030 A 
HETATM   39  N4  UNL     1       3.383   9.496  37.284  1.00  0.00    -0.316 N 
HETATM   40  O4  UNL     1       7.578   8.265  40.227  1.00  0.00    -0.268 OA
HETATM   41  N5  UNL     1       6.440   6.579  41.291  1.00  0.00    -0.353 N 
HETATM   42  H27 UNL     1       7.213   6.312  41.885  1.00  0.00     0.163 HD
ENDBRANCH   6  18
TORSDOF 6
ENDMDL
MODEL 5
REMARK minimizedAffinity -9.7727747
REMARK CNNscore 0.635986567
REMARK CNNaffinity 7.62377167
REMARK  6 active torsions:
REMARK  status: ('A' for Active; 'I' for Inactive)
REMARK    1  A    between atoms: O1_2  and  C2_3 
REMARK    2  A    between atoms: C3_4  and  N1_5 
REMARK       I    between atoms: N1_5  and  C5_7 
REMARK    3  A    between atoms: C5_7  and  C6_9 
REMARK    4  A    between atoms: C6_9  and  N2_10 
REMARK    5  A    between atoms: C8_12  and  N4_33 
REMARK    6  A    between atoms: C9_14  and  N3_16 
ROOT
HETATM    1  C2  UNL     1       7.287  -9.164  26.865  1.00  0.00     0.199 C 
HETATM    2  C3  UNL     1       8.653  -9.441  26.201  1.00  0.00     0.124 C 
HETATM    3  C7  UNL     1       9.367  -8.110  25.949  1.00  0.00     0.082 C 
HETATM    4  C8  UNL     1       9.405  -7.264  27.229  1.00  0.00     0.233 C 
HETATM    5  O3  UNL     1       8.872  -7.910  28.386  1.00  0.00    -0.333 OA
HETATM    6  C9  UNL     1       7.569  -8.545  28.278  1.00  0.00     0.168 C 
HETATM    7  C10 UNL     1       7.748  -9.680  29.315  1.00  0.00     0.074 C 
ENDROOT
BRANCH   2   8
HETATM    8  N1  UNL     1       8.598 -10.376  25.049  1.00  0.00    -0.347 N 
HETATM    9  C4  UNL     1       8.199 -11.744  25.372  1.00  0.00     0.153 C 
HETATM   10  C5  UNL     1       8.929  -9.978  23.753  1.00  0.00     0.247 C 
HETATM   11  O2  UNL     1       9.217  -8.817  23.458  1.00  0.00    -0.271 OA
BRANCH  10  12
HETATM   12  C6  UNL     1       8.954 -11.037  22.639  1.00  0.00     0.369 C 
BRANCH  12  13
HETATM   13  N2  UNL     1       9.591 -10.511  21.421  1.00  0.00     0.087 N 
HETATM   14  H11 UNL     1       9.076  -9.675  21.133  1.00  0.00     0.313 HD
HETATM   15  H12 UNL     1       9.457 -11.185  20.669  1.00  0.00     0.313 HD
ENDBRANCH  12  13
ENDBRANCH  10  12
ENDBRANCH   2   8
BRANCH   1  16
HETATM   16  O1  UNL     1       6.565  -8.235  26.042  1.00  0.00    -0.384 OA
HETATM   17  C1  UNL     1       5.815  -8.853  25.007  1.00  0.00     0.202 C 
ENDBRANCH   1  16
BRANCH   6  18
HETATM   18  N3  UNL     1       6.536  -7.574  28.682  1.00  0.00    -0.308 N 
HETATM   19  C11 UNL     1       5.188  -7.547  28.325  1.00  0.00     0.049 A 
HETATM   20  C12 UNL     1       4.407  -8.364  27.484  1.00  0.00     0.030 A 
HETATM   21  C16 UNL     1       4.607  -6.441  28.976  1.00  0.00     0.004 A 
HETATM   22  C13 UNL     1       3.040  -8.099  27.351  1.00  0.00     0.002 A 
HETATM   23  C14 UNL     1       2.450  -7.036  28.020  1.00  0.00     0.001 A 
HETATM   24  C15 UNL     1       3.224  -6.199  28.824  1.00  0.00     0.014 A 
HETATM   25  C17 UNL     1       5.646  -5.737  29.645  1.00  0.00     0.015 A 
HETATM   26  C18 UNL     1       5.768  -4.554  30.391  1.00  0.00    -0.010 A 
HETATM   27  C28 UNL     1       6.805  -6.447  29.416  1.00  0.00     0.077 A 
HETATM   28  C19 UNL     1       7.033  -4.083  30.861  1.00  0.00     0.054 A 
HETATM   29  C30 UNL     1       4.701  -3.579  30.792  1.00  0.00     0.163 A 
HETATM   30  C20 UNL     1       8.261  -4.727  30.644  1.00  0.00     0.022 A 
HETATM   31  C29 UNL     1       6.785  -2.822  31.577  1.00  0.00     0.253 A 
HETATM   32  C21 UNL     1       9.648  -4.536  30.931  1.00  0.00     0.004 A 
HETATM   33  C27 UNL     1       8.175  -5.916  29.937  1.00  0.00     0.077 A 
HETATM   34  C22 UNL     1      10.390  -3.536  31.597  1.00  0.00     0.014 A 
HETATM   35  C26 UNL     1      10.348  -5.628  30.391  1.00  0.00     0.048 A 
HETATM   36  C23 UNL     1      11.780  -3.645  31.705  1.00  0.00     0.001 A 
HETATM   37  C24 UNL     1      12.448  -4.736  31.162  1.00  0.00     0.002 A 
HETATM   38  C25 UNL     1      11.746  -5.743  30.498  1.00  0.00     0.030 A 
HETATM   39  N4  UNL     1       9.412  -6.467  29.804  1.00  0.00    -0.316 N 
HETATM   40  O4  UNL     1       7.591  -2.104  32.132  1.00  0.00    -0.268 OA
HETATM   41  N5  UNL     1       5.431  -2.576  31.515  1.00  0.00    -0.353 N 
HETATM   42  H27 UNL     1       5.035  -1.748  31.938  1.00  0.00     0.163 HD
ENDBRANCH   6  18
TORSDOF 6
ENDMDL
MODEL 6
REMARK minimizedAffinity -7.83559895
REMARK CNNscore 0.622165918
REMARK CNNaffinity 6.43218565
REMARK  6 active torsions:
REMARK  status: ('A' for Active; 'I' for Inactive)
REMARK    1  A    between atoms: O1_2  and  C2_3 
REMARK    2  A    between atoms: C3_4  and  N1_5 
REMARK       I    between atoms: N1_5  and  C5_7 
REMARK    3  A    between atoms: C5_7  and  C6_9 
REMARK    4  A    between atoms: C6_9  and  N2_10 
REMARK    5  A    between atoms: C8_12  and  N4_33 
REMARK    6  A    between atoms: C9_14  and  N3_16 
ROOT
HETATM    1  C2  UNL     1       3.121   9.859  35.465  1.00  0.00     0.199 C 
HETATM    2  C3  UNL     1       2.046   9.258  34.534  1.00  0.00     0.124 C 
HETATM    3  C7  UNL     1       2.082   7.731  34.647  1.00  0.00     0.082 C 
HETATM    4  C8  UNL     1       2.012   7.296  36.117  1.00  0.00     0.233 C 
HETATM    5  O3  UNL     1       1.833   8.365  37.048  1.00  0.00    -0.333 OA
HETATM    6  C9  UNL     1       2.706   9.522  36.939  1.00  0.00     0.168 C 
HETATM    7  C10 UNL     1       1.750  10.617  37.473  1.00  0.00     0.074 C 
ENDROOT
BRANCH   2   8
HETATM    8  N1  UNL     1       2.054   9.806  33.153  1.00  0.00    -0.347 N 
HETATM    9  C4  UNL     1       1.743  11.229  33.043  1.00  0.00     0.153 C 
HETATM   10  C5  UNL     1       2.317   9.008  32.039  1.00  0.00     0.247 C 
HETATM   11  O2  UNL     1       2.630   7.819  32.120  1.00  0.00    -0.271 OA
BRANCH  10  12
HETATM   12  C6  UNL     1       2.193   9.631  30.639  1.00  0.00     0.369 C 
BRANCH  12  13
HETATM   13  N2  UNL     1       0.891   9.313  30.031  1.00  0.00     0.087 N 
HETATM   14  H11 UNL     1       0.801   8.295  29.997  1.00  0.00     0.313 HD
HETATM   15  H12 UNL     1       0.907   9.616  29.057  1.00  0.00     0.313 HD
ENDBRANCH  12  13
ENDBRANCH  10  12
ENDBRANCH   2   8
BRANCH   1  16
HETATM   16  O1  UNL     1       4.384   9.256  35.146  1.00  0.00    -0.384 OA
HETATM   17  C1  UNL     1       5.051   9.873  34.055  1.00  0.00     0.202 C 
ENDBRANCH   1  16
BRANCH   6  18
HETATM   18  N3  UNL     1       3.871   9.317  37.818  1.00  0.00    -0.308 N 
HETATM   19  C11 UNL     1       5.133   9.906  37.732  1.00  0.00     0.049 A 
HETATM   20  C12 UNL     1       5.703  10.813  36.817  1.00  0.00     0.030 A 
HETATM   21  C16 UNL     1       5.898   9.410  38.806  1.00  0.00     0.004 A 
HETATM   22  C13 UNL     1       7.013  11.257  37.021  1.00  0.00     0.002 A 
HETATM   23  C14 UNL     1       7.761  10.806  38.098  1.00  0.00     0.001 A 
HETATM   24  C15 UNL     1       7.218   9.878  38.988  1.00  0.00     0.014 A 
HETATM   25  C17 UNL     1       5.116   8.432  39.480  1.00  0.00     0.015 A 
HETATM   26  C18 UNL     1       5.291   7.533  40.544  1.00  0.00    -0.010 A 
HETATM   27  C28 UNL     1       3.902   8.389  38.828  1.00  0.00     0.077 A 
HETATM   28  C19 UNL     1       4.280   6.593  40.916  1.00  0.00     0.054 A 
HETATM   29  C30 UNL     1       6.488   7.342  41.428  1.00  0.00     0.163 A 
HETATM   30  C20 UNL     1       3.033   6.464  40.286  1.00  0.00     0.022 A 
HETATM   31  C29 UNL     1       4.811   5.812  42.044  1.00  0.00     0.253 A 
HETATM   32  C21 UNL     1       1.856   5.659  40.372  1.00  0.00     0.004 A 
HETATM   33  C27 UNL     1       2.812   7.357  39.249  1.00  0.00     0.077 A 
HETATM   34  C22 UNL     1       1.453   4.583  41.194  1.00  0.00     0.014 A 
HETATM   35  C26 UNL     1       0.961   6.106  39.385  1.00  0.00     0.048 A 
HETATM   36  C23 UNL     1       0.199   3.991  41.015  1.00  0.00     0.001 A 
HETATM   37  C24 UNL     1      -0.666   4.452  40.031  1.00  0.00     0.002 A 
HETATM   38  C25 UNL     1      -0.302   5.515  39.202  1.00  0.00     0.030 A 
HETATM   39  N4  UNL     1       1.572   7.162  38.725  1.00  0.00    -0.316 N 
HETATM   40  O4  UNL     1       4.268   4.916  42.657  1.00  0.00    -0.268 OA
HETATM   41  N5  UNL     1       6.079   6.282  42.305  1.00  0.00    -0.353 N 
HETATM   42  H27 UNL     1       6.640   5.876  43.042  1.00  0.00     0.163 HD
ENDBRANCH   6  18
TORSDOF 6
ENDMDL
MODEL 7
REMARK minimizedAffinity -7.58809757
REMARK CNNscore 0.599300027
REMARK CNNaffinity 7.37618876
REMARK  6 active torsions:
REMARK  status: ('A' for Active; 'I' for Inactive)
REMARK    1  A    between atoms: O1_2  and  C2_3 
REMARK    2  A    between atoms: C3_4  and  N1_5 
REMARK       I    between atoms: N1_5  and  C5_7 
REMARK    3  A    between atoms: C5_7  and  C6_9 
REMARK    4  A    between atoms: C6_9  and  N2_10 
REMARK    5  A    between atoms: C8_12  and  N4_33 
REMARK    6  A    between atoms: C9_14  and  N3_16 
ROOT
HETATM    1  C2  UNL     1      10.026 -10.328  26.029  1.00  0.00     0.199 C 
HETATM    2  C3  UNL     1       9.336 -11.553  25.391  1.00  0.00     0.124 C 
HETATM    3  C7  UNL     1       8.203 -12.024  26.307  1.00  0.00     0.082 C 
HETATM    4  C8  UNL     1       7.282 -10.853  26.674  1.00  0.00     0.233 C 
HETATM    5  O3  UNL     1       7.599  -9.619  26.028  1.00  0.00    -0.333 OA
HETATM    6  C9  UNL     1       8.978  -9.163  26.061  1.00  0.00     0.168 C 
HETATM    7  C10 UNL     1       9.025  -8.387  24.722  1.00  0.00     0.074 C 
ENDROOT
BRANCH   2   8
HETATM    8  N1  UNL     1      10.270 -12.608  24.919  1.00  0.00    -0.347 N 
HETATM    9  C4  UNL     1      11.104 -12.240  23.778  1.00  0.00     0.153 C 
HETATM   10  C5  UNL     1      10.324 -13.870  25.512  1.00  0.00     0.247 C 
HETATM   11  O2  UNL     1       9.664 -14.177  26.506  1.00  0.00    -0.271 OA
BRANCH  10  12
HETATM   12  C6  UNL     1      11.238 -14.939  24.890  1.00  0.00     0.369 C 
BRANCH  12  13
HETATM   13  N2  UNL     1      10.458 -15.913  24.109  1.00  0.00     0.087 N 
HETATM   14  H11 UNL     1       9.763 -16.331  24.733  1.00  0.00     0.313 HD
HETATM   15  H12 UNL     1      11.075 -16.678  23.840  1.00  0.00     0.313 HD
ENDBRANCH  12  13
ENDBRANCH  10  12
ENDBRANCH   2   8
BRANCH   1  16
HETATM   16  O1  UNL     1      10.430 -10.680  27.361  1.00  0.00    -0.384 OA
HETATM   17  C1  UNL     1      11.668 -11.374  27.418  1.00  0.00     0.202 C 
ENDBRANCH   1  16
BRANCH   6  18
HETATM   18  N3  UNL     1       9.155  -8.280  27.228  1.00  0.00    -0.308 N 
HETATM   19  C11 UNL     1      10.327  -7.999  27.930  1.00  0.00     0.049 A 
HETATM   20  C12 UNL     1      11.653  -8.457  27.796  1.00  0.00     0.030 A 
HETATM   21  C16 UNL     1       9.994  -7.087  28.949  1.00  0.00     0.004 A 
HETATM   22  C13 UNL     1      12.640  -7.953  28.649  1.00  0.00     0.002 A 
HETATM   23  C14 UNL     1      12.329  -7.023  29.631  1.00  0.00     0.001 A 
HETATM   24  C15 UNL     1      11.012  -6.593  29.795  1.00  0.00     0.014 A 
HETATM   25  C17 UNL     1       8.584  -6.904  28.923  1.00  0.00     0.015 A 
HETATM   26  C18 UNL     1       7.624  -6.214  29.681  1.00  0.00    -0.010 A 
HETATM   27  C28 UNL     1       8.113  -7.669  27.877  1.00  0.00     0.077 A 
HETATM   28  C19 UNL     1       6.224  -6.324  29.412  1.00  0.00     0.054 A 
HETATM   29  C30 UNL     1       7.827  -5.318  30.867  1.00  0.00     0.163 A 
HETATM   30  C20 UNL     1       5.662  -7.105  28.390  1.00  0.00     0.022 A 
HETATM   31  C29 UNL     1       5.527  -5.492  30.404  1.00  0.00     0.253 A 
HETATM   32  C21 UNL     1       4.374  -7.452  27.879  1.00  0.00     0.004 A 
HETATM   33  C27 UNL     1       6.582  -7.777  27.600  1.00  0.00     0.077 A 
HETATM   34  C22 UNL     1       3.048  -7.121  28.234  1.00  0.00     0.014 A 
HETATM   35  C26 UNL     1       4.568  -8.317  26.788  1.00  0.00     0.048 A 
HETATM   36  C23 UNL     1       1.972  -7.648  27.512  1.00  0.00     0.001 A 
HETATM   37  C24 UNL     1       2.192  -8.501  26.439  1.00  0.00     0.002 A 
HETATM   38  C25 UNL     1       3.490  -8.848  26.058  1.00  0.00     0.030 A 
HETATM   39  N4  UNL     1       5.937  -8.480  26.632  1.00  0.00    -0.316 N 
HETATM   40  O4  UNL     1       4.333  -5.307  30.521  1.00  0.00    -0.268 OA
HETATM   41  N5  UNL     1       6.489  -4.930  31.215  1.00  0.00    -0.353 N 
HETATM   42  H27 UNL     1       6.231  -4.323  31.980  1.00  0.00     0.163 HD
ENDBRANCH   6  18
TORSDOF 6
ENDMDL
MODEL 8
REMARK minimizedAffinity -9.64898205
REMARK CNNscore 0.586073637
REMARK CNNaffinity 7.41596746
REMARK  6 active torsions:
REMARK  status: ('A' for Active; 'I' for Inactive)
REMARK    1  A    between atoms: O1_2  and  C2_3 
REMARK    2  A    between atoms: C3_4  and  N1_5 
REMARK       I    between atoms: N1_5  and  C5_7 
REMARK    3  A    between atoms: C5_7  and  C6_9 
REMARK    4  A    between atoms: C6_9  and  N2_10 
REMARK    5  A    between atoms: C8_12  and  N4_33 
REMARK    6  A    between atoms: C9_14  and  N3_16 
ROOT
HETATM    1  C2  UNL     1       9.954  -8.620  27.011  1.00  0.00     0.199 C 
HETATM    2  C3  UNL     1      11.115  -9.290  26.245  1.00  0.00     0.124 C 
HETATM    3  C7  UNL     1      12.374  -8.432  26.396  1.00  0.00     0.082 C 
HETATM    4  C8  UNL     1      12.642  -8.118  27.874  1.00  0.00     0.233 C 
HETATM    5  O3  UNL     1      11.747  -8.751  28.789  1.00  0.00    -0.333 OA
HETATM    6  C9  UNL     1      10.320  -8.647  28.535  1.00  0.00     0.168 C 
HETATM    7  C10 UNL     1       9.849  -9.984  29.158  1.00  0.00     0.074 C 
ENDROOT
BRANCH   2   8
HETATM    8  N1  UNL     1      10.777  -9.709  24.861  1.00  0.00    -0.347 N 
HETATM    9  C4  UNL     1      10.356 -11.099  24.713  1.00  0.00     0.153 C 
HETATM   10  C5  UNL     1      10.880  -8.837  23.776  1.00  0.00     0.247 C 
HETATM   11  O2  UNL     1      11.184  -7.649  23.892  1.00  0.00    -0.271 OA
BRANCH  10  12
HETATM   12  C6  UNL     1      10.620  -9.384  22.362  1.00  0.00     0.369 C 
BRANCH  12  13
HETATM   13  N2  UNL     1       9.423  -8.768  21.768  1.00  0.00     0.087 N 
HETATM   14  H11 UNL     1       8.633  -8.950  22.392  1.00  0.00     0.313 HD
HETATM   15  H12 UNL     1       9.203  -9.259  20.902  1.00  0.00     0.313 HD
ENDBRANCH  12  13
ENDBRANCH  10  12
ENDBRANCH   2   8
BRANCH   1  16
HETATM   16  O1  UNL     1       9.826  -7.268  26.547  1.00  0.00    -0.384 OA
HETATM   17  C1  UNL     1      10.960  -6.459  26.826  1.00  0.00     0.202 C 
ENDBRANCH   1  16
BRANCH   6  18
HETATM   18  N3  UNL     1       9.795  -7.475  29.260  1.00  0.00    -0.308 N 
HETATM   19  C11 UNL     1      10.474  -6.621  30.129  1.00  0.00     0.049 A 
HETATM   20  C12 UNL     1      11.798  -6.603  30.609  1.00  0.00     0.030 A 
HETATM   21  C16 UNL     1       9.554  -5.643  30.553  1.00  0.00     0.004 A 
HETATM   22  C13 UNL     1      12.201  -5.572  31.464  1.00  0.00     0.002 A 
HETATM   23  C14 UNL     1      11.313  -4.581  31.856  1.00  0.00     0.001 A 
HETATM   24  C15 UNL     1       9.990  -4.612  31.416  1.00  0.00     0.014 A 
HETATM   25  C17 UNL     1       8.282  -5.980  30.014  1.00  0.00     0.015 A 
HETATM   26  C18 UNL     1       6.968  -5.493  30.101  1.00  0.00    -0.010 A 
HETATM   27  C28 UNL     1       8.471  -7.117  29.257  1.00  0.00     0.077 A 
HETATM   28  C19 UNL     1       5.871  -6.156  29.468  1.00  0.00     0.054 A 
HETATM   29  C30 UNL     1       6.456  -4.295  30.845  1.00  0.00     0.163 A 
HETATM   30  C20 UNL     1       5.973  -7.331  28.708  1.00  0.00     0.022 A 
HETATM   31  C29 UNL     1       4.660  -5.384  29.785  1.00  0.00     0.253 A 
HETATM   32  C21 UNL     1       5.127  -8.234  27.993  1.00  0.00     0.004 A 
HETATM   33  C27 UNL     1       7.261  -7.826  28.575  1.00  0.00     0.077 A 
HETATM   34  C22 UNL     1       3.737  -8.305  27.754  1.00  0.00     0.014 A 
HETATM   35  C26 UNL     1       5.943  -9.238  27.445  1.00  0.00     0.048 A 
HETATM   36  C23 UNL     1       3.206  -9.351  26.994  1.00  0.00     0.001 A 
HETATM   37  C24 UNL     1       4.035 -10.331  26.464  1.00  0.00     0.002 A 
HETATM   38  C25 UNL     1       5.414 -10.291  26.678  1.00  0.00     0.030 A 
HETATM   39  N4  UNL     1       7.251  -8.947  27.805  1.00  0.00    -0.316 N 
HETATM   40  O4  UNL     1       3.518  -5.605  29.438  1.00  0.00    -0.268 OA
HETATM   41  N5  UNL     1       5.046  -4.322  30.573  1.00  0.00    -0.353 N 
HETATM   42  H27 UNL     1       4.366  -3.660  30.919  1.00  0.00     0.163 HD
ENDBRANCH   6  18
TORSDOF 6
ENDMDL
MODEL 9
REMARK minimizedAffinity -7.54222202
REMARK CNNscore 0.565358877
REMARK CNNaffinity 6.48932266
REMARK  6 active torsions:
REMARK  status: ('A' for Active; 'I' for Inactive)
REMARK    1  A    between atoms: O1_2  and  C2_3 
REMARK    2  A    between atoms: C3_4  and  N1_5 
REMARK       I    between atoms: N1_5  and  C5_7 
REMARK    3  A    between atoms: C5_7  and  C6_9 
REMARK    4  A    between atoms: C6_9  and  N2_10 
REMARK    5  A    between atoms: C8_12  and  N4_33 
REMARK    6  A    between atoms: C9_14  and  N3_16 
ROOT
HETATM    1  C2  UNL     1       7.491 -17.823  41.651  1.00  0.00     0.199 C 
HETATM    2  C3  UNL     1       8.736 -16.916  41.768  1.00  0.00     0.124 C 
HETATM    3  C7  UNL     1       8.373 -15.505  41.294  1.00  0.00     0.082 C 
HETATM    4  C8  UNL     1       7.111 -15.003  42.006  1.00  0.00     0.233 C 
HETATM    5  O3  UNL     1       6.600 -15.884  43.008  1.00  0.00    -0.333 OA
HETATM    6  C9  UNL     1       6.422 -17.284  42.662  1.00  0.00     0.168 C 
HETATM    7  C10 UNL     1       6.654 -17.924  44.052  1.00  0.00     0.074 C 
ENDROOT
BRANCH   2   8
HETATM    8  N1  UNL     1       9.975 -17.496  41.191  1.00  0.00    -0.347 N 
HETATM    9  C4  UNL     1      10.359 -18.803  41.718  1.00  0.00     0.153 C 
HETATM   10  C5  UNL     1      10.731 -16.824  40.229  1.00  0.00     0.247 C 
HETATM   11  O2  UNL     1      10.393 -15.745  39.738  1.00  0.00    -0.271 OA
BRANCH  10  12
HETATM   12  C6  UNL     1      12.060 -17.445  39.768  1.00  0.00     0.369 C 
BRANCH  12  13
HETATM   13  N2  UNL     1      11.887 -18.196  38.515  1.00  0.00     0.087 N 
HETATM   14  H11 UNL     1      11.174 -18.912  38.673  1.00  0.00     0.313 HD
HETATM   15  H12 UNL     1      12.748 -18.709  38.324  1.00  0.00     0.313 HD
ENDBRANCH  12  13
ENDBRANCH  10  12
ENDBRANCH   2   8
BRANCH   1  16
HETATM   16  O1  UNL     1       6.999 -17.742  40.304  1.00  0.00    -0.384 OA
HETATM   17  C1  UNL     1       7.674 -18.601  39.397  1.00  0.00     0.202 C 
ENDBRANCH   1  16
BRANCH   6  18
HETATM   18  N3  UNL     1       5.043 -17.479  42.178  1.00  0.00    -0.308 N 
HETATM   19  C11 UNL     1       4.571 -18.427  41.270  1.00  0.00     0.049 A 
HETATM   20  C12 UNL     1       5.212 -19.437  40.525  1.00  0.00     0.030 A 
HETATM   21  C16 UNL     1       3.183 -18.226  41.143  1.00  0.00     0.004 A 
HETATM   22  C13 UNL     1       4.446 -20.272  39.706  1.00  0.00     0.002 A 
HETATM   23  C14 UNL     1       3.072 -20.109  39.605  1.00  0.00     0.001 A 
HETATM   24  C15 UNL     1       2.434 -19.087  40.309  1.00  0.00     0.014 A 
HETATM   25  C17 UNL     1       2.839 -17.075  41.904  1.00  0.00     0.015 A 
HETATM   26  C18 UNL     1       1.687 -16.309  42.142  1.00  0.00    -0.010 A 
HETATM   27  C28 UNL     1       4.006 -16.638  42.494  1.00  0.00     0.077 A 
HETATM   28  C19 UNL     1       1.721 -15.114  42.926  1.00  0.00     0.054 A 
HETATM   29  C30 UNL     1       0.290 -16.527  41.639  1.00  0.00     0.163 A 
HETATM   30  C20 UNL     1       2.870 -14.585  43.533  1.00  0.00     0.022 A 
HETATM   31  C29 UNL     1       0.354 -14.572  42.946  1.00  0.00     0.253 A 
HETATM   32  C21 UNL     1       3.254 -13.457  44.322  1.00  0.00     0.004 A 
HETATM   33  C27 UNL     1       4.023 -15.332  43.345  1.00  0.00     0.077 A 
HETATM   34  C22 UNL     1       2.571 -12.336  44.841  1.00  0.00     0.014 A 
HETATM   35  C26 UNL     1       4.629 -13.574  44.589  1.00  0.00     0.048 A 
HETATM   36  C23 UNL     1       3.258 -11.378  45.594  1.00  0.00     0.001 A 
HETATM   37  C24 UNL     1       4.617 -11.517  45.843  1.00  0.00     0.002 A 
HETATM   38  C25 UNL     1       5.324 -12.614  45.348  1.00  0.00     0.030 A 
HETATM   39  N4  UNL     1       5.066 -14.746  43.991  1.00  0.00    -0.316 N 
HETATM   40  O4  UNL     1      -0.048 -13.571  43.503  1.00  0.00    -0.268 OA
HETATM   41  N5  UNL     1      -0.433 -15.420  42.198  1.00  0.00    -0.353 N 
HETATM   42  H27 UNL     1      -1.417 -15.231  42.067  1.00  0.00     0.163 HD
ENDBRANCH   6  18
TORSDOF 6
ENDMDL
