MODEL 1
REMARK minimizedAffinity -6.85248518
REMARK  2 active torsions:
REMARK  status: ('A' for Active; 'I' for Inactive)
REMARK    1  A    between atoms: C6_6  and  N1_7 
REMARK    2  A    between atoms: N1_7  and  C7_8 
ROOT
HETATM    1  C7  UNL     1      11.367  34.691  18.525  1.00  0.00     0.119 A 
HETATM    2  N2  UNL     1      11.984  33.885  19.409  1.00  0.00    -0.338 N 
ATOM      3  H2  UNL     1      12.905  33.490  19.219  1.00  0.00     0.168 HD
HETATM    4  C8  UNL     1      11.334  33.625  20.546  1.00  0.00     0.182 A 
HETATM    5  N3  UNL     1      10.129  34.089  20.892  1.00  0.00    -0.352 N 
ATOM      6  H3  UNL     1       9.691  33.836  21.778  1.00  0.00     0.166 HD
HETATM    7  C9  UNL     1       9.527  34.900  20.019  1.00  0.00     0.047 A 
HETATM    8  C10 UNL     1       8.277  35.413  20.344  1.00  0.00     0.030 A 
HETATM    9  C11 UNL     1       7.585  36.277  19.489  1.00  0.00     0.002 A 
HETATM   10  C12 UNL     1       8.153  36.646  18.278  1.00  0.00     0.001 A 
HETATM   11  C13 UNL     1       9.404  36.143  17.929  1.00  0.00     0.017 A 
HETATM   12  C14 UNL     1      10.103  35.257  18.791  1.00  0.00     0.035 A 
ENDROOT
BRANCH   1  13
HETATM   13  N1  UNL     1      11.991  34.970  17.278  1.00  0.00    -0.342 N 
HETATM   14  H7  UNL     1      11.805  34.200  16.645  1.00  0.00     0.167 HD
BRANCH  13  15
HETATM   15  C6  UNL     1      13.263  35.536  17.035  1.00  0.00     0.034 A 
HETATM   16  C5  UNL     1      13.436  36.762  16.385  1.00  0.00     0.029 A 
HETATM   17  C4  UNL     1      14.713  37.250  16.094  1.00  0.00     0.003 A 
HETATM   18  C3  UNL     1      15.841  36.506  16.432  1.00  0.00     0.007 A 
HETATM   19  C2  UNL     1      15.700  35.266  17.059  1.00  0.00    -0.060 A 
HETATM   20  C1  UNL     1      16.907  34.433  17.376  1.00  0.00     0.048 C 
HETATM   21  C15 UNL     1      14.412  34.781  17.332  1.00  0.00     0.036 A 
ENDBRANCH  13  15
ENDBRANCH   1  13
TORSDOF 2
ENDMDL
MODEL 2
REMARK minimizedAffinity -6.6625371
REMARK  2 active torsions:
REMARK  status: ('A' for Active; 'I' for Inactive)
REMARK    1  A    between atoms: C6_6  and  N1_7 
REMARK    2  A    between atoms: N1_7  and  C7_8 
ROOT
HETATM    1  C7  UNL     1      12.344  35.223  17.964  1.00  0.00     0.119 A 
HETATM    2  N2  UNL     1      12.085  35.914  16.840  1.00  0.00    -0.338 N 
ATOM      3  H2  UNL     1      11.130  36.092  16.530  1.00  0.00     0.168 HD
HETATM    4  C8  UNL     1      13.137  36.357  16.148  1.00  0.00     0.182 A 
HETATM    5  N3  UNL     1      14.425  36.180  16.464  1.00  0.00    -0.352 N 
ATOM      6  H3  UNL     1      15.176  36.542  15.876  1.00  0.00     0.166 HD
HETATM    7  C9  UNL     1      14.676  35.507  17.589  1.00  0.00     0.047 A 
HETATM    8  C10 UNL     1      16.001  35.309  17.961  1.00  0.00     0.030 A 
HETATM    9  C11 UNL     1      16.348  34.623  19.129  1.00  0.00     0.002 A 
HETATM   10  C12 UNL     1      15.351  34.123  19.954  1.00  0.00     0.001 A 
HETATM   11  C13 UNL     1      14.016  34.306  19.601  1.00  0.00     0.017 A 
HETATM   12  C14 UNL     1      13.662  34.992  18.410  1.00  0.00     0.035 A 
ENDROOT
BRANCH   1  13
HETATM   13  N1  UNL     1      11.264  34.689  18.722  1.00  0.00    -0.342 N 
HETATM   14  H7  UNL     1      11.234  33.686  18.576  1.00  0.00     0.167 HD
BRANCH  13  15
HETATM   15  C6  UNL     1       9.967  35.219  18.905  1.00  0.00     0.034 A 
HETATM   16  C5  UNL     1       9.381  36.117  18.007  1.00  0.00     0.029 A 
HETATM   17  C4  UNL     1       8.128  36.679  18.264  1.00  0.00     0.003 A 
HETATM   18  C3  UNL     1       7.447  36.366  19.438  1.00  0.00     0.007 A 
HETATM   19  C2  UNL     1       8.017  35.491  20.366  1.00  0.00    -0.060 A 
HETATM   20  C1  UNL     1       7.316  35.192  21.658  1.00  0.00     0.048 C 
HETATM   21  C15 UNL     1       9.283  34.945  20.102  1.00  0.00     0.036 A 
ENDBRANCH  13  15
ENDBRANCH   1  13
TORSDOF 2
ENDMDL
MODEL 3
REMARK minimizedAffinity -6.63882589
REMARK  2 active torsions:
REMARK  status: ('A' for Active; 'I' for Inactive)
REMARK    1  A    between atoms: C6_6  and  N1_7 
REMARK    2  A    between atoms: N1_7  and  C7_8 
ROOT
HETATM    1  C7  UNL     1      10.556  34.902  18.899  1.00  0.00     0.119 A 
HETATM    2  N2  UNL     1      10.454  35.348  17.634  1.00  0.00    -0.338 N 
ATOM      3  H2  UNL     1      11.199  35.200  16.953  1.00  0.00     0.168 HD
HETATM    4  C8  UNL     1       9.331  35.993  17.310  1.00  0.00     0.182 A 
HETATM    5  N3  UNL     1       8.297  36.240  18.121  1.00  0.00    -0.352 N 
ATOM      6  H3  UNL     1       7.474  36.751  17.802  1.00  0.00     0.166 HD
HETATM    7  C9  UNL     1       8.397  35.782  19.372  1.00  0.00     0.047 A 
HETATM    8  C10 UNL     1       7.340  36.008  20.246  1.00  0.00     0.030 A 
HETATM    9  C11 UNL     1       7.363  35.553  21.568  1.00  0.00     0.002 A 
HETATM   10  C12 UNL     1       8.464  34.849  22.034  1.00  0.00     0.001 A 
HETATM   11  C13 UNL     1       9.536  34.613  21.178  1.00  0.00     0.017 A 
HETATM   12  C14 UNL     1       9.520  35.085  19.839  1.00  0.00     0.035 A 
ENDROOT
BRANCH   1  13
HETATM   13  N1  UNL     1      11.747  34.244  19.315  1.00  0.00    -0.342 N 
HETATM   14  H7  UNL     1      11.753  34.200  20.328  1.00  0.00     0.167 HD
BRANCH  13  15
HETATM   15  C6  UNL     1      13.056  34.380  18.800  1.00  0.00     0.034 A 
HETATM   16  C5  UNL     1      14.199  34.070  19.544  1.00  0.00     0.029 A 
HETATM   17  C4  UNL     1      15.478  34.292  19.026  1.00  0.00     0.003 A 
HETATM   18  C3  UNL     1      15.634  34.849  17.758  1.00  0.00     0.007 A 
HETATM   19  C2  UNL     1      14.511  35.191  17.001  1.00  0.00    -0.060 A 
HETATM   20  C1  UNL     1      14.670  35.841  15.658  1.00  0.00     0.048 C 
HETATM   21  C15 UNL     1      13.233  34.976  17.539  1.00  0.00     0.036 A 
ENDBRANCH  13  15
ENDBRANCH   1  13
TORSDOF 2
ENDMDL
MODEL 4
REMARK minimizedAffinity -6.60323668
REMARK  2 active torsions:
REMARK  status: ('A' for Active; 'I' for Inactive)
REMARK    1  A    between atoms: C6_6  and  N1_7 
REMARK    2  A    between atoms: N1_7  and  C7_8 
ROOT
HETATM    1  C7  UNL     1      10.855  34.288  20.149  1.00  0.00     0.119 A 
HETATM    2  N2  UNL     1      10.850  33.807  21.405  1.00  0.00    -0.338 N 
ATOM      3  H2  UNL     1      11.633  33.267  21.774  1.00  0.00     0.168 HD
HETATM    4  C8  UNL     1       9.772  34.068  22.148  1.00  0.00     0.182 A 
HETATM    5  N3  UNL     1       8.695  34.762  21.764  1.00  0.00    -0.352 N 
ATOM      6  H3  UNL     1       7.902  34.911  22.388  1.00  0.00     0.166 HD
HETATM    7  C9  UNL     1       8.711  35.251  20.522  1.00  0.00     0.047 A 
HETATM    8  C10 UNL     1       7.617  35.988  20.085  1.00  0.00     0.030 A 
HETATM    9  C11 UNL     1       7.560  36.541  18.803  1.00  0.00     0.002 A 
HETATM   10  C12 UNL     1       8.623  36.363  17.929  1.00  0.00     0.001 A 
HETATM   11  C13 UNL     1       9.730  35.626  18.343  1.00  0.00     0.017 A 
HETATM   12  C14 UNL     1       9.784  35.053  19.641  1.00  0.00     0.035 A 
ENDROOT
BRANCH   1  13
HETATM   13  N1  UNL     1      11.958  34.006  19.296  1.00  0.00    -0.342 N 
HETATM   14  H7  UNL     1      11.767  33.144  18.797  1.00  0.00     0.167 HD
BRANCH  13  15
HETATM   15  C6  UNL     1      13.338  34.149  19.562  1.00  0.00     0.034 A 
HETATM   16  C5  UNL     1      13.840  34.438  20.835  1.00  0.00     0.029 A 
HETATM   17  C4  UNL     1      15.206  34.649  21.041  1.00  0.00     0.003 A 
HETATM   18  C3  UNL     1      16.093  34.594  19.968  1.00  0.00     0.007 A 
HETATM   19  C2  UNL     1      15.620  34.331  18.681  1.00  0.00    -0.060 A 
HETATM   20  C1  UNL     1      16.560  34.324  17.512  1.00  0.00     0.048 C 
HETATM   21  C15 UNL     1      14.243  34.135  18.486  1.00  0.00     0.036 A 
ENDBRANCH  13  15
ENDBRANCH   1  13
TORSDOF 2
ENDMDL
MODEL 5
REMARK minimizedAffinity -6.59577227
REMARK  2 active torsions:
REMARK  status: ('A' for Active; 'I' for Inactive)
REMARK    1  A    between atoms: C6_6  and  N1_7 
REMARK    2  A    between atoms: N1_7  and  C7_8 
ROOT
HETATM    1  C7  UNL     1      10.665  34.713  19.038  1.00  0.00     0.119 A 
HETATM    2  N2  UNL     1      10.749  35.210  17.791  1.00  0.00    -0.338 N 
ATOM      3  H2  UNL     1      11.548  35.010  17.189  1.00  0.00     0.168 HD
HETATM    4  C8  UNL     1       9.739  35.979  17.378  1.00  0.00     0.182 A 
HETATM    5  N3  UNL     1       8.651  36.303  18.083  1.00  0.00    -0.352 N 
ATOM      6  H3  UNL     1       7.923  36.908  17.701  1.00  0.00     0.166 HD
HETATM    7  C9  UNL     1       8.564  35.795  19.315  1.00  0.00     0.047 A 
HETATM    8  C10 UNL     1       7.444  36.098  20.080  1.00  0.00     0.030 A 
HETATM    9  C11 UNL     1       7.273  35.598  21.374  1.00  0.00     0.002 A 
HETATM   10  C12 UNL     1       8.239  34.768  21.924  1.00  0.00     0.001 A 
HETATM   11  C13 UNL     1       9.372  34.452  21.178  1.00  0.00     0.017 A 
HETATM   12  C14 UNL     1       9.553  34.969  19.868  1.00  0.00     0.035 A 
ENDROOT
BRANCH   1  13
HETATM   13  N1  UNL     1      11.730  33.921  19.549  1.00  0.00    -0.342 N 
HETATM   14  H7  UNL     1      11.435  33.513  20.429  1.00  0.00     0.167 HD
BRANCH  13  15
HETATM   15  C6  UNL     1      13.115  34.203  19.555  1.00  0.00     0.034 A 
HETATM   16  C5  UNL     1      13.952  33.913  18.473  1.00  0.00     0.029 A 
HETATM   17  C4  UNL     1      15.330  34.136  18.548  1.00  0.00     0.003 A 
HETATM   18  C3  UNL     1      15.897  34.634  19.719  1.00  0.00     0.007 A 
HETATM   19  C2  UNL     1      15.090  34.910  20.825  1.00  0.00    -0.060 A 
HETATM   20  C1  UNL     1      15.698  35.394  22.108  1.00  0.00     0.048 C 
HETATM   21  C15 UNL     1      13.710  34.668  20.741  1.00  0.00     0.036 A 
ENDBRANCH  13  15
ENDBRANCH   1  13
TORSDOF 2
ENDMDL
MODEL 6
REMARK minimizedAffinity -6.39444065
REMARK  2 active torsions:
REMARK  status: ('A' for Active; 'I' for Inactive)
REMARK    1  A    between atoms: C6_6  and  N1_7 
REMARK    2  A    between atoms: N1_7  and  C7_8 
ROOT
HETATM    1  C7  UNL     1      10.812  35.116  17.918  1.00  0.00     0.119 A 
HETATM    2  N2  UNL     1       9.942  35.852  17.204  1.00  0.00    -0.338 N 
ATOM      3  H2  UNL     1      10.115  36.083  16.225  1.00  0.00     0.168 HD
HETATM    4  C8  UNL     1       8.841  36.267  17.835  1.00  0.00     0.182 A 
HETATM    5  N3  UNL     1       8.519  36.021  19.109  1.00  0.00    -0.352 N 
ATOM      6  H3  UNL     1       7.660  36.383  19.525  1.00  0.00     0.166 HD
HETATM    7  C9  UNL     1       9.378  35.277  19.810  1.00  0.00     0.047 A 
HETATM    8  C10 UNL     1       9.077  34.988  21.135  1.00  0.00     0.030 A 
HETATM    9  C11 UNL     1       9.919  34.208  21.933  1.00  0.00     0.002 A 
HETATM   10  C12 UNL     1      11.092  33.694  21.399  1.00  0.00     0.001 A 
HETATM   11  C13 UNL     1      11.416  33.972  20.073  1.00  0.00     0.017 A 
HETATM   12  C14 UNL     1      10.568  34.774  19.265  1.00  0.00     0.035 A 
ENDROOT
BRANCH   1  13
HETATM   13  N1  UNL     1      12.023  34.680  17.312  1.00  0.00    -0.342 N 
HETATM   14  H7  UNL     1      12.021  33.667  17.280  1.00  0.00     0.167 HD
BRANCH  13  15
HETATM   15  C6  UNL     1      13.331  35.184  17.493  1.00  0.00     0.034 A 
HETATM   16  C5  UNL     1      14.411  34.376  17.863  1.00  0.00     0.029 A 
HETATM   17  C4  UNL     1      15.672  34.926  18.108  1.00  0.00     0.003 A 
HETATM   18  C3  UNL     1      15.868  36.301  18.006  1.00  0.00     0.007 A 
HETATM   19  C2  UNL     1      14.804  37.137  17.662  1.00  0.00    -0.060 A 
HETATM   20  C1  UNL     1      14.994  38.624  17.603  1.00  0.00     0.048 C 
HETATM   21  C15 UNL     1      13.539  36.573  17.433  1.00  0.00     0.036 A 
ENDBRANCH  13  15
ENDBRANCH   1  13
TORSDOF 2
ENDMDL
MODEL 7
REMARK minimizedAffinity -6.31886673
REMARK  2 active torsions:
REMARK  status: ('A' for Active; 'I' for Inactive)
REMARK    1  A    between atoms: C6_6  and  N1_7 
REMARK    2  A    between atoms: N1_7  and  C7_8 
ROOT
HETATM    1  C7  UNL     1      12.179  35.669  18.692  1.00  0.00     0.119 A 
HETATM    2  N2  UNL     1      12.201  34.945  17.559  1.00  0.00    -0.338 N 
ATOM      3  H2  UNL     1      11.495  35.069  16.833  1.00  0.00     0.168 HD
HETATM    4  C8  UNL     1      13.188  34.057  17.428  1.00  0.00     0.182 A 
HETATM    5  N3  UNL     1      14.160  33.816  18.314  1.00  0.00    -0.352 N 
ATOM      6  H3  UNL     1      14.877  33.110  18.147  1.00  0.00     0.166 HD
HETATM    7  C9  UNL     1      14.144  34.548  19.431  1.00  0.00     0.047 A 
HETATM    8  C10 UNL     1      15.142  34.337  20.376  1.00  0.00     0.030 A 
HETATM    9  C11 UNL     1      15.201  35.068  21.566  1.00  0.00     0.002 A 
HETATM   10  C12 UNL     1      14.245  36.040  21.825  1.00  0.00     0.001 A 
HETATM   11  C13 UNL     1      13.234  36.267  20.894  1.00  0.00     0.017 A 
HETATM   12  C14 UNL     1      13.165  35.518  19.691  1.00  0.00     0.035 A 
ENDROOT
BRANCH   1  13
HETATM   13  N1  UNL     1      11.127  36.602  18.908  1.00  0.00    -0.342 N 
HETATM   14  H7  UNL     1      11.501  37.398  19.412  1.00  0.00     0.167 HD
BRANCH  13  15
HETATM   15  C6  UNL     1       9.786  36.349  19.273  1.00  0.00     0.034 A 
HETATM   16  C5  UNL     1       8.705  36.634  18.433  1.00  0.00     0.029 A 
HETATM   17  C4  UNL     1       7.388  36.442  18.861  1.00  0.00     0.003 A 
HETATM   18  C3  UNL     1       7.131  35.980  20.151  1.00  0.00     0.007 A 
HETATM   19  C2  UNL     1       8.189  35.711  21.022  1.00  0.00    -0.060 A 
HETATM   20  C1  UNL     1       7.920  35.266  22.429  1.00  0.00     0.048 C 
HETATM   21  C15 UNL     1       9.506  35.921  20.583  1.00  0.00     0.036 A 
ENDBRANCH  13  15
ENDBRANCH   1  13
TORSDOF 2
ENDMDL
MODEL 8
REMARK minimizedAffinity -6.30128574
REMARK  2 active torsions:
REMARK  status: ('A' for Active; 'I' for Inactive)
REMARK    1  A    between atoms: C6_6  and  N1_7 
REMARK    2  A    between atoms: N1_7  and  C7_8 
ROOT
HETATM    1  C7  UNL     1      14.080  58.516   7.934  1.00  0.00     0.119 A 
HETATM    2  N2  UNL     1      14.764  57.939   8.938  1.00  0.00    -0.338 N 
ATOM      3  H2  UNL     1      15.678  57.513   8.786  1.00  0.00     0.168 HD
HETATM    4  C8  UNL     1      14.191  57.950  10.144  1.00  0.00     0.182 A 
HETATM    5  N3  UNL     1      13.002  58.479  10.451  1.00  0.00    -0.352 N 
ATOM      6  H3  UNL     1      12.625  58.438  11.398  1.00  0.00     0.166 HD
HETATM    7  C9  UNL     1      12.333  59.064   9.455  1.00  0.00     0.047 A 
HETATM    8  C10 UNL     1      11.097  59.636   9.732  1.00  0.00     0.030 A 
HETATM    9  C11 UNL     1      10.339  60.276   8.747  1.00  0.00     0.002 A 
HETATM   10  C12 UNL     1      10.824  60.355   7.449  1.00  0.00     0.001 A 
HETATM   11  C13 UNL     1      12.059  59.787   7.146  1.00  0.00     0.017 A 
HETATM   12  C14 UNL     1      12.825  59.126   8.142  1.00  0.00     0.035 A 
ENDROOT
BRANCH   1  13
HETATM   13  N1  UNL     1      14.620  58.499   6.618  1.00  0.00    -0.342 N 
HETATM   14  H7  UNL     1      14.637  59.449   6.265  1.00  0.00     0.167 HD
BRANCH  13  15
HETATM   15  C6  UNL     1      14.383  57.571   5.579  1.00  0.00     0.034 A 
HETATM   16  C5  UNL     1      13.718  57.909   4.396  1.00  0.00     0.029 A 
HETATM   17  C4  UNL     1      13.435  56.943   3.427  1.00  0.00     0.003 A 
HETATM   18  C3  UNL     1      13.796  55.614   3.636  1.00  0.00     0.007 A 
HETATM   19  C2  UNL     1      14.439  55.240   4.818  1.00  0.00    -0.060 A 
HETATM   20  C1  UNL     1      14.782  53.802   5.075  1.00  0.00     0.048 C 
HETATM   21  C15 UNL     1      14.705  56.218   5.789  1.00  0.00     0.036 A 
ENDBRANCH  13  15
ENDBRANCH   1  13
TORSDOF 2
ENDMDL
MODEL 9
REMARK minimizedAffinity -6.28707981
REMARK  2 active torsions:
REMARK  status: ('A' for Active; 'I' for Inactive)
REMARK    1  A    between atoms: C6_6  and  N1_7 
REMARK    2  A    between atoms: N1_7  and  C7_8 
ROOT
HETATM    1  C7  UNL     1      17.205  52.481   5.220  1.00  0.00     0.119 A 
HETATM    2  N2  UNL     1      18.496  52.580   4.856  1.00  0.00    -0.338 N 
ATOM      3  H2  UNL     1      19.161  51.827   5.037  1.00  0.00     0.168 HD
HETATM    4  C8  UNL     1      18.867  53.708   4.247  1.00  0.00     0.182 A 
HETATM    5  N3  UNL     1      18.080  54.751   3.964  1.00  0.00    -0.352 N 
ATOM      6  H3  UNL     1      18.441  55.587   3.504  1.00  0.00     0.166 HD
HETATM    7  C9  UNL     1      16.796  54.642   4.313  1.00  0.00     0.047 A 
HETATM    8  C10 UNL     1      15.940  55.699   4.027  1.00  0.00     0.030 A 
HETATM    9  C11 UNL     1      14.580  55.660   4.352  1.00  0.00     0.002 A 
HETATM   10  C12 UNL     1      14.054  54.536   4.973  1.00  0.00     0.001 A 
HETATM   11  C13 UNL     1      14.892  53.465   5.271  1.00  0.00     0.017 A 
HETATM   12  C14 UNL     1      16.276  53.508   4.954  1.00  0.00     0.035 A 
ENDROOT
BRANCH   1  13
HETATM   13  N1  UNL     1      16.759  51.320   5.910  1.00  0.00    -0.342 N 
HETATM   14  H7  UNL     1      16.022  51.590   6.552  1.00  0.00     0.167 HD
BRANCH  13  15
HETATM   15  C6  UNL     1      17.526  50.253   6.431  1.00  0.00     0.034 A 
HETATM   16  C5  UNL     1      18.644  50.452   7.248  1.00  0.00     0.029 A 
HETATM   17  C4  UNL     1      19.422  49.374   7.679  1.00  0.00     0.003 A 
HETATM   18  C3  UNL     1      19.104  48.077   7.281  1.00  0.00     0.007 A 
HETATM   19  C2  UNL     1      18.008  47.849   6.446  1.00  0.00    -0.060 A 
HETATM   20  C1  UNL     1      17.692  46.463   5.968  1.00  0.00     0.048 C 
HETATM   21  C15 UNL     1      17.244  48.942   6.008  1.00  0.00     0.036 A 
ENDBRANCH  13  15
ENDBRANCH   1  13
TORSDOF 2
ENDMDL
