MODEL 1
REMARK minimizedAffinity -7.35121965
REMARK CNNscore 0.80416435
REMARK CNNaffinity 6.66328764
REMARK  8 active torsions:
REMARK  status: ('A' for Active; 'I' for Inactive)
REMARK    1  A    between atoms: C4_4  and  N1_5 
REMARK    2  A    between atoms: N1_5  and  C5_6 
REMARK    3  A    between atoms: C5_6  and  C6_7 
REMARK    4  A    between atoms: C6_7  and  N2_8 
REMARK    5  A    between atoms: N2_8  and  C7_9 
REMARK    6  A    between atoms: N2_8  and  N7_30 
REMARK    7  A    between atoms: C11_17  and  N5_18 
REMARK    8  A    between atoms: N5_18  and  C12_19 
ROOT
HETATM    1  C7  UNL     1      14.182  57.587   4.251  1.00  0.00     0.095 A 
HETATM    2  C8  UNL     1      13.675  58.877   4.266  1.00  0.00     0.069 A 
HETATM    3  C9  UNL     1      13.464  59.440   2.975  1.00  0.00     0.056 A 
HETATM    4  N3  UNL     1      12.955  60.672   2.736  1.00  0.00    -0.351 N 
ATOM      5  H3  UNL     1      12.689  61.319   3.479  1.00  0.00     0.166 HD
HETATM    6  C10 UNL     1      12.834  60.961   1.439  1.00  0.00     0.182 A 
HETATM    7  N4  UNL     1      13.156  60.184   0.396  1.00  0.00    -0.337 N 
ATOM      8  H4  UNL     1      13.013  60.516  -0.557  1.00  0.00     0.168 HD
HETATM    9  C11 UNL     1      13.673  58.954   0.620  1.00  0.00     0.126 A 
HETATM   10  C20 UNL     1      13.835  58.571   1.962  1.00  0.00     0.077 A 
HETATM   11  S1  UNL     1      14.452  57.110   2.616  1.00  0.00    -0.065 SA
ENDROOT
BRANCH   1  12
HETATM   12  N2  UNL     1      14.457  56.800   5.347  1.00  0.00    -0.279 N 
BRANCH  12  13
HETATM   13  C6  UNL     1      14.577  57.342   6.718  1.00  0.00     0.165 C 
BRANCH  13  14
HETATM   14  C5  UNL     1      15.183  58.764   6.736  1.00  0.00     0.114 C 
BRANCH  14  15
HETATM   15  N1  UNL     1      14.578  59.561   7.805  1.00  0.00    -0.291 NA
HETATM   16  H4  UNL     1      14.995  60.491   7.852  1.00  0.00     0.127 HD
BRANCH  15  17
HETATM   17  C4  UNL     1      13.182  59.620   7.896  1.00  0.00     0.008 A 
HETATM   18  C3  UNL     1      12.436  58.921   8.852  1.00  0.00     0.023 A 
HETATM   19  C2  UNL     1      11.047  59.074   8.945  1.00  0.00     0.002 A 
HETATM   20  C1  UNL     1      10.384  59.958   8.100  1.00  0.00     0.000 A 
HETATM   21  C26 UNL     1      11.111  60.697   7.173  1.00  0.00     0.002 A 
HETATM   22  C25 UNL     1      12.499  60.537   7.084  1.00  0.00     0.023 A 
ENDBRANCH  15  17
ENDBRANCH  14  15
ENDBRANCH  13  14
ENDBRANCH  12  13
BRANCH  12  23
HETATM   23  N7  UNL     1      15.084  55.565   5.196  1.00  0.00    -0.276 N 
HETATM   24  C21 UNL     1      14.463  54.341   5.213  1.00  0.00     0.116 A 
HETATM   25  C22 UNL     1      15.418  53.367   5.027  1.00  0.00     0.021 A 
HETATM   26  C23 UNL     1      16.665  54.022   4.903  1.00  0.00     0.021 A 
HETATM   27  C24 UNL     1      16.430  55.375   5.018  1.00  0.00     0.116 A 
ENDBRANCH  12  23
ENDBRANCH   1  12
BRANCH   9  28
HETATM   28  N5  UNL     1      14.032  58.083  -0.419  1.00  0.00    -0.341 N 
HETATM   29  H11 UNL     1      14.833  58.414  -0.943  1.00  0.00     0.167 HD
BRANCH  28  30
HETATM   30  C12 UNL     1      13.497  56.868  -0.888  1.00  0.00     0.034 A 
HETATM   31  C13 UNL     1      12.104  56.768  -1.024  1.00  0.00     0.032 A 
HETATM   32  C14 UNL     1      11.470  55.606  -1.484  1.00  0.00     0.033 A 
HETATM   33  C15 UNL     1      12.283  54.522  -1.815  1.00  0.00     0.042 A 
HETATM   34  N6  UNL     1      11.954  53.271  -2.281  1.00  0.00    -0.365 N 
HETATM   35  C18 UNL     1      13.670  54.572  -1.708  1.00  0.00    -0.006 A 
HETATM   36  C16 UNL     1      13.087  52.531  -2.484  1.00  0.00     0.089 A 
HETATM   37  H14 UNL     1      11.010  52.955  -2.454  1.00  0.00     0.165 HD
HETATM   38  C17 UNL     1      14.167  53.308  -2.136  1.00  0.00     0.030 A 
HETATM   39  C19 UNL     1      14.277  55.759  -1.243  1.00  0.00     0.043 A 
ENDBRANCH  28  30
ENDBRANCH   9  28
TORSDOF 8
ENDMDL
MODEL 2
REMARK minimizedAffinity -6.72237587
REMARK CNNscore 0.759924173
REMARK CNNaffinity 6.85542059
REMARK  8 active torsions:
REMARK  status: ('A' for Active; 'I' for Inactive)
REMARK    1  A    between atoms: C4_4  and  N1_5 
REMARK    2  A    between atoms: N1_5  and  C5_6 
REMARK    3  A    between atoms: C5_6  and  C6_7 
REMARK    4  A    between atoms: C6_7  and  N2_8 
REMARK    5  A    between atoms: N2_8  and  C7_9 
REMARK    6  A    between atoms: N2_8  and  N7_30 
REMARK    7  A    between atoms: C11_17  and  N5_18 
REMARK    8  A    between atoms: N5_18  and  C12_19 
ROOT
HETATM    1  C7  UNL     1      12.853  61.413   5.611  1.00  0.00     0.095 A 
HETATM    2  C8  UNL     1      12.292  61.732   4.383  1.00  0.00     0.069 A 
HETATM    3  C9  UNL     1      12.772  60.946   3.297  1.00  0.00     0.056 A 
HETATM    4  N3  UNL     1      12.356  61.056   2.013  1.00  0.00    -0.351 N 
ATOM      5  H3  UNL     1      11.659  61.736   1.708  1.00  0.00     0.166 HD
HETATM    6  C10 UNL     1      12.942  60.192   1.182  1.00  0.00     0.182 A 
HETATM    7  N4  UNL     1      13.865  59.267   1.484  1.00  0.00    -0.337 N 
ATOM      8  H4  UNL     1      14.238  58.657   0.758  1.00  0.00     0.168 HD
HETATM    9  C11 UNL     1      14.296  59.152   2.761  1.00  0.00     0.126 A 
HETATM   10  C20 UNL     1      13.728  60.029   3.701  1.00  0.00     0.077 A 
HETATM   11  S1  UNL     1      14.028  60.172   5.384  1.00  0.00    -0.065 SA
ENDROOT
BRANCH   1  12
HETATM   12  N2  UNL     1      12.557  61.993   6.824  1.00  0.00    -0.279 N 
BRANCH  12  13
HETATM   13  C6  UNL     1      13.424  63.003   7.467  1.00  0.00     0.165 C 
BRANCH  13  14
HETATM   14  C5  UNL     1      13.973  64.035   6.455  1.00  0.00     0.114 C 
BRANCH  14  15
HETATM   15  N1  UNL     1      14.273  65.299   7.130  1.00  0.00    -0.291 NA
HETATM   16  H4  UNL     1      15.149  65.699   6.791  1.00  0.00     0.127 HD
BRANCH  15  17
HETATM   17  C4  UNL     1      13.269  66.271   7.223  1.00  0.00     0.008 A 
HETATM   18  C3  UNL     1      12.636  66.842   6.113  1.00  0.00     0.023 A 
HETATM   19  C2  UNL     1      11.586  67.757   6.265  1.00  0.00     0.002 A 
HETATM   20  C1  UNL     1      11.131  68.091   7.536  1.00  0.00     0.000 A 
HETATM   21  C26 UNL     1      11.715  67.502   8.652  1.00  0.00     0.002 A 
HETATM   22  C25 UNL     1      12.766  66.590   8.492  1.00  0.00     0.023 A 
ENDBRANCH  15  17
ENDBRANCH  14  15
ENDBRANCH  13  14
ENDBRANCH  12  13
BRANCH  12  23
HETATM   23  N7  UNL     1      11.702  61.361   7.724  1.00  0.00    -0.276 N 
HETATM   24  C21 UNL     1      11.537  61.693   9.045  1.00  0.00     0.116 A 
HETATM   25  C22 UNL     1      10.605  60.840   9.595  1.00  0.00     0.021 A 
HETATM   26  C23 UNL     1      10.198  59.951   8.573  1.00  0.00     0.021 A 
HETATM   27  C24 UNL     1      10.895  60.291   7.433  1.00  0.00     0.116 A 
ENDBRANCH  12  23
ENDBRANCH   1  12
BRANCH   9  28
HETATM   28  N5  UNL     1      15.256  58.209   3.154  1.00  0.00    -0.341 N 
HETATM   29  H11 UNL     1      16.203  58.540   3.016  1.00  0.00     0.167 HD
BRANCH  28  30
HETATM   30  C12 UNL     1      15.170  56.904   3.674  1.00  0.00     0.034 A 
HETATM   31  C13 UNL     1      13.894  56.360   3.889  1.00  0.00     0.032 A 
HETATM   32  C14 UNL     1      13.698  55.070   4.400  1.00  0.00     0.033 A 
HETATM   33  C15 UNL     1      14.835  54.319   4.696  1.00  0.00     0.042 A 
HETATM   34  N6  UNL     1      14.956  53.046   5.204  1.00  0.00    -0.365 N 
HETATM   35  C18 UNL     1      16.123  54.807   4.492  1.00  0.00    -0.006 A 
HETATM   36  C16 UNL     1      16.277  52.708   5.318  1.00  0.00     0.089 A 
HETATM   37  H14 UNL     1      14.177  52.452   5.447  1.00  0.00     0.165 HD
HETATM   38  C17 UNL     1      17.025  53.778   4.887  1.00  0.00     0.030 A 
HETATM   39  C19 UNL     1      16.286  56.109   3.973  1.00  0.00     0.043 A 
ENDBRANCH  28  30
ENDBRANCH   9  28
TORSDOF 8
ENDMDL
MODEL 3
REMARK minimizedAffinity -6.59796906
REMARK CNNscore 0.747201979
REMARK CNNaffinity 6.74282837
REMARK  8 active torsions:
REMARK  status: ('A' for Active; 'I' for Inactive)
REMARK    1  A    between atoms: C4_4  and  N1_5 
REMARK    2  A    between atoms: N1_5  and  C5_6 
REMARK    3  A    between atoms: C5_6  and  C6_7 
REMARK    4  A    between atoms: C6_7  and  N2_8 
REMARK    5  A    between atoms: N2_8  and  C7_9 
REMARK    6  A    between atoms: N2_8  and  N7_30 
REMARK    7  A    between atoms: C11_17  and  N5_18 
REMARK    8  A    between atoms: N5_18  and  C12_19 
ROOT
HETATM    1  C7  UNL     1      14.080  56.610  -1.796  1.00  0.00     0.095 A 
HETATM    2  C8  UNL     1      15.049  57.550  -2.112  1.00  0.00     0.069 A 
HETATM    3  C9  UNL     1      15.602  58.225  -0.987  1.00  0.00     0.056 A 
HETATM    4  N3  UNL     1      16.577  59.164  -1.042  1.00  0.00    -0.351 N 
ATOM      5  H3  UNL     1      16.994  59.483  -1.916  1.00  0.00     0.166 HD
HETATM    6  C10 UNL     1      16.940  59.633   0.153  1.00  0.00     0.182 A 
HETATM    7  N4  UNL     1      16.452  59.281   1.351  1.00  0.00    -0.337 N 
ATOM      8  H4  UNL     1      16.815  59.710   2.201  1.00  0.00     0.168 HD
HETATM    9  C11 UNL     1      15.472  58.351   1.421  1.00  0.00     0.126 A 
HETATM   10  C20 UNL     1      15.030  57.806   0.204  1.00  0.00     0.077 A 
HETATM   11  S1  UNL     1      13.821  56.625  -0.091  1.00  0.00    -0.065 SA
ENDROOT
BRANCH   1  12
HETATM   12  N2  UNL     1      13.402  55.802  -2.680  1.00  0.00    -0.279 N 
BRANCH  12  13
HETATM   13  C6  UNL     1      12.277  56.282  -3.511  1.00  0.00     0.165 C 
BRANCH  13  14
HETATM   14  C5  UNL     1      11.032  56.635  -2.666  1.00  0.00     0.114 C 
BRANCH  14  15
HETATM   15  N1  UNL     1       9.809  56.324  -3.408  1.00  0.00    -0.291 NA
HETATM   16  H4  UNL     1       9.005  56.261  -2.784  1.00  0.00     0.127 HD
BRANCH  15  17
HETATM   17  C4  UNL     1       9.508  57.068  -4.556  1.00  0.00     0.008 A 
HETATM   18  C3  UNL     1       8.986  58.366  -4.525  1.00  0.00     0.023 A 
HETATM   19  C2  UNL     1       8.772  59.092  -5.704  1.00  0.00     0.002 A 
HETATM   20  C1  UNL     1       9.109  58.538  -6.935  1.00  0.00     0.000 A 
HETATM   21  C26 UNL     1       9.671  57.267  -6.986  1.00  0.00     0.002 A 
HETATM   22  C25 UNL     1       9.879  56.547  -5.804  1.00  0.00     0.023 A 
ENDBRANCH  15  17
ENDBRANCH  14  15
ENDBRANCH  13  14
ENDBRANCH  12  13
BRANCH  12  23
HETATM   23  N7  UNL     1      13.409  54.417  -2.526  1.00  0.00    -0.276 N 
HETATM   24  C21 UNL     1      12.300  53.612  -2.441  1.00  0.00     0.116 A 
HETATM   25  C22 UNL     1      12.720  52.308  -2.297  1.00  0.00     0.021 A 
HETATM   26  C23 UNL     1      14.134  52.323  -2.285  1.00  0.00     0.021 A 
HETATM   27  C24 UNL     1      14.531  53.637  -2.420  1.00  0.00     0.116 A 
ENDBRANCH  12  23
ENDBRANCH   1  12
BRANCH   9  28
HETATM   28  N5  UNL     1      14.913  57.929   2.636  1.00  0.00    -0.341 N 
HETATM   29  H11 UNL     1      14.426  58.676   3.117  1.00  0.00     0.167 HD
BRANCH  28  30
HETATM   30  C12 UNL     1      14.911  56.701   3.323  1.00  0.00     0.034 A 
HETATM   31  C13 UNL     1      13.675  56.167   3.720  1.00  0.00     0.032 A 
HETATM   32  C14 UNL     1      13.562  54.950   4.407  1.00  0.00     0.033 A 
HETATM   33  C15 UNL     1      14.743  54.265   4.692  1.00  0.00     0.042 A 
HETATM   34  N6  UNL     1      14.946  53.071   5.345  1.00  0.00    -0.365 N 
HETATM   35  C18 UNL     1      15.994  54.745   4.312  1.00  0.00    -0.006 A 
HETATM   36  C16 UNL     1      16.281  52.774   5.382  1.00  0.00     0.089 A 
HETATM   37  H14 UNL     1      14.209  52.498   5.731  1.00  0.00     0.165 HD
HETATM   38  C17 UNL     1      16.957  53.794   4.753  1.00  0.00     0.030 A 
HETATM   39  C19 UNL     1      16.072  55.973   3.620  1.00  0.00     0.043 A 
ENDBRANCH  28  30
ENDBRANCH   9  28
TORSDOF 8
ENDMDL
MODEL 4
REMARK minimizedAffinity -7.04240894
REMARK CNNscore 0.744850338
REMARK CNNaffinity 6.71985292
REMARK  8 active torsions:
REMARK  status: ('A' for Active; 'I' for Inactive)
REMARK    1  A    between atoms: C4_4  and  N1_5 
REMARK    2  A    between atoms: N1_5  and  C5_6 
REMARK    3  A    between atoms: C5_6  and  C6_7 
REMARK    4  A    between atoms: C6_7  and  N2_8 
REMARK    5  A    between atoms: N2_8  and  C7_9 
REMARK    6  A    between atoms: N2_8  and  N7_30 
REMARK    7  A    between atoms: C11_17  and  N5_18 
REMARK    8  A    between atoms: N5_18  and  C12_19 
ROOT
HETATM    1  C7  UNL     1      13.752  56.864  -1.458  1.00  0.00     0.095 A 
HETATM    2  C8  UNL     1      12.996  58.021  -1.353  1.00  0.00     0.069 A 
HETATM    3  C9  UNL     1      13.121  58.694  -0.105  1.00  0.00     0.056 A 
HETATM    4  N3  UNL     1      12.501  59.853   0.222  1.00  0.00    -0.351 N 
ATOM      5  H3  UNL     1      11.866  60.342  -0.409  1.00  0.00     0.166 HD
HETATM    6  C10 UNL     1      12.797  60.294   1.445  1.00  0.00     0.182 A 
HETATM    7  N4  UNL     1      13.612  59.724   2.344  1.00  0.00    -0.337 N 
ATOM      8  H4  UNL     1      13.763  60.162   3.253  1.00  0.00     0.168 HD
HETATM    9  C11 UNL     1      14.231  58.562   2.035  1.00  0.00     0.126 A 
HETATM   10  C20 UNL     1      13.972  58.027   0.762  1.00  0.00     0.077 A 
HETATM   11  S1  UNL     1      14.568  56.591   0.036  1.00  0.00    -0.065 SA
ENDROOT
BRANCH   1  12
HETATM   12  N2  UNL     1      13.838  56.035  -2.555  1.00  0.00    -0.279 N 
BRANCH  12  13
HETATM   13  C6  UNL     1      13.756  56.529  -3.946  1.00  0.00     0.165 C 
BRANCH  13  14
HETATM   14  C5  UNL     1      12.310  56.891  -4.355  1.00  0.00     0.114 C 
BRANCH  14  15
HETATM   15  N1  UNL     1      12.193  58.331  -4.590  1.00  0.00    -0.291 NA
HETATM   16  H4  UNL     1      12.897  58.654  -5.254  1.00  0.00     0.127 HD
BRANCH  15  17
HETATM   17  C4  UNL     1      10.933  58.870  -4.878  1.00  0.00     0.008 A 
HETATM   18  C3  UNL     1      10.741  60.062  -5.587  1.00  0.00     0.023 A 
HETATM   19  C2  UNL     1       9.457  60.516  -5.910  1.00  0.00     0.002 A 
HETATM   20  C1  UNL     1       8.341  59.765  -5.557  1.00  0.00     0.000 A 
HETATM   21  C26 UNL     1       8.510  58.555  -4.893  1.00  0.00     0.002 A 
HETATM   22  C25 UNL     1       9.797  58.108  -4.570  1.00  0.00     0.023 A 
ENDBRANCH  15  17
ENDBRANCH  14  15
ENDBRANCH  13  14
ENDBRANCH  12  13
BRANCH  12  23
HETATM   23  N7  UNL     1      13.548  54.678  -2.443  1.00  0.00    -0.276 N 
HETATM   24  C21 UNL     1      14.463  53.654  -2.474  1.00  0.00     0.116 A 
HETATM   25  C22 UNL     1      13.787  52.463  -2.330  1.00  0.00     0.021 A 
HETATM   26  C23 UNL     1      12.412  52.773  -2.216  1.00  0.00     0.021 A 
HETATM   27  C24 UNL     1      12.294  54.144  -2.297  1.00  0.00     0.116 A 
ENDBRANCH  12  23
ENDBRANCH   1  12
BRANCH   9  28
HETATM   28  N5  UNL     1      15.099  57.907   2.921  1.00  0.00    -0.341 N 
HETATM   29  H11 UNL     1      15.919  58.461   3.140  1.00  0.00     0.167 HD
BRANCH  28  30
HETATM   30  C12 UNL     1      15.074  56.644   3.540  1.00  0.00     0.034 A 
HETATM   31  C13 UNL     1      13.828  56.116   3.914  1.00  0.00     0.032 A 
HETATM   32  C14 UNL     1      13.691  54.866   4.534  1.00  0.00     0.033 A 
HETATM   33  C15 UNL     1      14.857  54.141   4.775  1.00  0.00     0.042 A 
HETATM   34  N6  UNL     1      15.037  52.909   5.361  1.00  0.00    -0.365 N 
HETATM   35  C18 UNL     1      16.117  54.614   4.416  1.00  0.00    -0.006 A 
HETATM   36  C16 UNL     1      16.364  52.582   5.375  1.00  0.00     0.089 A 
HETATM   37  H14 UNL     1      14.288  52.332   5.720  1.00  0.00     0.165 HD
HETATM   38  C17 UNL     1      17.060  53.619   4.799  1.00  0.00     0.030 A 
HETATM   39  C19 UNL     1      16.219  55.875   3.791  1.00  0.00     0.043 A 
ENDBRANCH  28  30
ENDBRANCH   9  28
TORSDOF 8
ENDMDL
MODEL 5
REMARK minimizedAffinity -6.51878405
REMARK CNNscore 0.547135234
REMARK CNNaffinity 6.1800046
REMARK  8 active torsions:
REMARK  status: ('A' for Active; 'I' for Inactive)
REMARK    1  A    between atoms: C4_4  and  N1_5 
REMARK    2  A    between atoms: N1_5  and  C5_6 
REMARK    3  A    between atoms: C5_6  and  C6_7 
REMARK    4  A    between atoms: C6_7  and  N2_8 
REMARK    5  A    between atoms: N2_8  and  C7_9 
REMARK    6  A    between atoms: N2_8  and  N7_30 
REMARK    7  A    between atoms: C11_17  and  N5_18 
REMARK    8  A    between atoms: N5_18  and  C12_19 
ROOT
HETATM    1  C7  UNL     1      13.335  52.937  -3.050  1.00  0.00     0.095 A 
HETATM    2  C8  UNL     1      13.778  53.660  -1.953  1.00  0.00     0.069 A 
HETATM    3  C9  UNL     1      12.962  54.778  -1.619  1.00  0.00     0.056 A 
HETATM    4  N3  UNL     1      13.177  55.616  -0.576  1.00  0.00    -0.351 N 
ATOM      5  H3  UNL     1      13.968  55.522   0.061  1.00  0.00     0.166 HD
HETATM    6  C10 UNL     1      12.257  56.575  -0.460  1.00  0.00     0.182 A 
HETATM    7  N4  UNL     1      11.189  56.782  -1.243  1.00  0.00    -0.337 N 
ATOM      8  H4  UNL     1      10.551  57.554  -1.050  1.00  0.00     0.168 HD
HETATM    9  C11 UNL     1      10.967  55.959  -2.293  1.00  0.00     0.126 A 
HETATM   10  C20 UNL     1      11.892  54.919  -2.487  1.00  0.00     0.077 A 
HETATM   11  S1  UNL     1      11.932  53.702  -3.696  1.00  0.00    -0.065 SA
ENDROOT
BRANCH   1  12
HETATM   12  N2  UNL     1      13.916  51.804  -3.575  1.00  0.00    -0.279 N 
BRANCH  12  13
HETATM   13  C6  UNL     1      13.975  50.518  -2.848  1.00  0.00     0.165 C 
BRANCH  13  14
HETATM   14  C5  UNL     1      12.584  50.061  -2.350  1.00  0.00     0.114 C 
BRANCH  14  15
HETATM   15  N1  UNL     1      12.539  48.603  -2.236  1.00  0.00    -0.291 NA
HETATM   16  H4  UNL     1      13.444  48.227  -1.951  1.00  0.00     0.127 HD
BRANCH  15  17
HETATM   17  C4  UNL     1      11.491  48.013  -1.518  1.00  0.00     0.008 A 
HETATM   18  C3  UNL     1      11.518  46.695  -1.047  1.00  0.00     0.023 A 
HETATM   19  C2  UNL     1      10.473  46.179  -0.270  1.00  0.00     0.002 A 
HETATM   20  C1  UNL     1       9.395  46.988   0.075  1.00  0.00     0.000 A 
HETATM   21  C26 UNL     1       9.369  48.314  -0.344  1.00  0.00     0.002 A 
HETATM   22  C25 UNL     1      10.416  48.822  -1.122  1.00  0.00     0.023 A 
ENDBRANCH  15  17
ENDBRANCH  14  15
ENDBRANCH  13  14
ENDBRANCH  12  13
BRANCH  12  23
HETATM   23  N7  UNL     1      14.867  51.898  -4.588  1.00  0.00    -0.276 N 
HETATM   24  C21 UNL     1      15.337  53.061  -5.146  1.00  0.00     0.116 A 
HETATM   25  C22 UNL     1      16.266  52.738  -6.109  1.00  0.00     0.021 A 
HETATM   26  C23 UNL     1      16.358  51.327  -6.145  1.00  0.00     0.021 A 
HETATM   27  C24 UNL     1      15.480  50.836  -5.202  1.00  0.00     0.116 A 
ENDBRANCH  12  23
ENDBRANCH   1  12
BRANCH   9  28
HETATM   28  N5  UNL     1       9.871  56.109  -3.155  1.00  0.00    -0.341 N 
HETATM   29  H11 UNL     1       9.087  55.526  -2.889  1.00  0.00     0.167 HD
BRANCH  28  30
HETATM   30  C12 UNL     1       9.653  56.879  -4.313  1.00  0.00     0.034 A 
HETATM   31  C13 UNL     1      10.007  56.323  -5.553  1.00  0.00     0.032 A 
HETATM   32  C14 UNL     1       9.829  57.004  -6.766  1.00  0.00     0.033 A 
HETATM   33  C15 UNL     1       9.274  58.282  -6.706  1.00  0.00     0.042 A 
HETATM   34  N6  UNL     1       8.989  59.178  -7.710  1.00  0.00    -0.365 N 
HETATM   35  C18 UNL     1       8.897  58.875  -5.504  1.00  0.00    -0.006 A 
HETATM   36  C16 UNL     1       8.434  60.313  -7.186  1.00  0.00     0.089 A 
HETATM   37  H14 UNL     1       9.160  59.010  -8.692  1.00  0.00     0.165 HD
HETATM   38  C17 UNL     1       8.366  60.158  -5.821  1.00  0.00     0.030 A 
HETATM   39  C19 UNL     1       9.087  58.162  -4.301  1.00  0.00     0.043 A 
ENDBRANCH  28  30
ENDBRANCH   9  28
TORSDOF 8
ENDMDL
MODEL 6
REMARK minimizedAffinity -7.32803679
REMARK CNNscore 0.545025706
REMARK CNNaffinity 5.93600464
REMARK  8 active torsions:
REMARK  status: ('A' for Active; 'I' for Inactive)
REMARK    1  A    between atoms: C4_4  and  N1_5 
REMARK    2  A    between atoms: N1_5  and  C5_6 
REMARK    3  A    between atoms: C5_6  and  C6_7 
REMARK    4  A    between atoms: C6_7  and  N2_8 
REMARK    5  A    between atoms: N2_8  and  C7_9 
REMARK    6  A    between atoms: N2_8  and  N7_30 
REMARK    7  A    between atoms: C11_17  and  N5_18 
REMARK    8  A    between atoms: N5_18  and  C12_19 
ROOT
HETATM    1  C7  UNL     1      13.123  48.374  -2.142  1.00  0.00     0.095 A 
HETATM    2  C8  UNL     1      14.294  48.951  -2.611  1.00  0.00     0.069 A 
HETATM    3  C9  UNL     1      15.484  48.389  -2.068  1.00  0.00     0.056 A 
HETATM    4  N3  UNL     1      16.743  48.768  -2.391  1.00  0.00    -0.351 N 
ATOM      5  H3  UNL     1      16.947  49.516  -3.055  1.00  0.00     0.166 HD
HETATM    6  C10 UNL     1      17.692  48.074  -1.761  1.00  0.00     0.182 A 
HETATM    7  N4  UNL     1      17.526  47.081  -0.875  1.00  0.00    -0.337 N 
ATOM      8  H4  UNL     1      18.335  46.620  -0.460  1.00  0.00     0.168 HD
HETATM    9  C11 UNL     1      16.273  46.698  -0.536  1.00  0.00     0.126 A 
HETATM   10  C20 UNL     1      15.214  47.382  -1.156  1.00  0.00     0.077 A 
HETATM   11  S1  UNL     1      13.521  47.172  -0.972  1.00  0.00    -0.065 SA
ENDROOT
BRANCH   1  12
HETATM   12  N2  UNL     1      11.839  48.705  -2.514  1.00  0.00    -0.279 N 
BRANCH  12  13
HETATM   13  C6  UNL     1      11.478  50.021  -3.081  1.00  0.00     0.165 C 
BRANCH  13  14
HETATM   14  C5  UNL     1      11.709  51.175  -2.077  1.00  0.00     0.114 C 
BRANCH  14  15
HETATM   15  N1  UNL     1      11.777  52.456  -2.782  1.00  0.00    -0.291 NA
HETATM   16  H4  UNL     1      10.847  52.850  -2.923  1.00  0.00     0.127 HD
BRANCH  15  17
HETATM   17  C4  UNL     1      12.681  53.427  -2.334  1.00  0.00     0.008 A 
HETATM   18  C3  UNL     1      12.293  54.628  -1.728  1.00  0.00     0.023 A 
HETATM   19  C2  UNL     1      13.241  55.532  -1.232  1.00  0.00     0.002 A 
HETATM   20  C1  UNL     1      14.597  55.230  -1.305  1.00  0.00     0.000 A 
HETATM   21  C26 UNL     1      15.004  54.022  -1.861  1.00  0.00     0.002 A 
HETATM   22  C25 UNL     1      14.050  53.125  -2.358  1.00  0.00     0.023 A 
ENDBRANCH  15  17
ENDBRANCH  14  15
ENDBRANCH  13  14
ENDBRANCH  12  13
BRANCH  12  23
HETATM   23  N7  UNL     1      10.747  48.029  -1.974  1.00  0.00    -0.276 N 
HETATM   24  C21 UNL     1      10.157  46.906  -2.498  1.00  0.00     0.116 A 
HETATM   25  C22 UNL     1       9.115  46.539  -1.676  1.00  0.00     0.021 A 
HETATM   26  C23 UNL     1       9.065  47.478  -0.620  1.00  0.00     0.021 A 
HETATM   27  C24 UNL     1      10.077  48.388  -0.833  1.00  0.00     0.116 A 
ENDBRANCH  12  23
ENDBRANCH   1  12
BRANCH   9  28
HETATM   28  N5  UNL     1      16.019  45.667   0.380  1.00  0.00    -0.341 N 
HETATM   29  H11 UNL     1      15.606  44.853  -0.059  1.00  0.00     0.167 HD
BRANCH  28  30
HETATM   30  C12 UNL     1      16.198  45.546   1.771  1.00  0.00     0.034 A 
HETATM   31  C13 UNL     1      17.040  44.528   2.243  1.00  0.00     0.032 A 
HETATM   32  C14 UNL     1      17.288  44.323   3.608  1.00  0.00     0.033 A 
HETATM   33  C15 UNL     1      16.659  45.182   4.508  1.00  0.00     0.042 A 
HETATM   34  N6  UNL     1      16.705  45.223   5.883  1.00  0.00    -0.365 N 
HETATM   35  C18 UNL     1      15.822  46.214   4.092  1.00  0.00    -0.006 A 
HETATM   36  C16 UNL     1      15.936  46.253   6.350  1.00  0.00     0.089 A 
HETATM   37  H14 UNL     1      17.241  44.586   6.456  1.00  0.00     0.165 HD
HETATM   38  C17 UNL     1      15.373  46.884   5.265  1.00  0.00     0.030 A 
HETATM   39  C19 UNL     1      15.596  46.395   2.711  1.00  0.00     0.043 A 
ENDBRANCH  28  30
ENDBRANCH   9  28
TORSDOF 8
ENDMDL
MODEL 7
REMARK minimizedAffinity -7.19774866
REMARK CNNscore 0.533784211
REMARK CNNaffinity 5.96221733
REMARK  8 active torsions:
REMARK  status: ('A' for Active; 'I' for Inactive)
REMARK    1  A    between atoms: C4_4  and  N1_5 
REMARK    2  A    between atoms: N1_5  and  C5_6 
REMARK    3  A    between atoms: C5_6  and  C6_7 
REMARK    4  A    between atoms: C6_7  and  N2_8 
REMARK    5  A    between atoms: N2_8  and  C7_9 
REMARK    6  A    between atoms: N2_8  and  N7_30 
REMARK    7  A    between atoms: C11_17  and  N5_18 
REMARK    8  A    between atoms: N5_18  and  C12_19 
ROOT
HETATM    1  C7  UNL     1      17.860  49.656   5.947  1.00  0.00     0.095 A 
HETATM    2  C8  UNL     1      17.132  49.533   4.774  1.00  0.00     0.069 A 
HETATM    3  C9  UNL     1      16.595  48.233   4.549  1.00  0.00     0.056 A 
HETATM    4  N3  UNL     1      15.831  47.879   3.489  1.00  0.00    -0.351 N 
ATOM      5  H3  UNL     1      15.585  48.524   2.738  1.00  0.00     0.166 HD
HETATM    6  C10 UNL     1      15.432  46.606   3.516  1.00  0.00     0.182 A 
HETATM    7  N4  UNL     1      15.704  45.685   4.451  1.00  0.00    -0.337 N 
ATOM      8  H4  UNL     1      15.336  44.738   4.364  1.00  0.00     0.168 HD
HETATM    9  C11 UNL     1      16.473  46.023   5.511  1.00  0.00     0.126 A 
HETATM   10  C20 UNL     1      16.938  47.348   5.558  1.00  0.00     0.077 A 
HETATM   11  S1  UNL     1      17.922  48.121   6.731  1.00  0.00    -0.065 SA
ENDROOT
BRANCH   1  12
HETATM   12  N2  UNL     1      18.467  50.798   6.421  1.00  0.00    -0.279 N 
BRANCH  12  13
HETATM   13  C6  UNL     1      18.754  51.971   5.569  1.00  0.00     0.165 C 
BRANCH  13  14
HETATM   14  C5  UNL     1      17.953  53.220   6.001  1.00  0.00     0.114 C 
BRANCH  14  15
HETATM   15  N1  UNL     1      16.519  52.995   5.813  1.00  0.00    -0.291 NA
HETATM   16  H4  UNL     1      16.059  52.782   6.698  1.00  0.00     0.127 HD
BRANCH  15  17
HETATM   17  C4  UNL     1      15.781  53.921   5.064  1.00  0.00     0.008 A 
HETATM   18  C3  UNL     1      14.392  54.065   5.157  1.00  0.00     0.023 A 
HETATM   19  C2  UNL     1      13.714  55.058   4.439  1.00  0.00     0.002 A 
HETATM   20  C1  UNL     1      14.423  55.946   3.638  1.00  0.00     0.000 A 
HETATM   21  C26 UNL     1      15.809  55.851   3.565  1.00  0.00     0.002 A 
HETATM   22  C25 UNL     1      16.480  54.854   4.284  1.00  0.00     0.023 A 
ENDBRANCH  15  17
ENDBRANCH  14  15
ENDBRANCH  13  14
ENDBRANCH  12  13
BRANCH  12  23
HETATM   23  N7  UNL     1      19.249  50.760   7.573  1.00  0.00    -0.276 N 
HETATM   24  C21 UNL     1      19.104  51.572   8.671  1.00  0.00     0.116 A 
HETATM   25  C22 UNL     1      20.061  51.225   9.598  1.00  0.00     0.021 A 
HETATM   26  C23 UNL     1      20.821  50.170   9.040  1.00  0.00     0.021 A 
HETATM   27  C24 UNL     1      20.303  49.910   7.790  1.00  0.00     0.116 A 
ENDBRANCH  12  23
ENDBRANCH   1  12
BRANCH   9  28
HETATM   28  N5  UNL     1      16.800  45.116   6.530  1.00  0.00    -0.341 N 
HETATM   29  H11 UNL     1      15.986  44.808   7.049  1.00  0.00     0.167 HD
BRANCH  28  30
HETATM   30  C12 UNL     1      18.016  44.572   6.986  1.00  0.00     0.034 A 
HETATM   31  C13 UNL     1      18.900  44.040   6.034  1.00  0.00     0.032 A 
HETATM   32  C14 UNL     1      20.136  43.478   6.381  1.00  0.00     0.033 A 
HETATM   33  C15 UNL     1      20.474  43.462   7.734  1.00  0.00     0.042 A 
HETATM   34  N6  UNL     1      21.597  42.982   8.367  1.00  0.00    -0.365 N 
HETATM   35  C18 UNL     1      19.638  43.986   8.717  1.00  0.00    -0.006 A 
HETATM   36  C16 UNL     1      21.505  43.193   9.716  1.00  0.00     0.089 A 
HETATM   37  H14 UNL     1      22.376  42.545   7.896  1.00  0.00     0.165 HD
HETATM   38  C17 UNL     1      20.302  43.811   9.965  1.00  0.00     0.030 A 
HETATM   39  C19 UNL     1      18.401  44.547   8.334  1.00  0.00     0.043 A 
ENDBRANCH  28  30
ENDBRANCH   9  28
TORSDOF 8
ENDMDL
MODEL 8
REMARK minimizedAffinity -6.40399981
REMARK CNNscore 0.428593099
REMARK CNNaffinity 5.97315598
REMARK  8 active torsions:
REMARK  status: ('A' for Active; 'I' for Inactive)
REMARK    1  A    between atoms: C4_4  and  N1_5 
REMARK    2  A    between atoms: N1_5  and  C5_6 
REMARK    3  A    between atoms: C5_6  and  C6_7 
REMARK    4  A    between atoms: C6_7  and  N2_8 
REMARK    5  A    between atoms: N2_8  and  C7_9 
REMARK    6  A    between atoms: N2_8  and  N7_30 
REMARK    7  A    between atoms: C11_17  and  N5_18 
REMARK    8  A    between atoms: N5_18  and  C12_19 
ROOT
HETATM    1  C7  UNL     1      13.277  58.529   0.453  1.00  0.00     0.095 A 
HETATM    2  C8  UNL     1      13.194  59.682   1.220  1.00  0.00     0.069 A 
HETATM    3  C9  UNL     1      13.248  59.457   2.625  1.00  0.00     0.056 A 
HETATM    4  N3  UNL     1      13.210  60.425   3.571  1.00  0.00    -0.351 N 
ATOM      5  H3  UNL     1      13.122  61.417   3.351  1.00  0.00     0.166 HD
HETATM    6  C10 UNL     1      13.298  59.961   4.819  1.00  0.00     0.182 A 
HETATM    7  N4  UNL     1      13.412  58.683   5.209  1.00  0.00    -0.337 N 
ATOM      8  H4  UNL     1      13.475  58.451   6.200  1.00  0.00     0.168 HD
HETATM    9  C11 UNL     1      13.442  57.705   4.275  1.00  0.00     0.126 A 
HETATM   10  C20 UNL     1      13.354  58.110   2.933  1.00  0.00     0.077 A 
HETATM   11  S1  UNL     1      13.357  57.163   1.502  1.00  0.00    -0.065 SA
ENDROOT
BRANCH   1  12
HETATM   12  N2  UNL     1      13.273  58.457  -0.922  1.00  0.00    -0.279 N 
BRANCH  12  13
HETATM   13  C6  UNL     1      13.758  57.276  -1.668  1.00  0.00     0.165 C 
BRANCH  13  14
HETATM   14  C5  UNL     1      12.630  56.257  -1.951  1.00  0.00     0.114 C 
BRANCH  14  15
HETATM   15  N1  UNL     1      12.902  54.993  -1.263  1.00  0.00    -0.291 NA
HETATM   16  H4  UNL     1      12.140  54.746  -0.631  1.00  0.00     0.127 HD
BRANCH  15  17
HETATM   17  C4  UNL     1      13.319  53.890  -2.018  1.00  0.00     0.008 A 
HETATM   18  C3  UNL     1      14.637  53.697  -2.447  1.00  0.00     0.023 A 
HETATM   19  C2  UNL     1      15.015  52.537  -3.137  1.00  0.00     0.002 A 
HETATM   20  C1  UNL     1      14.082  51.535  -3.380  1.00  0.00     0.000 A 
HETATM   21  C26 UNL     1      12.777  51.686  -2.923  1.00  0.00     0.002 A 
HETATM   22  C25 UNL     1      12.406  52.848  -2.236  1.00  0.00     0.023 A 
ENDBRANCH  15  17
ENDBRANCH  14  15
ENDBRANCH  13  14
ENDBRANCH  12  13
BRANCH  12  23
HETATM   23  N7  UNL     1      13.255  59.616  -1.694  1.00  0.00    -0.276 N 
HETATM   24  C21 UNL     1      14.356  60.326  -2.104  1.00  0.00     0.116 A 
HETATM   25  C22 UNL     1      13.927  61.402  -2.849  1.00  0.00     0.021 A 
HETATM   26  C23 UNL     1      12.514  61.348  -2.885  1.00  0.00     0.021 A 
HETATM   27  C24 UNL     1      12.128  60.242  -2.160  1.00  0.00     0.116 A 
ENDBRANCH  12  23
ENDBRANCH   1  12
BRANCH   9  28
HETATM   28  N5  UNL     1      13.563  56.347   4.604  1.00  0.00    -0.341 N 
HETATM   29  H11 UNL     1      12.675  55.931   4.862  1.00  0.00     0.167 HD
BRANCH  28  30
HETATM   30  C12 UNL     1      14.656  55.463   4.671  1.00  0.00     0.034 A 
HETATM   31  C13 UNL     1      14.426  54.161   5.142  1.00  0.00     0.032 A 
HETATM   32  C14 UNL     1      15.444  53.203   5.244  1.00  0.00     0.033 A 
HETATM   33  C15 UNL     1      16.726  53.588   4.855  1.00  0.00     0.042 A 
HETATM   34  N6  UNL     1      17.906  52.880   4.847  1.00  0.00    -0.365 N 
HETATM   35  C18 UNL     1      17.007  54.863   4.371  1.00  0.00    -0.006 A 
HETATM   36  C16 UNL     1      18.921  53.661   4.365  1.00  0.00     0.089 A 
HETATM   37  H14 UNL     1      17.999  51.920   5.148  1.00  0.00     0.165 HD
HETATM   38  C17 UNL     1      18.396  54.896   4.064  1.00  0.00     0.030 A 
HETATM   39  C19 UNL     1      15.958  55.803   4.278  1.00  0.00     0.043 A 
ENDBRANCH  28  30
ENDBRANCH   9  28
TORSDOF 8
ENDMDL
MODEL 9
REMARK minimizedAffinity -7.57570648
REMARK CNNscore 0.391314328
REMARK CNNaffinity 6.25791502
REMARK  8 active torsions:
REMARK  status: ('A' for Active; 'I' for Inactive)
REMARK    1  A    between atoms: C4_4  and  N1_5 
REMARK    2  A    between atoms: N1_5  and  C5_6 
REMARK    3  A    between atoms: C5_6  and  C6_7 
REMARK    4  A    between atoms: C6_7  and  N2_8 
REMARK    5  A    between atoms: N2_8  and  C7_9 
REMARK    6  A    between atoms: N2_8  and  N7_30 
REMARK    7  A    between atoms: C11_17  and  N5_18 
REMARK    8  A    between atoms: N5_18  and  C12_19 
ROOT
HETATM    1  C7  UNL     1      13.610  61.501   3.316  1.00  0.00     0.095 A 
HETATM    2  C8  UNL     1      12.972  60.987   2.197  1.00  0.00     0.069 A 
HETATM    3  C9  UNL     1      13.222  59.606   1.961  1.00  0.00     0.056 A 
HETATM    4  N3  UNL     1      12.691  58.880   0.948  1.00  0.00    -0.351 N 
ATOM      5  H3  UNL     1      12.067  59.276   0.246  1.00  0.00     0.166 HD
HETATM    6  C10 UNL     1      13.062  57.598   0.954  1.00  0.00     0.182 A 
HETATM    7  N4  UNL     1      13.876  56.988   1.827  1.00  0.00    -0.337 N 
ATOM      8  H4  UNL     1      14.084  55.994   1.729  1.00  0.00     0.168 HD
HETATM    9  C11 UNL     1      14.420  57.702   2.838  1.00  0.00     0.126 A 
HETATM   10  C20 UNL     1      14.080  59.064   2.904  1.00  0.00     0.077 A 
HETATM   11  S1  UNL     1      14.574  60.261   4.029  1.00  0.00    -0.065 SA
ENDROOT
BRANCH   1  12
HETATM   12  N2  UNL     1      13.527  62.791   3.789  1.00  0.00    -0.279 N 
BRANCH  12  13
HETATM   13  C6  UNL     1      12.520  63.221   4.783  1.00  0.00     0.165 C 
BRANCH  13  14
HETATM   14  C5  UNL     1      11.657  62.044   5.291  1.00  0.00     0.114 C 
BRANCH  14  15
HETATM   15  N1  UNL     1      11.020  62.391   6.562  1.00  0.00    -0.291 NA
HETATM   16  H4  UNL     1      10.074  62.743   6.416  1.00  0.00     0.127 HD
BRANCH  15  17
HETATM   17  C4  UNL     1      11.066  61.469   7.615  1.00  0.00     0.008 A 
HETATM   18  C3  UNL     1      10.710  60.122   7.484  1.00  0.00     0.023 A 
HETATM   19  C2  UNL     1      10.845  59.227   8.553  1.00  0.00     0.002 A 
HETATM   20  C1  UNL     1      11.372  59.661   9.765  1.00  0.00     0.000 A 
HETATM   21  C26 UNL     1      11.774  60.985   9.903  1.00  0.00     0.002 A 
HETATM   22  C25 UNL     1      11.634  61.875   8.832  1.00  0.00     0.023 A 
ENDBRANCH  15  17
ENDBRANCH  14  15
ENDBRANCH  13  14
ENDBRANCH  12  13
BRANCH  12  23
HETATM   23  N7  UNL     1      14.051  63.852   3.054  1.00  0.00    -0.276 N 
HETATM   24  C21 UNL     1      14.336  63.837   1.712  1.00  0.00     0.116 A 
HETATM   25  C22 UNL     1      14.833  65.072   1.359  1.00  0.00     0.021 A 
HETATM   26  C23 UNL     1      14.859  65.863   2.531  1.00  0.00     0.021 A 
HETATM   27  C24 UNL     1      14.379  65.083   3.561  1.00  0.00     0.116 A 
ENDBRANCH  12  23
ENDBRANCH   1  12
BRANCH   9  28
HETATM   28  N5  UNL     1      15.278  57.134   3.791  1.00  0.00    -0.341 N 
HETATM   29  H11 UNL     1      15.903  57.816   4.204  1.00  0.00     0.167 HD
BRANCH  28  30
HETATM   30  C12 UNL     1      15.459  55.821   4.267  1.00  0.00     0.034 A 
HETATM   31  C13 UNL     1      14.331  55.122   4.722  1.00  0.00     0.032 A 
HETATM   32  C14 UNL     1      14.400  53.810   5.212  1.00  0.00     0.033 A 
HETATM   33  C15 UNL     1      15.655  53.202   5.235  1.00  0.00     0.042 A 
HETATM   34  N6  UNL     1      16.031  51.948   5.657  1.00  0.00    -0.365 N 
HETATM   35  C18 UNL     1      16.804  53.848   4.786  1.00  0.00    -0.006 A 
HETATM   36  C16 UNL     1      17.376  51.773   5.480  1.00  0.00     0.089 A 
HETATM   37  H14 UNL     1      15.396  51.258   6.034  1.00  0.00     0.165 HD
HETATM   38  C17 UNL     1      17.884  52.934   4.944  1.00  0.00     0.030 A 
HETATM   39  C19 UNL     1      16.699  55.167   4.296  1.00  0.00     0.043 A 
ENDBRANCH  28  30
ENDBRANCH   9  28
TORSDOF 8
ENDMDL
