MODEL 1
REMARK minimizedAffinity -10.1534147
REMARK  6 active torsions:
REMARK  status: ('A' for Active; 'I' for Inactive)
REMARK    1  A    between atoms: C3_5  and  C4_6 
REMARK    2  A    between atoms: C13_19  and  N3_20 
REMARK    3  A    between atoms: N3_20  and  C14_21 
REMARK    4  A    between atoms: C17_24  and  C18_25 
REMARK    5  A    between atoms: C18_25  and  C19_26 
REMARK    6  A    between atoms: C19_26  and  O3_28 
ROOT
HETATM    1  C1  UNL     1       8.309  -7.036  29.480  1.00  0.00     0.161 C 
HETATM    2  N1  UNL     1       8.122  -5.861  30.313  1.00  0.00    -0.303 N 
HETATM    3  C2  UNL     1       9.136  -5.447  31.162  1.00  0.00     0.260 A 
HETATM    4  O1  UNL     1      10.219  -6.023  31.262  1.00  0.00    -0.267 OA
HETATM    5  C3  UNL     1       8.875  -4.224  31.995  1.00  0.00     0.047 A 
HETATM    6  C10 UNL     1       7.704  -3.572  31.908  1.00  0.00     0.034 A 
HETATM    7  C11 UNL     1       6.681  -4.058  30.997  1.00  0.00     0.026 A 
HETATM    8  C12 UNL     1       5.458  -3.453  30.844  1.00  0.00     0.121 A 
HETATM    9  N2  UNL     1       4.506  -3.898  30.002  1.00  0.00    -0.201 N 
ATOM     10  H2  UNL     1       3.610  -3.418  29.917  1.00  0.00     0.183 HD
HETATM   11  C13 UNL     1       4.780  -4.992  29.281  1.00  0.00     0.684 A 
HETATM   12  N4  UNL     1       5.948  -5.648  29.362  1.00  0.00    -0.175 N 
ATOM     13  H4  UNL     1       6.125  -6.478  28.796  1.00  0.00     0.186 HD
HETATM   14  C22 UNL     1       6.883  -5.178  30.215  1.00  0.00     0.137 A 
ENDROOT
BRANCH  11  15
HETATM   15  N3  UNL     1       3.869  -5.532  28.380  1.00  0.00    -0.192 N 
HETATM   16  H9  UNL     1       3.434  -4.783  27.861  1.00  0.00     0.184 HD
BRANCH  15  17
HETATM   17  C14 UNL     1       3.502  -6.835  28.025  1.00  0.00     0.049 A 
HETATM   18  C15 UNL     1       4.412  -7.833  27.668  1.00  0.00     0.030 A 
HETATM   19  C16 UNL     1       3.983  -9.125  27.334  1.00  0.00     0.010 A 
HETATM   20  C17 UNL     1       2.624  -9.454  27.359  1.00  0.00    -0.048 A 
HETATM   21  C20 UNL     1       1.704  -8.464  27.713  1.00  0.00     0.010 A 
HETATM   22  C21 UNL     1       2.141  -7.177  28.043  1.00  0.00     0.030 A 
BRANCH  20  23
HETATM   23  C18 UNL     1       2.161 -10.843  26.993  1.00  0.00     0.148 C 
BRANCH  23  24
HETATM   24  C19 UNL     1       3.239 -11.714  26.397  1.00  0.00     0.143 C 
HETATM   25  O2  UNL     1       3.116 -12.698  25.688  1.00  0.00    -0.650 OA
BRANCH  24  26
HETATM   26  O3  UNL     1       4.473 -11.300  26.761  1.00  0.00    -0.776 OA
HETATM   27  H14 UNL     1       5.069 -11.942  26.320  1.00  0.00     0.167 HD
ENDBRANCH  24  26
ENDBRANCH  23  24
ENDBRANCH  20  23
ENDBRANCH  15  17
ENDBRANCH  11  15
BRANCH   5  28
HETATM   28  C4  UNL     1       9.919  -3.736  32.918  1.00  0.00     0.023 A 
HETATM   29  C5  UNL     1       9.927  -4.127  34.270  1.00  0.00     0.046 A 
HETATM   30 CL1  UNL     1       8.708  -5.164  34.930  1.00  0.00    -0.083 Cl
HETATM   31  C6  UNL     1      10.927  -3.676  35.140  1.00  0.00     0.025 A 
HETATM   32  C7  UNL     1      11.933  -2.831  34.675  1.00  0.00     0.003 A 
HETATM   33  C8  UNL     1      11.940  -2.436  33.340  1.00  0.00     0.025 A 
HETATM   34  C9  UNL     1      10.942  -2.884  32.466  1.00  0.00     0.046 A 
HETATM   35 CL2  UNL     1      11.018  -2.335  30.825  1.00  0.00    -0.083 Cl
ENDBRANCH   5  28
TORSDOF 6
ENDMDL
MODEL 2
REMARK minimizedAffinity -10.0912113
REMARK  6 active torsions:
REMARK  status: ('A' for Active; 'I' for Inactive)
REMARK    1  A    between atoms: C3_5  and  C4_6 
REMARK    2  A    between atoms: C13_19  and  N3_20 
REMARK    3  A    between atoms: N3_20  and  C14_21 
REMARK    4  A    between atoms: C17_24  and  C18_25 
REMARK    5  A    between atoms: C18_25  and  C19_26 
REMARK    6  A    between atoms: C19_26  and  O3_28 
ROOT
HETATM    1  C1  UNL     1       5.480  -3.579  30.452  1.00  0.00     0.161 C 
HETATM    2  N1  UNL     1       6.758  -4.221  30.704  1.00  0.00    -0.303 N 
HETATM    3  C2  UNL     1       7.628  -3.686  31.640  1.00  0.00     0.260 A 
HETATM    4  O1  UNL     1       7.385  -2.674  32.296  1.00  0.00    -0.267 OA
HETATM    5  C3  UNL     1       8.933  -4.401  31.849  1.00  0.00     0.047 A 
HETATM    6  C10 UNL     1       9.226  -5.510  31.151  1.00  0.00     0.034 A 
HETATM    7  C11 UNL     1       8.270  -6.020  30.183  1.00  0.00     0.026 A 
HETATM    8  C12 UNL     1       8.488  -7.146  29.427  1.00  0.00     0.121 A 
HETATM    9  N2  UNL     1       7.606  -7.624  28.529  1.00  0.00    -0.201 N 
ATOM     10  H2  UNL     1       7.806  -8.466  27.989  1.00  0.00     0.183 HD
HETATM   11  C13 UNL     1       6.457  -6.954  28.373  1.00  0.00     0.684 A 
HETATM   12  N4  UNL     1       6.156  -5.846  29.069  1.00  0.00    -0.175 N 
ATOM     13  H4  UNL     1       5.270  -5.361  28.927  1.00  0.00     0.186 HD
HETATM   14  C22 UNL     1       7.061  -5.391  29.962  1.00  0.00     0.137 A 
ENDROOT
BRANCH  11  15
HETATM   15  N3  UNL     1       5.477  -7.364  27.476  1.00  0.00    -0.192 N 
HETATM   16  H9  UNL     1       5.873  -7.397  26.547  1.00  0.00     0.184 HD
BRANCH  15  17
HETATM   17  C14 UNL     1       4.146  -7.776  27.604  1.00  0.00     0.049 A 
HETATM   18  C15 UNL     1       3.126  -6.973  28.121  1.00  0.00     0.030 A 
HETATM   19  C16 UNL     1       1.807  -7.440  28.213  1.00  0.00     0.010 A 
HETATM   20  C17 UNL     1       1.475  -8.726  27.777  1.00  0.00    -0.048 A 
HETATM   21  C20 UNL     1       2.486  -9.539  27.260  1.00  0.00     0.010 A 
HETATM   22  C21 UNL     1       3.800  -9.066  27.174  1.00  0.00     0.030 A 
BRANCH  20  23
HETATM   23  C18 UNL     1       0.056  -9.232  27.882  1.00  0.00     0.148 C 
BRANCH  23  24
HETATM   24  C19 UNL     1      -0.940  -8.446  27.065  1.00  0.00     0.143 C 
HETATM   25  O2  UNL     1      -1.133  -8.481  25.863  1.00  0.00    -0.650 OA
BRANCH  24  26
HETATM   26  O3  UNL     1      -1.658  -7.599  27.835  1.00  0.00    -0.776 OA
HETATM   27  H14 UNL     1      -2.253  -7.154  27.194  1.00  0.00     0.167 HD
ENDBRANCH  24  26
ENDBRANCH  23  24
ENDBRANCH  20  23
ENDBRANCH  15  17
ENDBRANCH  11  15
BRANCH   5  28
HETATM   28  C4  UNL     1       9.900  -3.878  32.835  1.00  0.00     0.023 A 
HETATM   29  C5  UNL     1       9.832  -4.262  34.187  1.00  0.00     0.046 A 
HETATM   30 CL1  UNL     1       8.604  -5.333  34.773  1.00  0.00    -0.083 Cl
HETATM   31  C6  UNL     1      10.759  -3.778  35.116  1.00  0.00     0.025 A 
HETATM   32  C7  UNL     1      11.768  -2.905  34.712  1.00  0.00     0.003 A 
HETATM   33  C8  UNL     1      11.850  -2.515  33.377  1.00  0.00     0.025 A 
HETATM   34  C9  UNL     1      10.925  -2.997  32.444  1.00  0.00     0.046 A 
HETATM   35 CL2  UNL     1      11.089  -2.454  30.808  1.00  0.00    -0.083 Cl
ENDBRANCH   5  28
TORSDOF 6
ENDMDL
MODEL 3
REMARK minimizedAffinity -10.0533314
REMARK  6 active torsions:
REMARK  status: ('A' for Active; 'I' for Inactive)
REMARK    1  A    between atoms: C3_5  and  C4_6 
REMARK    2  A    between atoms: C13_19  and  N3_20 
REMARK    3  A    between atoms: N3_20  and  C14_21 
REMARK    4  A    between atoms: C17_24  and  C18_25 
REMARK    5  A    between atoms: C18_25  and  C19_26 
REMARK    6  A    between atoms: C19_26  and  O3_28 
ROOT
HETATM    1  C1  UNL     1       5.337  -3.724  30.368  1.00  0.00     0.161 C 
HETATM    2  N1  UNL     1       6.628  -4.350  30.595  1.00  0.00    -0.303 N 
HETATM    3  C2  UNL     1       7.506  -3.809  31.520  1.00  0.00     0.260 A 
HETATM    4  O1  UNL     1       7.260  -2.803  32.185  1.00  0.00    -0.267 OA
HETATM    5  C3  UNL     1       8.823  -4.507  31.704  1.00  0.00     0.047 A 
HETATM    6  C10 UNL     1       9.121  -5.608  30.995  1.00  0.00     0.034 A 
HETATM    7  C11 UNL     1       8.155  -6.126  30.040  1.00  0.00     0.026 A 
HETATM    8  C12 UNL     1       8.376  -7.245  29.275  1.00  0.00     0.121 A 
HETATM    9  N2  UNL     1       7.486  -7.731  28.389  1.00  0.00    -0.201 N 
ATOM     10  H2  UNL     1       7.688  -8.566  27.841  1.00  0.00     0.183 HD
HETATM   11  C13 UNL     1       6.326  -7.075  28.255  1.00  0.00     0.684 A 
HETATM   12  N4  UNL     1       6.021  -5.975  28.962  1.00  0.00    -0.175 N 
ATOM     13  H4  UNL     1       5.127  -5.501  28.837  1.00  0.00     0.186 HD
HETATM   14  C22 UNL     1       6.934  -5.513  29.843  1.00  0.00     0.137 A 
ENDROOT
BRANCH  11  15
HETATM   15  N3  UNL     1       5.337  -7.494  27.371  1.00  0.00    -0.192 N 
HETATM   16  H9  UNL     1       5.722  -7.532  26.439  1.00  0.00     0.184 HD
BRANCH  15  17
HETATM   17  C14 UNL     1       4.009  -7.909  27.518  1.00  0.00     0.049 A 
HETATM   18  C15 UNL     1       2.995  -7.111  28.056  1.00  0.00     0.030 A 
HETATM   19  C16 UNL     1       1.679  -7.580  28.165  1.00  0.00     0.010 A 
HETATM   20  C17 UNL     1       1.341  -8.864  27.726  1.00  0.00    -0.048 A 
HETATM   21  C20 UNL     1       2.345  -9.671  27.187  1.00  0.00     0.010 A 
HETATM   22  C21 UNL     1       3.657  -9.196  27.084  1.00  0.00     0.030 A 
BRANCH  20  23
HETATM   23  C18 UNL     1      -0.075  -9.372  27.850  1.00  0.00     0.148 C 
BRANCH  23  24
HETATM   24  C19 UNL     1      -1.126  -8.372  27.437  1.00  0.00     0.143 C 
HETATM   25  O2  UNL     1      -1.969  -7.826  28.128  1.00  0.00    -0.650 OA
BRANCH  24  26
HETATM   26  O3  UNL     1      -1.078  -8.115  26.111  1.00  0.00    -0.776 OA
HETATM   27  H14 UNL     1      -1.802  -7.467  25.976  1.00  0.00     0.167 HD
ENDBRANCH  24  26
ENDBRANCH  23  24
ENDBRANCH  20  23
ENDBRANCH  15  17
ENDBRANCH  11  15
BRANCH   5  28
HETATM   28  C4  UNL     1       9.799  -3.976  32.676  1.00  0.00     0.023 A 
HETATM   29  C5  UNL     1      10.791  -3.060  32.277  1.00  0.00     0.046 A 
HETATM   30 CL1  UNL     1      10.943  -2.537  30.634  1.00  0.00    -0.083 Cl
HETATM   31  C6  UNL     1      11.705  -2.545  33.203  1.00  0.00     0.025 A 
HETATM   32  C7  UNL     1      11.643  -2.933  34.540  1.00  0.00     0.003 A 
HETATM   33  C8  UNL     1      10.667  -3.837  34.953  1.00  0.00     0.025 A 
HETATM   34  C9  UNL     1       9.751  -4.355  34.030  1.00  0.00     0.046 A 
HETATM   35 CL2  UNL     1       8.578  -5.483  34.622  1.00  0.00    -0.083 Cl
ENDBRANCH   5  28
TORSDOF 6
ENDMDL
MODEL 4
REMARK minimizedAffinity -9.90916729
REMARK  6 active torsions:
REMARK  status: ('A' for Active; 'I' for Inactive)
REMARK    1  A    between atoms: C3_5  and  C4_6 
REMARK    2  A    between atoms: C13_19  and  N3_20 
REMARK    3  A    between atoms: N3_20  and  C14_21 
REMARK    4  A    between atoms: C17_24  and  C18_25 
REMARK    5  A    between atoms: C18_25  and  C19_26 
REMARK    6  A    between atoms: C19_26  and  O3_28 
ROOT
HETATM    1  C1  UNL     1       8.340  -7.097  29.309  1.00  0.00     0.161 C 
HETATM    2  N1  UNL     1       8.125  -5.942  30.163  1.00  0.00    -0.303 N 
HETATM    3  C2  UNL     1       9.113  -5.543  31.048  1.00  0.00     0.260 A 
HETATM    4  O1  UNL     1      10.196  -6.115  31.165  1.00  0.00    -0.267 OA
HETATM    5  C3  UNL     1       8.822  -4.340  31.902  1.00  0.00     0.047 A 
HETATM    6  C10 UNL     1       7.651  -3.692  31.797  1.00  0.00     0.034 A 
HETATM    7  C11 UNL     1       6.656  -4.162  30.848  1.00  0.00     0.026 A 
HETATM    8  C12 UNL     1       5.434  -3.560  30.676  1.00  0.00     0.121 A 
HETATM    9  N2  UNL     1       4.507  -3.990  29.798  1.00  0.00    -0.201 N 
ATOM     10  H2  UNL     1       3.611  -3.513  29.699  1.00  0.00     0.183 HD
HETATM   11  C13 UNL     1       4.807  -5.066  29.060  1.00  0.00     0.684 A 
HETATM   12  N4  UNL     1       5.976  -5.718  29.158  1.00  0.00    -0.175 N 
ATOM     13  H4  UNL     1       6.173  -6.534  28.578  1.00  0.00     0.186 HD
HETATM   14  C22 UNL     1       6.885  -5.263  30.047  1.00  0.00     0.137 A 
ENDROOT
BRANCH  11  15
HETATM   15  N3  UNL     1       3.923  -5.590  28.122  1.00  0.00    -0.192 N 
HETATM   16  H9  UNL     1       3.656  -4.860  27.477  1.00  0.00     0.184 HD
BRANCH  15  17
HETATM   17  C14 UNL     1       3.411  -6.868  27.870  1.00  0.00     0.049 A 
HETATM   18  C15 UNL     1       4.195  -7.967  27.511  1.00  0.00     0.030 A 
HETATM   19  C16 UNL     1       3.623  -9.227  27.284  1.00  0.00     0.010 A 
HETATM   20  C17 UNL     1       2.246  -9.420  27.422  1.00  0.00    -0.048 A 
HETATM   21  C20 UNL     1       1.451  -8.328  27.780  1.00  0.00     0.010 A 
HETATM   22  C21 UNL     1       2.029  -7.074  28.002  1.00  0.00     0.030 A 
BRANCH  20  23
HETATM   23  C18 UNL     1       1.629 -10.774  27.171  1.00  0.00     0.148 C 
BRANCH  23  24
HETATM   24  C19 UNL     1       2.609 -11.919  27.236  1.00  0.00     0.143 C 
HETATM   25  O2  UNL     1       2.543 -12.940  27.899  1.00  0.00    -0.650 OA
BRANCH  24  26
HETATM   26  O3  UNL     1       3.684 -11.701  26.447  1.00  0.00    -0.776 OA
HETATM   27  H14 UNL     1       4.235 -12.501  26.582  1.00  0.00     0.167 HD
ENDBRANCH  24  26
ENDBRANCH  23  24
ENDBRANCH  20  23
ENDBRANCH  15  17
ENDBRANCH  11  15
BRANCH   5  28
HETATM   28  C4  UNL     1       9.838  -3.868  32.864  1.00  0.00     0.023 A 
HETATM   29  C5  UNL     1      10.859  -2.987  32.461  1.00  0.00     0.046 A 
HETATM   30 CL1  UNL     1      11.002  -2.439  30.825  1.00  0.00    -0.083 Cl
HETATM   31  C6  UNL     1      11.811  -2.528  33.378  1.00  0.00     0.025 A 
HETATM   32  C7  UNL     1      11.760  -2.938  34.709  1.00  0.00     0.003 A 
HETATM   33  C8  UNL     1      10.755  -3.809  35.124  1.00  0.00     0.025 A 
HETATM   34  C9  UNL     1       9.801  -4.271  34.211  1.00  0.00     0.046 A 
HETATM   35 CL2  UNL     1       8.593  -5.361  34.806  1.00  0.00    -0.083 Cl
ENDBRANCH   5  28
TORSDOF 6
ENDMDL
MODEL 5
REMARK minimizedAffinity -9.78596306
REMARK  6 active torsions:
REMARK  status: ('A' for Active; 'I' for Inactive)
REMARK    1  A    between atoms: C3_5  and  C4_6 
REMARK    2  A    between atoms: C13_19  and  N3_20 
REMARK    3  A    between atoms: N3_20  and  C14_21 
REMARK    4  A    between atoms: C17_24  and  C18_25 
REMARK    5  A    between atoms: C18_25  and  C19_26 
REMARK    6  A    between atoms: C19_26  and  O3_28 
ROOT
HETATM    1  C1  UNL     1       9.500  -7.526  29.529  1.00  0.00     0.161 C 
HETATM    2  N1  UNL     1       9.051  -6.378  30.297  1.00  0.00    -0.303 N 
HETATM    3  C2  UNL     1       9.888  -5.808  31.243  1.00  0.00     0.260 A 
HETATM    4  O1  UNL     1      11.023  -6.219  31.484  1.00  0.00    -0.267 OA
HETATM    5  C3  UNL     1       9.359  -4.624  32.001  1.00  0.00     0.047 A 
HETATM    6  C10 UNL     1       8.127  -4.150  31.760  1.00  0.00     0.034 A 
HETATM    7  C11 UNL     1       7.298  -4.793  30.754  1.00  0.00     0.026 A 
HETATM    8  C12 UNL     1       6.027  -4.375  30.443  1.00  0.00     0.121 A 
HETATM    9  N2  UNL     1       5.254  -4.965  29.512  1.00  0.00    -0.201 N 
ATOM     10  H2  UNL     1       4.315  -4.622  29.309  1.00  0.00     0.183 HD
HETATM   11  C13 UNL     1       5.764  -6.019  28.862  1.00  0.00     0.684 A 
HETATM   12  N4  UNL     1       6.996  -6.497  29.097  1.00  0.00    -0.175 N 
ATOM     13  H4  UNL     1       7.355  -7.301  28.582  1.00  0.00     0.186 HD
HETATM   14  C22 UNL     1       7.747  -5.883  30.036  1.00  0.00     0.137 A 
ENDROOT
BRANCH  11  15
HETATM   15  N3  UNL     1       5.052  -6.699  27.880  1.00  0.00    -0.192 N 
HETATM   16  H9  UNL     1       5.617  -6.761  27.045  1.00  0.00     0.184 HD
BRANCH  15  17
HETATM   17  C14 UNL     1       3.805  -7.333  27.841  1.00  0.00     0.049 A 
HETATM   18  C15 UNL     1       2.610  -6.732  28.243  1.00  0.00     0.030 A 
HETATM   19  C16 UNL     1       1.388  -7.417  28.167  1.00  0.00     0.010 A 
HETATM   20  C17 UNL     1       1.333  -8.724  27.675  1.00  0.00    -0.048 A 
HETATM   21  C20 UNL     1       2.521  -9.336  27.271  1.00  0.00     0.010 A 
HETATM   22  C21 UNL     1       3.736  -8.647  27.352  1.00  0.00     0.030 A 
BRANCH  20  23
HETATM   23  C18 UNL     1       0.020  -9.463  27.600  1.00  0.00     0.148 C 
BRANCH  23  24
HETATM   24  C19 UNL     1      -1.188  -8.565  27.495  1.00  0.00     0.143 C 
HETATM   25  O2  UNL     1      -1.996  -8.273  28.360  1.00  0.00    -0.650 OA
BRANCH  24  26
HETATM   26  O3  UNL     1      -1.339  -8.077  26.244  1.00  0.00    -0.776 OA
HETATM   27  H14 UNL     1      -2.147  -7.524  26.310  1.00  0.00     0.167 HD
ENDBRANCH  24  26
ENDBRANCH  23  24
ENDBRANCH  20  23
ENDBRANCH  15  17
ENDBRANCH  11  15
BRANCH   5  28
HETATM   28  C4  UNL     1      10.207  -3.975  33.021  1.00  0.00     0.023 A 
HETATM   29  C5  UNL     1      11.247  -3.103  32.648  1.00  0.00     0.046 A 
HETATM   30 CL1  UNL     1      11.610  -2.771  30.988  1.00  0.00    -0.083 Cl
HETATM   31  C6  UNL     1      12.039  -2.477  33.617  1.00  0.00     0.025 A 
HETATM   32  C7  UNL     1      11.806  -2.709  34.971  1.00  0.00     0.003 A 
HETATM   33  C8  UNL     1      10.780  -3.568  35.358  1.00  0.00     0.025 A 
HETATM   34  C9  UNL     1       9.985  -4.197  34.393  1.00  0.00     0.046 A 
HETATM   35 CL2  UNL     1       8.740  -5.260  34.958  1.00  0.00    -0.083 Cl
ENDBRANCH   5  28
TORSDOF 6
ENDMDL
MODEL 6
REMARK minimizedAffinity -9.7191143
REMARK  6 active torsions:
REMARK  status: ('A' for Active; 'I' for Inactive)
REMARK    1  A    between atoms: C3_5  and  C4_6 
REMARK    2  A    between atoms: C13_19  and  N3_20 
REMARK    3  A    between atoms: N3_20  and  C14_21 
REMARK    4  A    between atoms: C17_24  and  C18_25 
REMARK    5  A    between atoms: C18_25  and  C19_26 
REMARK    6  A    between atoms: C19_26  and  O3_28 
ROOT
HETATM    1  C1  UNL     1       9.727  -7.648  29.478  1.00  0.00     0.161 C 
HETATM    2  N1  UNL     1       9.207  -6.524  30.235  1.00  0.00    -0.303 N 
HETATM    3  C2  UNL     1       9.997  -5.909  31.192  1.00  0.00     0.260 A 
HETATM    4  O1  UNL     1      11.148  -6.260  31.453  1.00  0.00    -0.267 OA
HETATM    5  C3  UNL     1       9.395  -4.753  31.938  1.00  0.00     0.047 A 
HETATM    6  C10 UNL     1       8.143  -4.344  31.675  1.00  0.00     0.034 A 
HETATM    7  C11 UNL     1       7.366  -5.032  30.658  1.00  0.00     0.026 A 
HETATM    8  C12 UNL     1       6.080  -4.681  30.325  1.00  0.00     0.121 A 
HETATM    9  N2  UNL     1       5.354  -5.314  29.383  1.00  0.00    -0.201 N 
ATOM     10  H2  UNL     1       4.402  -5.020  29.165  1.00  0.00     0.183 HD
HETATM   11  C13 UNL     1       5.929  -6.341  28.745  1.00  0.00     0.684 A 
HETATM   12  N4  UNL     1       7.181  -6.753  29.002  1.00  0.00    -0.175 N 
ATOM     13  H4  UNL     1       7.590  -7.539  28.495  1.00  0.00     0.186 HD
HETATM   14  C22 UNL     1       7.884  -6.099  29.951  1.00  0.00     0.137 A 
ENDROOT
BRANCH  11  15
HETATM   15  N3  UNL     1       5.270  -7.059  27.754  1.00  0.00    -0.192 N 
HETATM   16  H9  UNL     1       5.886  -7.170  26.961  1.00  0.00     0.184 HD
BRANCH  15  17
HETATM   17  C14 UNL     1       4.018  -7.678  27.666  1.00  0.00     0.049 A 
HETATM   18  C15 UNL     1       2.808  -7.037  27.946  1.00  0.00     0.030 A 
HETATM   19  C16 UNL     1       1.583  -7.709  27.827  1.00  0.00     0.010 A 
HETATM   20  C17 UNL     1       1.539  -9.043  27.411  1.00  0.00    -0.048 A 
HETATM   21  C20 UNL     1       2.742  -9.695  27.129  1.00  0.00     0.010 A 
HETATM   22  C21 UNL     1       3.960  -9.018  27.253  1.00  0.00     0.030 A 
BRANCH  20  23
HETATM   23  C18 UNL     1       0.221  -9.768  27.289  1.00  0.00     0.148 C 
BRANCH  23  24
HETATM   24  C19 UNL     1      -0.937  -9.055  27.943  1.00  0.00     0.143 C 
HETATM   25  O2  UNL     1      -1.362  -9.176  29.079  1.00  0.00    -0.650 OA
BRANCH  24  26
HETATM   26  O3  UNL     1      -1.545  -8.204  27.087  1.00  0.00    -0.776 OA
HETATM   27  H14 UNL     1      -2.269  -7.817  27.624  1.00  0.00     0.167 HD
ENDBRANCH  24  26
ENDBRANCH  23  24
ENDBRANCH  20  23
ENDBRANCH  15  17
ENDBRANCH  11  15
BRANCH   5  28
HETATM   28  C4  UNL     1      10.191  -4.058  32.970  1.00  0.00     0.023 A 
HETATM   29  C5  UNL     1       9.953  -4.284  34.339  1.00  0.00     0.046 A 
HETATM   30 CL1  UNL     1       8.705  -5.352  34.886  1.00  0.00    -0.083 Cl
HETATM   31  C6  UNL     1      10.719  -3.638  35.315  1.00  0.00     0.025 A 
HETATM   32  C7  UNL     1      11.734  -2.758  34.943  1.00  0.00     0.003 A 
HETATM   33  C8  UNL     1      11.983  -2.524  33.592  1.00  0.00     0.025 A 
HETATM   34  C9  UNL     1      11.220  -3.168  32.612  1.00  0.00     0.046 A 
HETATM   35 CL2  UNL     1      11.586  -2.812  30.957  1.00  0.00    -0.083 Cl
ENDBRANCH   5  28
TORSDOF 6
ENDMDL
MODEL 7
REMARK minimizedAffinity -9.02913094
REMARK  6 active torsions:
REMARK  status: ('A' for Active; 'I' for Inactive)
REMARK    1  A    between atoms: C3_5  and  C4_6 
REMARK    2  A    between atoms: C13_19  and  N3_20 
REMARK    3  A    between atoms: N3_20  and  C14_21 
REMARK    4  A    between atoms: C17_24  and  C18_25 
REMARK    5  A    between atoms: C18_25  and  C19_26 
REMARK    6  A    between atoms: C19_26  and  O3_28 
ROOT
HETATM    1  C1  UNL     1       7.554  -7.890  29.240  1.00  0.00     0.161 C 
HETATM    2  N1  UNL     1       7.497  -6.620  29.941  1.00  0.00    -0.303 N 
HETATM    3  C2  UNL     1       8.613  -6.152  30.615  1.00  0.00     0.260 A 
HETATM    4  O1  UNL     1       9.684  -6.756  30.662  1.00  0.00    -0.267 OA
HETATM    5  C3  UNL     1       8.484  -4.831  31.319  1.00  0.00     0.047 A 
HETATM    6  C10 UNL     1       7.329  -4.146  31.285  1.00  0.00     0.034 A 
HETATM    7  C11 UNL     1       6.195  -4.692  30.559  1.00  0.00     0.026 A 
HETATM    8  C12 UNL     1       4.979  -4.060  30.472  1.00  0.00     0.121 A 
HETATM    9  N2  UNL     1       3.924  -4.560  29.801  1.00  0.00    -0.201 N 
ATOM     10  H2  UNL     1       3.038  -4.057  29.759  1.00  0.00     0.183 HD
HETATM   11  C13 UNL     1       4.083  -5.741  29.190  1.00  0.00     0.684 A 
HETATM   12  N4  UNL     1       5.235  -6.430  29.219  1.00  0.00    -0.175 N 
ATOM     13  H4  UNL     1       5.322  -7.327  28.741  1.00  0.00     0.186 HD
HETATM   14  C22 UNL     1       6.274  -5.902  29.900  1.00  0.00     0.137 A 
ENDROOT
BRANCH  11  15
HETATM   15  N3  UNL     1       3.059  -6.344  28.468  1.00  0.00    -0.192 N 
HETATM   16  H9  UNL     1       2.329  -5.667  28.302  1.00  0.00     0.184 HD
BRANCH  15  17
HETATM   17  C14 UNL     1       2.879  -7.612  27.903  1.00  0.00     0.049 A 
HETATM   18  C15 UNL     1       1.651  -8.278  27.856  1.00  0.00     0.030 A 
HETATM   19  C16 UNL     1       1.532  -9.544  27.264  1.00  0.00     0.010 A 
HETATM   20  C17 UNL     1       2.643 -10.171  26.693  1.00  0.00    -0.048 A 
HETATM   21  C20 UNL     1       3.875  -9.516  26.735  1.00  0.00     0.010 A 
HETATM   22  C21 UNL     1       3.987  -8.254  27.330  1.00  0.00     0.030 A 
BRANCH  20  23
HETATM   23  C18 UNL     1       2.516 -11.537  26.062  1.00  0.00     0.148 C 
BRANCH  23  24
HETATM   24  C19 UNL     1       1.419 -11.639  25.031  1.00  0.00     0.143 C 
HETATM   25  O2  UNL     1       0.378 -12.269  25.089  1.00  0.00    -0.650 OA
BRANCH  24  26
HETATM   26  O3  UNL     1       1.713 -10.931  23.918  1.00  0.00    -0.776 OA
HETATM   27  H14 UNL     1       0.937 -11.083  23.338  1.00  0.00     0.167 HD
ENDBRANCH  24  26
ENDBRANCH  23  24
ENDBRANCH  20  23
ENDBRANCH  15  17
ENDBRANCH  11  15
BRANCH   5  28
HETATM   28  C4  UNL     1       9.640  -4.281  32.054  1.00  0.00     0.023 A 
HETATM   29  C5  UNL     1      10.661  -3.586  31.380  1.00  0.00     0.046 A 
HETATM   30 CL1  UNL     1      10.637  -3.367  29.662  1.00  0.00    -0.083 Cl
HETATM   31  C6  UNL     1      11.748  -3.053  32.080  1.00  0.00     0.025 A 
HETATM   32  C7  UNL     1      11.834  -3.202  33.463  1.00  0.00     0.003 A 
HETATM   33  C8  UNL     1      10.832  -3.886  34.147  1.00  0.00     0.025 A 
HETATM   34  C9  UNL     1       9.743  -4.422  33.450  1.00  0.00     0.046 A 
HETATM   35 CL2  UNL     1       8.547  -5.268  34.374  1.00  0.00    -0.083 Cl
ENDBRANCH   5  28
TORSDOF 6
ENDMDL
MODEL 8
REMARK minimizedAffinity -8.50041962
REMARK  6 active torsions:
REMARK  status: ('A' for Active; 'I' for Inactive)
REMARK    1  A    between atoms: C3_5  and  C4_6 
REMARK    2  A    between atoms: C13_19  and  N3_20 
REMARK    3  A    between atoms: N3_20  and  C14_21 
REMARK    4  A    between atoms: C17_24  and  C18_25 
REMARK    5  A    between atoms: C18_25  and  C19_26 
REMARK    6  A    between atoms: C19_26  and  O3_28 
ROOT
HETATM    1  C1  UNL     1       5.535  -5.703  29.756  1.00  0.00     0.161 C 
HETATM    2  N1  UNL     1       6.950  -5.957  29.965  1.00  0.00    -0.303 N 
HETATM    3  C2  UNL     1       7.713  -5.057  30.691  1.00  0.00     0.260 A 
HETATM    4  O1  UNL     1       7.263  -4.026  31.188  1.00  0.00    -0.267 OA
HETATM    5  C3  UNL     1       9.170  -5.382  30.868  1.00  0.00     0.047 A 
HETATM    6  C10 UNL     1       9.692  -6.500  30.340  1.00  0.00     0.034 A 
HETATM    7  C11 UNL     1       8.836  -7.404  29.589  1.00  0.00     0.026 A 
HETATM    8  C12 UNL     1       9.285  -8.568  29.016  1.00  0.00     0.121 A 
HETATM    9  N2  UNL     1       8.498  -9.410  28.319  1.00  0.00    -0.201 N 
ATOM     10  H2  UNL     1       8.872 -10.266  27.911  1.00  0.00     0.183 HD
HETATM   11  C13 UNL     1       7.208  -9.080  28.184  1.00  0.00     0.684 A 
HETATM   12  N4  UNL     1       6.678  -7.964  28.710  1.00  0.00    -0.175 N 
ATOM     13  H4  UNL     1       5.689  -7.744  28.590  1.00  0.00     0.186 HD
HETATM   14  C22 UNL     1       7.494  -7.140  29.404  1.00  0.00     0.137 A 
ENDROOT
BRANCH  11  15
HETATM   15  N3  UNL     1       6.308  -9.880  27.488  1.00  0.00    -0.192 N 
HETATM   16  H9  UNL     1       6.776 -10.726  27.195  1.00  0.00     0.184 HD
BRANCH  15  17
HETATM   17  C14 UNL     1       4.946  -9.781  27.184  1.00  0.00     0.049 A 
HETATM   18  C15 UNL     1       4.178 -10.835  26.682  1.00  0.00     0.030 A 
HETATM   19  C16 UNL     1       2.812 -10.677  26.409  1.00  0.00     0.010 A 
HETATM   20  C17 UNL     1       2.176  -9.454  26.643  1.00  0.00    -0.048 A 
HETATM   21  C20 UNL     1       2.932  -8.392  27.143  1.00  0.00     0.010 A 
HETATM   22  C21 UNL     1       4.296  -8.558  27.411  1.00  0.00     0.030 A 
BRANCH  20  23
HETATM   23  C18 UNL     1       0.707  -9.281  26.342  1.00  0.00     0.148 C 
BRANCH  23  24
HETATM   24  C19 UNL     1       0.424  -8.594  25.029  1.00  0.00     0.143 C 
HETATM   25  O2  UNL     1       0.753  -8.935  23.906  1.00  0.00    -0.650 OA
BRANCH  24  26
HETATM   26  O3  UNL     1      -0.269  -7.447  25.205  1.00  0.00    -0.776 OA
HETATM   27  H14 UNL     1      -0.380  -7.104  24.293  1.00  0.00     0.167 HD
ENDBRANCH  24  26
ENDBRANCH  23  24
ENDBRANCH  20  23
ENDBRANCH  15  17
ENDBRANCH  11  15
BRANCH   5  28
HETATM   28  C4  UNL     1      10.033  -4.460  31.632  1.00  0.00     0.023 A 
HETATM   29  C5  UNL     1      10.076  -4.508  33.038  1.00  0.00     0.046 A 
HETATM   30 CL1  UNL     1       9.102  -5.618  33.944  1.00  0.00    -0.083 Cl
HETATM   31  C6  UNL     1      10.906  -3.645  33.760  1.00  0.00     0.025 A 
HETATM   32  C7  UNL     1      11.709  -2.721  33.093  1.00  0.00     0.003 A 
HETATM   33  C8  UNL     1      11.680  -2.660  31.701  1.00  0.00     0.025 A 
HETATM   34  C9  UNL     1      10.850  -3.522  30.975  1.00  0.00     0.046 A 
HETATM   35 CL2  UNL     1      10.865  -3.373  29.249  1.00  0.00    -0.083 Cl
ENDBRANCH   5  28
TORSDOF 6
ENDMDL
MODEL 9
REMARK minimizedAffinity -8.38219738
REMARK  6 active torsions:
REMARK  status: ('A' for Active; 'I' for Inactive)
REMARK    1  A    between atoms: C3_5  and  C4_6 
REMARK    2  A    between atoms: C13_19  and  N3_20 
REMARK    3  A    between atoms: N3_20  and  C14_21 
REMARK    4  A    between atoms: C17_24  and  C18_25 
REMARK    5  A    between atoms: C18_25  and  C19_26 
REMARK    6  A    between atoms: C19_26  and  O3_28 
ROOT
HETATM    1  C1  UNL     1       6.180  -8.748  27.551  1.00  0.00     0.161 C 
HETATM    2  N1  UNL     1       4.788  -8.988  27.212  1.00  0.00    -0.303 N 
HETATM    3  C2  UNL     1       4.439 -10.107  26.474  1.00  0.00     0.260 A 
HETATM    4  O1  UNL     1       5.251 -10.941  26.074  1.00  0.00    -0.267 OA
HETATM    5  C3  UNL     1       2.982 -10.292  26.159  1.00  0.00     0.047 A 
HETATM    6  C10 UNL     1       2.070  -9.403  26.583  1.00  0.00     0.034 A 
HETATM    7  C11 UNL     1       2.502  -8.249  27.353  1.00  0.00     0.026 A 
HETATM    8  C12 UNL     1       1.639  -7.291  27.827  1.00  0.00     0.121 A 
HETATM    9  N2  UNL     1       2.032  -6.220  28.542  1.00  0.00    -0.201 N 
ATOM     10  H2  UNL     1       1.358  -5.531  28.876  1.00  0.00     0.183 HD
HETATM   11  C13 UNL     1       3.340  -6.093  28.797  1.00  0.00     0.684 A 
HETATM   12  N4  UNL     1       4.257  -6.979  28.378  1.00  0.00    -0.175 N 
ATOM     13  H4  UNL     1       5.247  -6.854  28.592  1.00  0.00     0.186 HD
HETATM   14  C22 UNL     1       3.831  -8.043  27.663  1.00  0.00     0.137 A 
ENDROOT
BRANCH  11  15
HETATM   15  N3  UNL     1       3.852  -5.027  29.529  1.00  0.00    -0.192 N 
HETATM   16  H9  UNL     1       3.131  -4.328  29.643  1.00  0.00     0.184 HD
BRANCH  15  17
HETATM   17  C14 UNL     1       5.076  -4.772  30.158  1.00  0.00     0.049 A 
HETATM   18  C15 UNL     1       6.093  -5.719  30.299  1.00  0.00     0.030 A 
HETATM   19  C16 UNL     1       7.304  -5.399  30.929  1.00  0.00     0.010 A 
HETATM   20  C17 UNL     1       7.531  -4.112  31.425  1.00  0.00    -0.048 A 
HETATM   21  C20 UNL     1       6.521  -3.156  31.290  1.00  0.00     0.010 A 
HETATM   22  C21 UNL     1       5.315  -3.485  30.663  1.00  0.00     0.030 A 
BRANCH  20  23
HETATM   23  C18 UNL     1       8.832  -3.768  32.109  1.00  0.00     0.148 C 
BRANCH  23  24
HETATM   24  C19 UNL     1       8.994  -4.393  33.473  1.00  0.00     0.143 C 
HETATM   25  O2  UNL     1       8.505  -4.043  34.533  1.00  0.00    -0.650 OA
BRANCH  24  26
HETATM   26  O3  UNL     1       9.822  -5.461  33.437  1.00  0.00    -0.776 OA
HETATM   27  H14 UNL     1       9.845  -5.764  34.370  1.00  0.00     0.167 HD
ENDBRANCH  24  26
ENDBRANCH  23  24
ENDBRANCH  20  23
ENDBRANCH  15  17
ENDBRANCH  11  15
BRANCH   5  28
HETATM   28  C4  UNL     1       2.550 -11.467  25.376  1.00  0.00     0.023 A 
HETATM   29  C5  UNL     1       2.159 -12.658  26.016  1.00  0.00     0.046 A 
HETATM   30 CL1  UNL     1       2.193 -12.823  27.739  1.00  0.00    -0.083 Cl
HETATM   31  C6  UNL     1       1.735 -13.765  25.273  1.00  0.00     0.025 A 
HETATM   32  C7  UNL     1       1.692 -13.702  23.881  1.00  0.00     0.003 A 
HETATM   33  C8  UNL     1       2.075 -12.531  23.231  1.00  0.00     0.025 A 
HETATM   34  C9  UNL     1       2.500 -11.421  23.970  1.00  0.00     0.046 A 
HETATM   35 CL2  UNL     1       2.970 -10.008  23.085  1.00  0.00    -0.083 Cl
ENDBRANCH   5  28
TORSDOF 6
ENDMDL
