MODEL 1
REMARK minimizedAffinity -7.50427389
REMARK CNNscore 0.744615138
REMARK CNNaffinity 6.30283117
REMARK  3 active torsions:
REMARK  status: ('A' for Active; 'I' for Inactive)
REMARK    1  A    between atoms: C4_5  and  C5_6 
REMARK    2  A    between atoms: N2_9  and  C6_10 
REMARK    3  A    between atoms: C12_16  and  C13_17 
ROOT
HETATM    1  C5  UNL     1      17.103  52.152   5.135  1.00  0.00     0.038 C 
HETATM    2  N1  UNL     1      16.509  50.999   5.135  1.00  0.00    -0.301 N 
ATOM      3  H1  UNL     1      15.508  50.834   5.032  1.00  0.00     0.187 HD
HETATM    4  N2  UNL     1      17.474  50.046   5.297  1.00  0.00    -0.283 N 
HETATM    5  C12 UNL     1      18.813  50.608   5.513  1.00  0.00     0.148 C 
HETATM    6  C23 UNL     1      18.602  52.099   5.237  1.00  0.00     0.091 C 
ENDROOT
BRANCH   5   7
HETATM    7  C13 UNL     1      19.365  50.397   6.923  1.00  0.00    -0.022 A 
HETATM    8  C14 UNL     1      19.740  49.104   7.342  1.00  0.00     0.010 A 
HETATM    9  C15 UNL     1      20.232  48.876   8.622  1.00  0.00     0.002 A 
HETATM   10  C16 UNL     1      20.351  49.934   9.515  1.00  0.00     0.012 A 
HETATM   11  C17 UNL     1      19.973  51.232   9.148  1.00  0.00    -0.025 A 
HETATM   12  C18 UNL     1      20.094  52.278  10.078  1.00  0.00     0.012 A 
HETATM   13  C22 UNL     1      19.469  51.486   7.844  1.00  0.00    -0.018 A 
HETATM   14  C19 UNL     1      19.719  53.578   9.750  1.00  0.00     0.001 A 
HETATM   15  C20 UNL     1      19.217  53.850   8.486  1.00  0.00     0.001 A 
HETATM   16  C21 UNL     1      19.093  52.820   7.549  1.00  0.00     0.013 A 
ENDBRANCH   5   7
BRANCH   4  17
HETATM   17  C6  UNL     1      17.195  48.699   5.054  1.00  0.00     0.051 A 
HETATM   18  C7  UNL     1      17.596  48.086   3.854  1.00  0.00     0.031 A 
HETATM   19  C8  UNL     1      17.326  46.740   3.584  1.00  0.00     0.002 A 
HETATM   20  C9  UNL     1      16.640  45.969   4.514  1.00  0.00     0.000 A 
HETATM   21  C10 UNL     1      16.224  46.547   5.709  1.00  0.00     0.002 A 
HETATM   22  C11 UNL     1      16.499  47.896   5.972  1.00  0.00     0.031 A 
ENDBRANCH   4  17
BRANCH   1  23
HETATM   23  C4  UNL     1      16.370  53.434   5.011  1.00  0.00    -0.010 A 
HETATM   24  C3  UNL     1      14.982  53.440   5.199  1.00  0.00     0.015 A 
HETATM   25  C2  UNL     1      14.259  54.630   5.088  1.00  0.00     0.026 A 
HETATM   26  C1  UNL     1      14.918  55.824   4.788  1.00  0.00     0.055 A 
HETATM   27 CL1  UNL     1      13.967  57.260   4.664  1.00  0.00    -0.083 Cl
HETATM   28  C25 UNL     1      16.305  55.823   4.597  1.00  0.00     0.056 A 
HETATM   29  C24 UNL     1      17.030  54.629   4.708  1.00  0.00     0.039 A 
HETATM   30 CL2  UNL     1      17.188  57.260   4.219  1.00  0.00    -0.083 Cl
ENDBRANCH   1  23
TORSDOF 3
ENDMDL
MODEL 2
REMARK minimizedAffinity -6.70071888
REMARK CNNscore 0.622641325
REMARK CNNaffinity 5.87474585
REMARK  3 active torsions:
REMARK  status: ('A' for Active; 'I' for Inactive)
REMARK    1  A    between atoms: C4_5  and  C5_6 
REMARK    2  A    between atoms: N2_9  and  C6_10 
REMARK    3  A    between atoms: C12_16  and  C13_17 
ROOT
HETATM    1  C5  UNL     1      17.366  52.232   5.452  1.00  0.00     0.038 C 
HETATM    2  N1  UNL     1      16.642  51.156   5.471  1.00  0.00    -0.301 N 
ATOM      3  H1  UNL     1      15.626  51.108   5.395  1.00  0.00     0.187 HD
HETATM    4  N2  UNL     1      17.494  50.098   5.612  1.00  0.00    -0.283 N 
HETATM    5  C12 UNL     1      18.894  50.501   5.792  1.00  0.00     0.148 C 
HETATM    6  C23 UNL     1      18.850  52.006   5.515  1.00  0.00     0.091 C 
ENDROOT
BRANCH   5   7
HETATM    7  C13 UNL     1      19.455  50.229   7.188  1.00  0.00    -0.022 A 
HETATM    8  C14 UNL     1      19.479  51.263   8.145  1.00  0.00     0.010 A 
HETATM    9  C15 UNL     1      19.995  51.054   9.419  1.00  0.00     0.002 A 
HETATM   10  C16 UNL     1      20.509  49.809   9.761  1.00  0.00     0.012 A 
HETATM   11  C17 UNL     1      20.522  48.758   8.835  1.00  0.00    -0.025 A 
HETATM   12  C18 UNL     1      21.061  47.514   9.206  1.00  0.00     0.012 A 
HETATM   13  C22 UNL     1      19.999  48.952   7.528  1.00  0.00    -0.018 A 
HETATM   14  C19 UNL     1      21.099  46.450   8.309  1.00  0.00     0.001 A 
HETATM   15  C20 UNL     1      20.600  46.617   7.025  1.00  0.00     0.001 A 
HETATM   16  C21 UNL     1      20.060  47.848   6.641  1.00  0.00     0.013 A 
ENDBRANCH   5   7
BRANCH   4  17
HETATM   17  C6  UNL     1      17.055  48.792   5.382  1.00  0.00     0.051 A 
HETATM   18  C7  UNL     1      17.246  48.178   4.132  1.00  0.00     0.031 A 
HETATM   19  C8  UNL     1      16.812  46.874   3.873  1.00  0.00     0.002 A 
HETATM   20  C9  UNL     1      16.168  46.146   4.867  1.00  0.00     0.000 A 
HETATM   21  C10 UNL     1      15.958  46.726   6.113  1.00  0.00     0.002 A 
HETATM   22  C11 UNL     1      16.396  48.034   6.364  1.00  0.00     0.031 A 
ENDBRANCH   4  17
BRANCH   1  23
HETATM   23  C4  UNL     1      16.783  53.590   5.342  1.00  0.00    -0.010 A 
HETATM   24  C3  UNL     1      17.536  54.687   5.780  1.00  0.00     0.015 A 
HETATM   25  C2  UNL     1      17.016  55.981   5.692  1.00  0.00     0.026 A 
HETATM   26  C1  UNL     1      15.740  56.189   5.165  1.00  0.00     0.055 A 
HETATM   27 CL1  UNL     1      15.157  57.813   5.084  1.00  0.00    -0.083 Cl
HETATM   28  C25 UNL     1      14.983  55.096   4.728  1.00  0.00     0.056 A 
HETATM   29  C24 UNL     1      15.504  53.798   4.816  1.00  0.00     0.039 A 
HETATM   30 CL2  UNL     1      13.395  55.275   4.068  1.00  0.00    -0.083 Cl
ENDBRANCH   1  23
TORSDOF 3
ENDMDL
MODEL 3
REMARK minimizedAffinity -7.49490261
REMARK CNNscore 0.520235777
REMARK CNNaffinity 5.96135569
REMARK  3 active torsions:
REMARK  status: ('A' for Active; 'I' for Inactive)
REMARK    1  A    between atoms: C4_5  and  C5_6 
REMARK    2  A    between atoms: N2_9  and  C6_10 
REMARK    3  A    between atoms: C12_16  and  C13_17 
ROOT
HETATM    1  C5  UNL     1      12.770  61.070   5.070  1.00  0.00     0.038 C 
HETATM    2  N1  UNL     1      12.242  61.578   4.000  1.00  0.00    -0.301 N 
ATOM      3  H1  UNL     1      11.403  62.157   3.955  1.00  0.00     0.187 HD
HETATM    4  N2  UNL     1      13.017  61.193   2.943  1.00  0.00    -0.283 N 
HETATM    5  C12 UNL     1      14.102  60.280   3.322  1.00  0.00     0.148 C 
HETATM    6  C23 UNL     1      14.049  60.310   4.852  1.00  0.00     0.091 C 
ENDROOT
BRANCH   5   7
HETATM    7  C13 UNL     1      13.933  58.850   2.808  1.00  0.00    -0.022 A 
HETATM    8  C14 UNL     1      13.484  58.629   1.490  1.00  0.00     0.010 A 
HETATM    9  C15 UNL     1      13.306  57.342   0.996  1.00  0.00     0.002 A 
HETATM   10  C16 UNL     1      13.562  56.247   1.812  1.00  0.00     0.012 A 
HETATM   11  C17 UNL     1      13.992  56.420   3.135  1.00  0.00    -0.025 A 
HETATM   12  C18 UNL     1      14.230  55.293   3.939  1.00  0.00     0.012 A 
HETATM   13  C22 UNL     1      14.180  57.728   3.658  1.00  0.00    -0.018 A 
HETATM   14  C19 UNL     1      14.648  55.428   5.260  1.00  0.00     0.001 A 
HETATM   15  C20 UNL     1      14.833  56.694   5.795  1.00  0.00     0.001 A 
HETATM   16  C21 UNL     1      14.602  57.825   5.007  1.00  0.00     0.013 A 
ENDBRANCH   5   7
BRANCH   4  17
HETATM   17  C6  UNL     1      12.879  61.806   1.696  1.00  0.00     0.051 A 
HETATM   18  C7  UNL     1      12.192  61.164   0.650  1.00  0.00     0.031 A 
HETATM   19  C8  UNL     1      12.044  61.753  -0.610  1.00  0.00     0.002 A 
HETATM   20  C9  UNL     1      12.586  63.008  -0.858  1.00  0.00     0.000 A 
HETATM   21  C10 UNL     1      13.278  63.667   0.153  1.00  0.00     0.002 A 
HETATM   22  C11 UNL     1      13.421  63.070   1.412  1.00  0.00     0.031 A 
ENDBRANCH   4  17
BRANCH   1  23
HETATM   23  C4  UNL     1      12.184  61.249   6.418  1.00  0.00    -0.010 A 
HETATM   24  C3  UNL     1      11.406  60.217   6.960  1.00  0.00     0.015 A 
HETATM   25  C2  UNL     1      10.836  60.353   8.229  1.00  0.00     0.026 A 
HETATM   26  C1  UNL     1      11.039  61.522   8.966  1.00  0.00     0.055 A 
HETATM   27 CL1  UNL     1      10.308  61.627  10.527  1.00  0.00    -0.083 Cl
HETATM   28  C25 UNL     1      11.814  62.556   8.428  1.00  0.00     0.056 A 
HETATM   29  C24 UNL     1      12.385  62.420   7.155  1.00  0.00     0.039 A 
HETATM   30 CL2  UNL     1      12.105  64.032   9.279  1.00  0.00    -0.083 Cl
ENDBRANCH   1  23
TORSDOF 3
ENDMDL
MODEL 4
REMARK minimizedAffinity -7.00943422
REMARK CNNscore 0.48972249
REMARK CNNaffinity 5.12199068
REMARK  3 active torsions:
REMARK  status: ('A' for Active; 'I' for Inactive)
REMARK    1  A    between atoms: C4_5  and  C5_6 
REMARK    2  A    between atoms: N2_9  and  C6_10 
REMARK    3  A    between atoms: C12_16  and  C13_17 
ROOT
HETATM    1  C5  UNL     1      18.398  50.725   5.560  1.00  0.00     0.038 C 
HETATM    2  N1  UNL     1      18.224  51.241   6.737  1.00  0.00    -0.301 N 
ATOM      3  H1  UNL     1      17.693  50.831   7.505  1.00  0.00     0.187 HD
HETATM    4  N2  UNL     1      18.885  52.436   6.758  1.00  0.00    -0.283 N 
HETATM    5  C12 UNL     1      19.476  52.794   5.463  1.00  0.00     0.148 C 
HETATM    6  C23 UNL     1      19.286  51.516   4.640  1.00  0.00     0.091 C 
ENDROOT
BRANCH   5   7
HETATM    7  C13 UNL     1      18.807  53.981   4.770  1.00  0.00    -0.022 A 
HETATM    8  C14 UNL     1      19.602  54.987   4.183  1.00  0.00     0.010 A 
HETATM    9  C15 UNL     1      19.025  56.087   3.557  1.00  0.00     0.002 A 
HETATM   10  C16 UNL     1      17.642  56.212   3.515  1.00  0.00     0.012 A 
HETATM   11  C17 UNL     1      16.814  55.245   4.102  1.00  0.00    -0.025 A 
HETATM   12  C18 UNL     1      15.420  55.407   4.053  1.00  0.00     0.012 A 
HETATM   13  C22 UNL     1      17.384  54.114   4.745  1.00  0.00    -0.018 A 
HETATM   14  C19 UNL     1      14.567  54.472   4.634  1.00  0.00     0.001 A 
HETATM   15  C20 UNL     1      15.100  53.362   5.273  1.00  0.00     0.001 A 
HETATM   16  C21 UNL     1      16.485  53.186   5.329  1.00  0.00     0.013 A 
ENDBRANCH   5   7
BRANCH   4  17
HETATM   17  C6  UNL     1      19.128  53.098   7.964  1.00  0.00     0.051 A 
HETATM   18  C7  UNL     1      19.435  52.376   9.131  1.00  0.00     0.031 A 
HETATM   19  C8  UNL     1      19.678  53.013  10.353  1.00  0.00     0.002 A 
HETATM   20  C9  UNL     1      19.615  54.399  10.438  1.00  0.00     0.000 A 
HETATM   21  C10 UNL     1      19.307  55.142   9.303  1.00  0.00     0.002 A 
HETATM   22  C11 UNL     1      19.065  54.495   8.083  1.00  0.00     0.031 A 
ENDBRANCH   4  17
BRANCH   1  23
HETATM   23  C4  UNL     1      17.798  49.434   5.152  1.00  0.00    -0.010 A 
HETATM   24  C3  UNL     1      18.228  48.834   3.962  1.00  0.00     0.015 A 
HETATM   25  C2  UNL     1      17.682  47.616   3.547  1.00  0.00     0.026 A 
HETATM   26  C1  UNL     1      16.702  46.989   4.318  1.00  0.00     0.055 A 
HETATM   27 CL1  UNL     1      16.068  45.486   3.750  1.00  0.00    -0.083 Cl
HETATM   28  C25 UNL     1      16.267  47.586   5.508  1.00  0.00     0.056 A 
HETATM   29  C24 UNL     1      16.814  48.807   5.924  1.00  0.00     0.039 A 
HETATM   30 CL2  UNL     1      15.056  46.871   6.512  1.00  0.00    -0.083 Cl
ENDBRANCH   1  23
TORSDOF 3
ENDMDL
MODEL 5
REMARK minimizedAffinity -7.78271055
REMARK CNNscore 0.442969143
REMARK CNNaffinity 5.46673822
REMARK  3 active torsions:
REMARK  status: ('A' for Active; 'I' for Inactive)
REMARK    1  A    between atoms: C4_5  and  C5_6 
REMARK    2  A    between atoms: N2_9  and  C6_10 
REMARK    3  A    between atoms: C12_16  and  C13_17 
ROOT
HETATM    1  C5  UNL     1      13.628  58.837   5.388  1.00  0.00     0.038 C 
HETATM    2  N1  UNL     1      13.001  58.560   4.287  1.00  0.00    -0.301 N 
ATOM      3  H1  UNL     1      12.042  58.820   4.055  1.00  0.00     0.187 HD
HETATM    4  N2  UNL     1      13.862  57.856   3.496  1.00  0.00    -0.283 N 
HETATM    5  C12 UNL     1      15.141  57.560   4.152  1.00  0.00     0.148 C 
HETATM    6  C23 UNL     1      15.062  58.390   5.436  1.00  0.00     0.091 C 
ENDROOT
BRANCH   5   7
HETATM    7  C13 UNL     1      15.354  56.082   4.482  1.00  0.00    -0.022 A 
HETATM    8  C14 UNL     1      14.270  55.304   4.937  1.00  0.00     0.010 A 
HETATM    9  C15 UNL     1      14.432  53.961   5.260  1.00  0.00     0.002 A 
HETATM   10  C16 UNL     1      15.684  53.369   5.145  1.00  0.00     0.012 A 
HETATM   11  C17 UNL     1      16.793  54.109   4.714  1.00  0.00    -0.025 A 
HETATM   12  C18 UNL     1      18.048  53.485   4.621  1.00  0.00     0.012 A 
HETATM   13  C22 UNL     1      16.647  55.483   4.379  1.00  0.00    -0.018 A 
HETATM   14  C19 UNL     1      19.173  54.192   4.206  1.00  0.00     0.001 A 
HETATM   15  C20 UNL     1      19.058  55.535   3.880  1.00  0.00     0.001 A 
HETATM   16  C21 UNL     1      17.816  56.170   3.966  1.00  0.00     0.013 A 
ENDBRANCH   5   7
BRANCH   4  17
HETATM   17  C6  UNL     1      13.588  57.658   2.141  1.00  0.00     0.051 A 
HETATM   18  C7  UNL     1      13.695  56.380   1.565  1.00  0.00     0.031 A 
HETATM   19  C8  UNL     1      13.430  56.154   0.209  1.00  0.00     0.002 A 
HETATM   20  C9  UNL     1      13.052  57.211  -0.610  1.00  0.00     0.000 A 
HETATM   21  C10 UNL     1      12.944  58.489  -0.072  1.00  0.00     0.002 A 
HETATM   22  C11 UNL     1      13.210  58.706   1.286  1.00  0.00     0.031 A 
ENDBRANCH   4  17
BRANCH   1  23
HETATM   23  C4  UNL     1      12.997  59.572   6.509  1.00  0.00    -0.010 A 
HETATM   24  C3  UNL     1      11.937  60.445   6.234  1.00  0.00     0.015 A 
HETATM   25  C2  UNL     1      11.320  61.155   7.268  1.00  0.00     0.026 A 
HETATM   26  C1  UNL     1      11.758  60.998   8.585  1.00  0.00     0.055 A 
HETATM   27 CL1  UNL     1      10.953  61.904   9.815  1.00  0.00    -0.083 Cl
HETATM   28  C25 UNL     1      12.818  60.128   8.864  1.00  0.00     0.056 A 
HETATM   29  C24 UNL     1      13.438  59.416   7.828  1.00  0.00     0.039 A 
HETATM   30 CL2  UNL     1      13.418  59.885  10.467  1.00  0.00    -0.083 Cl
ENDBRANCH   1  23
TORSDOF 3
ENDMDL
MODEL 6
REMARK minimizedAffinity -6.95558453
REMARK CNNscore 0.439298451
REMARK CNNaffinity 5.63209915
REMARK  3 active torsions:
REMARK  status: ('A' for Active; 'I' for Inactive)
REMARK    1  A    between atoms: C4_5  and  C5_6 
REMARK    2  A    between atoms: N2_9  and  C6_10 
REMARK    3  A    between atoms: C12_16  and  C13_17 
ROOT
HETATM    1  C5  UNL     1      14.052  59.219   2.306  1.00  0.00     0.038 C 
HETATM    2  N1  UNL     1      14.711  58.433   3.100  1.00  0.00    -0.301 N 
ATOM      3  H1  UNL     1      15.324  58.719   3.863  1.00  0.00     0.187 HD
HETATM    4  N2  UNL     1      14.431  57.150   2.724  1.00  0.00    -0.283 N 
HETATM    5  C12 UNL     1      13.587  57.068   1.526  1.00  0.00     0.148 C 
HETATM    6  C23 UNL     1      13.168  58.525   1.308  1.00  0.00     0.091 C 
ENDROOT
BRANCH   5   7
HETATM    7  C13 UNL     1      14.300  56.525   0.288  1.00  0.00    -0.022 A 
HETATM    8  C14 UNL     1      15.708  56.567   0.217  1.00  0.00     0.010 A 
HETATM    9  C15 UNL     1      16.387  56.095  -0.901  1.00  0.00     0.002 A 
HETATM   10  C16 UNL     1      15.674  55.581  -1.977  1.00  0.00     0.012 A 
HETATM   11  C17 UNL     1      14.274  55.537  -1.957  1.00  0.00    -0.025 A 
HETATM   12  C18 UNL     1      13.581  55.024  -3.066  1.00  0.00     0.012 A 
HETATM   13  C22 UNL     1      13.561  56.014  -0.824  1.00  0.00    -0.018 A 
HETATM   14  C19 UNL     1      12.190  54.974  -3.085  1.00  0.00     0.001 A 
HETATM   15  C20 UNL     1      11.472  55.440  -1.994  1.00  0.00     0.001 A 
HETATM   16  C21 UNL     1      12.146  55.952  -0.882  1.00  0.00     0.013 A 
ENDBRANCH   5   7
BRANCH   4  17
HETATM   17  C6  UNL     1      14.757  56.076   3.554  1.00  0.00     0.051 A 
HETATM   18  C7  UNL     1      16.100  55.747   3.812  1.00  0.00     0.031 A 
HETATM   19  C8  UNL     1      16.454  54.673   4.636  1.00  0.00     0.002 A 
HETATM   20  C9  UNL     1      15.465  53.893   5.225  1.00  0.00     0.000 A 
HETATM   21  C10 UNL     1      14.128  54.188   4.984  1.00  0.00     0.002 A 
HETATM   22  C11 UNL     1      13.781  55.266   4.158  1.00  0.00     0.031 A 
ENDBRANCH   4  17
BRANCH   1  23
HETATM   23  C4  UNL     1      14.131  60.696   2.390  1.00  0.00    -0.010 A 
HETATM   24  C3  UNL     1      14.893  61.276   3.412  1.00  0.00     0.015 A 
HETATM   25  C2  UNL     1      14.988  62.665   3.522  1.00  0.00     0.026 A 
HETATM   26  C1  UNL     1      14.322  63.487   2.610  1.00  0.00     0.055 A 
HETATM   27 CL1  UNL     1      14.480  65.196   2.801  1.00  0.00    -0.083 Cl
HETATM   28  C25 UNL     1      13.558  62.912   1.588  1.00  0.00     0.056 A 
HETATM   29  C24 UNL     1      13.462  61.519   1.478  1.00  0.00     0.039 A 
HETATM   30 CL2  UNL     1      12.702  63.865   0.426  1.00  0.00    -0.083 Cl
ENDBRANCH   1  23
TORSDOF 3
ENDMDL
MODEL 7
REMARK minimizedAffinity -7.4626689
REMARK CNNscore 0.430125982
REMARK CNNaffinity 5.55118322
REMARK  3 active torsions:
REMARK  status: ('A' for Active; 'I' for Inactive)
REMARK    1  A    between atoms: C4_5  and  C5_6 
REMARK    2  A    between atoms: N2_9  and  C6_10 
REMARK    3  A    between atoms: C12_16  and  C13_17 
ROOT
HETATM    1  C5  UNL     1      13.597  58.549   3.447  1.00  0.00     0.038 C 
HETATM    2  N1  UNL     1      14.419  57.805   4.120  1.00  0.00    -0.301 N 
ATOM      3  H1  UNL     1      14.908  58.064   4.976  1.00  0.00     0.187 HD
HETATM    4  N2  UNL     1      14.508  56.608   3.468  1.00  0.00    -0.283 N 
HETATM    5  C12 UNL     1      13.754  56.576   2.209  1.00  0.00     0.148 C 
HETATM    6  C23 UNL     1      12.964  57.887   2.255  1.00  0.00     0.091 C 
ENDROOT
BRANCH   5   7
HETATM    7  C13 UNL     1      14.625  56.520   0.954  1.00  0.00    -0.022 A 
HETATM    8  C14 UNL     1      15.964  56.958   1.011  1.00  0.00     0.010 A 
HETATM    9  C15 UNL     1      16.778  56.934  -0.116  1.00  0.00     0.002 A 
HETATM   10  C16 UNL     1      16.269  56.482  -1.327  1.00  0.00     0.012 A 
HETATM   11  C17 UNL     1      14.939  56.055  -1.434  1.00  0.00    -0.025 A 
HETATM   12  C18 UNL     1      14.451  55.616  -2.676  1.00  0.00     0.012 A 
HETATM   13  C22 UNL     1      14.091  56.072  -0.294  1.00  0.00    -0.018 A 
HETATM   14  C19 UNL     1      13.132  55.194  -2.821  1.00  0.00     0.001 A 
HETATM   15  C20 UNL     1      12.283  55.207  -1.725  1.00  0.00     0.001 A 
HETATM   16  C21 UNL     1      12.754  55.640  -0.482  1.00  0.00     0.013 A 
ENDBRANCH   5   7
BRANCH   4  17
HETATM   17  C6  UNL     1      15.086  55.498   4.088  1.00  0.00     0.051 A 
HETATM   18  C7  UNL     1      16.481  55.320   4.089  1.00  0.00     0.031 A 
HETATM   19  C8  UNL     1      17.086  54.216   4.698  1.00  0.00     0.002 A 
HETATM   20  C9  UNL     1      16.304  53.252   5.324  1.00  0.00     0.000 A 
HETATM   21  C10 UNL     1      14.921  53.395   5.335  1.00  0.00     0.002 A 
HETATM   22  C11 UNL     1      14.323  54.505   4.723  1.00  0.00     0.031 A 
ENDBRANCH   4  17
BRANCH   1  23
HETATM   23  C4  UNL     1      13.272  59.941   3.837  1.00  0.00    -0.010 A 
HETATM   24  C3  UNL     1      13.688  60.990   3.007  1.00  0.00     0.015 A 
HETATM   25  C2  UNL     1      13.399  62.315   3.344  1.00  0.00     0.026 A 
HETATM   26  C1  UNL     1      12.692  62.602   4.514  1.00  0.00     0.055 A 
HETATM   27 CL1  UNL     1      12.368  64.260   4.874  1.00  0.00    -0.083 Cl
HETATM   28  C25 UNL     1      12.277  61.557   5.347  1.00  0.00     0.056 A 
HETATM   29  C24 UNL     1      12.566  60.228   5.010  1.00  0.00     0.039 A 
HETATM   30 CL2  UNL     1      11.402  61.834   6.813  1.00  0.00    -0.083 Cl
ENDBRANCH   1  23
TORSDOF 3
ENDMDL
MODEL 8
REMARK minimizedAffinity -6.8081665
REMARK CNNscore 0.418210506
REMARK CNNaffinity 5.48095846
REMARK  3 active torsions:
REMARK  status: ('A' for Active; 'I' for Inactive)
REMARK    1  A    between atoms: C4_5  and  C5_6 
REMARK    2  A    between atoms: N2_9  and  C6_10 
REMARK    3  A    between atoms: C12_16  and  C13_17 
ROOT
HETATM    1  C5  UNL     1      12.894  51.731  -2.504  1.00  0.00     0.038 C 
HETATM    2  N1  UNL     1      13.967  52.308  -2.058  1.00  0.00    -0.301 N 
ATOM      3  H1  UNL     1      14.619  51.926  -1.372  1.00  0.00     0.187 HD
HETATM    4  N2  UNL     1      14.063  53.521  -2.677  1.00  0.00    -0.283 N 
HETATM    5  C12 UNL     1      12.916  53.822  -3.542  1.00  0.00     0.148 C 
HETATM    6  C23 UNL     1      12.153  52.495  -3.565  1.00  0.00     0.091 C 
ENDROOT
BRANCH   5   7
HETATM    7  C13 UNL     1      12.017  54.947  -3.030  1.00  0.00    -0.022 A 
HETATM    8  C14 UNL     1      11.957  55.220  -1.648  1.00  0.00     0.010 A 
HETATM    9  C15 UNL     1      11.139  56.227  -1.147  1.00  0.00     0.002 A 
HETATM   10  C16 UNL     1      10.355  56.977  -2.016  1.00  0.00     0.012 A 
HETATM   11  C17 UNL     1      10.370  56.728  -3.395  1.00  0.00    -0.025 A 
HETATM   12  C18 UNL     1       9.557  57.495  -4.245  1.00  0.00     0.012 A 
HETATM   13  C22 UNL     1      11.200  55.704  -3.926  1.00  0.00    -0.018 A 
HETATM   14  C19 UNL     1       9.539  57.269  -5.619  1.00  0.00     0.001 A 
HETATM   15  C20 UNL     1      10.335  56.270  -6.161  1.00  0.00     0.001 A 
HETATM   16  C21 UNL     1      11.151  55.500  -5.328  1.00  0.00     0.013 A 
ENDBRANCH   5   7
BRANCH   4  17
HETATM   17  C6  UNL     1      15.249  54.256  -2.628  1.00  0.00     0.051 A 
HETATM   18  C7  UNL     1      16.164  54.219  -3.696  1.00  0.00     0.031 A 
HETATM   19  C8  UNL     1      17.361  54.943  -3.670  1.00  0.00     0.002 A 
HETATM   20  C9  UNL     1      17.677  55.725  -2.566  1.00  0.00     0.000 A 
HETATM   21  C10 UNL     1      16.797  55.777  -1.490  1.00  0.00     0.002 A 
HETATM   22  C11 UNL     1      15.599  55.050  -1.524  1.00  0.00     0.031 A 
ENDBRANCH   4  17
BRANCH   1  23
HETATM   23  C4  UNL     1      12.442  50.401  -2.033  1.00  0.00    -0.010 A 
HETATM   24  C3  UNL     1      11.077  50.197  -1.793  1.00  0.00     0.015 A 
HETATM   25  C2  UNL     1      10.617  48.955  -1.347  1.00  0.00     0.026 A 
HETATM   26  C1  UNL     1      11.516  47.908  -1.138  1.00  0.00     0.055 A 
HETATM   27 CL1  UNL     1      10.883  46.399  -0.586  1.00  0.00    -0.083 Cl
HETATM   28  C25 UNL     1      12.882  48.108  -1.374  1.00  0.00     0.056 A 
HETATM   29  C24 UNL     1      13.344  49.353  -1.821  1.00  0.00     0.039 A 
HETATM   30 CL2  UNL     1      14.055  46.862  -1.133  1.00  0.00    -0.083 Cl
ENDBRANCH   1  23
TORSDOF 3
ENDMDL
MODEL 9
REMARK minimizedAffinity -7.12448215
REMARK CNNscore 0.38154617
REMARK CNNaffinity 5.68967962
REMARK  3 active torsions:
REMARK  status: ('A' for Active; 'I' for Inactive)
REMARK    1  A    between atoms: C4_5  and  C5_6 
REMARK    2  A    between atoms: N2_9  and  C6_10 
REMARK    3  A    between atoms: C12_16  and  C13_17 
ROOT
HETATM    1  C5  UNL     1      14.118  58.311   6.327  1.00  0.00     0.038 C 
HETATM    2  N1  UNL     1      14.355  57.512   7.321  1.00  0.00    -0.301 N 
ATOM      3  H1  UNL     1      14.493  56.502   7.267  1.00  0.00     0.187 HD
HETATM    4  N2  UNL     1      14.385  58.273   8.454  1.00  0.00    -0.283 N 
HETATM    5  C12 UNL     1      14.055  59.683   8.215  1.00  0.00     0.148 C 
HETATM    6  C23 UNL     1      14.024  59.767   6.686  1.00  0.00     0.091 C 
ENDROOT
BRANCH   5   7
HETATM    7  C13 UNL     1      12.714  60.125   8.802  1.00  0.00    -0.022 A 
HETATM    8  C14 UNL     1      11.572  59.319   8.623  1.00  0.00     0.010 A 
HETATM    9  C15 UNL     1      10.335  59.699   9.132  1.00  0.00     0.002 A 
HETATM   10  C16 UNL     1      10.210  60.899   9.821  1.00  0.00     0.012 A 
HETATM   11  C17 UNL     1      11.315  61.741  10.006  1.00  0.00    -0.025 A 
HETATM   12  C18 UNL     1      11.154  62.954  10.696  1.00  0.00     0.012 A 
HETATM   13  C22 UNL     1      12.588  61.370   9.494  1.00  0.00    -0.018 A 
HETATM   14  C19 UNL     1      12.228  63.819  10.890  1.00  0.00     0.001 A 
HETATM   15  C20 UNL     1      13.479  63.482  10.394  1.00  0.00     0.001 A 
HETATM   16  C21 UNL     1      13.655  62.277   9.707  1.00  0.00     0.013 A 
ENDBRANCH   5   7
BRANCH   4  17
HETATM   17  C6  UNL     1      14.896  57.757   9.648  1.00  0.00     0.051 A 
HETATM   18  C7  UNL     1      14.059  57.092  10.561  1.00  0.00     0.031 A 
HETATM   19  C8  UNL     1      14.544  56.570  11.765  1.00  0.00     0.002 A 
HETATM   20  C9  UNL     1      15.888  56.705  12.089  1.00  0.00     0.000 A 
HETATM   21  C10 UNL     1      16.742  57.363  11.210  1.00  0.00     0.002 A 
HETATM   22  C11 UNL     1      16.248  57.883  10.006  1.00  0.00     0.031 A 
ENDBRANCH   4  17
BRANCH   1  23
HETATM   23  C4  UNL     1      13.984  57.837   4.930  1.00  0.00    -0.010 A 
HETATM   24  C3  UNL     1      14.253  56.493   4.642  1.00  0.00     0.015 A 
HETATM   25  C2  UNL     1      14.137  56.012   3.335  1.00  0.00     0.026 A 
HETATM   26  C1  UNL     1      13.751  56.872   2.305  1.00  0.00     0.055 A 
HETATM   27 CL1  UNL     1      13.627  56.216   0.712  1.00  0.00    -0.083 Cl
HETATM   28  C25 UNL     1      13.483  58.217   2.587  1.00  0.00     0.056 A 
HETATM   29  C24 UNL     1      13.599  58.699   3.897  1.00  0.00     0.039 A 
HETATM   30 CL2  UNL     1      13.005  59.341   1.364  1.00  0.00    -0.083 Cl
ENDBRANCH   1  23
TORSDOF 3
ENDMDL
