MODEL 1
REMARK minimizedAffinity -6.34965467
REMARK  2 active torsions:
REMARK  status: ('A' for Active; 'I' for Inactive)
REMARK    1  A    between atoms: N1_1  and  C1_2 
REMARK    2  A    between atoms: N5_13  and  C6_14 
ROOT
HETATM    1  C1  UNL     1      15.023  34.029  19.019  1.00  0.00     0.094 A 
HETATM    2  N2  UNL     1      15.128  33.927  20.357  1.00  0.00    -0.342 N 
ATOM      3  H2  UNL     1      16.016  33.680  20.794  1.00  0.00     0.167 HD
HETATM    4  C2  UNL     1      14.033  34.160  21.103  1.00  0.00     0.183 A 
HETATM    5  N3  UNL     1      12.806  34.503  20.685  1.00  0.00    -0.336 N 
ATOM      6  H3  UNL     1      12.019  34.673  21.311  1.00  0.00     0.168 HD
HETATM    7  C3  UNL     1      12.731  34.598  19.340  1.00  0.00     0.143 A 
HETATM    8  C4  UNL     1      13.787  34.376  18.469  1.00  0.00     0.065 A 
HETATM    9  C5  UNL     1      13.248  34.577  17.192  1.00  0.00     0.126 A 
HETATM   10  N4  UNL     1      11.960  34.916  17.216  1.00  0.00    -0.302 N 
ATOM     11  H4  UNL     1      11.355  35.124  16.422  1.00  0.00     0.186 HD
HETATM   12  N5  UNL     1      11.628  34.925  18.547  1.00  0.00    -0.239 N 
ENDROOT
BRANCH  12  13
HETATM   13  C6  UNL     1      10.291  35.247  18.936  1.00  0.00     0.058 A 
HETATM   14  C7  UNL     1       9.571  36.197  18.190  1.00  0.00     0.031 A 
HETATM   15  C8  UNL     1       8.262  36.535  18.543  1.00  0.00     0.002 A 
HETATM   16  C9  UNL     1       7.658  35.932  19.642  1.00  0.00     0.000 A 
HETATM   17  C10 UNL     1       8.362  34.989  20.388  1.00  0.00     0.002 A 
HETATM   18  C11 UNL     1       9.673  34.646  20.040  1.00  0.00     0.031 A 
ENDBRANCH  12  13
BRANCH   1  19
HETATM   19  N1  UNL     1      16.167  33.792  18.274  1.00  0.00    -0.288 NA
HETATM   20  H1  UNL     1      16.243  34.300  17.405  1.00  0.00     0.125 HD
HETATM   21  H2  UNL     1      16.989  33.799  18.868  1.00  0.00     0.125 HD
ENDBRANCH   1  19
TORSDOF 2
ENDMDL
MODEL 2
REMARK minimizedAffinity -6.26957035
REMARK  2 active torsions:
REMARK  status: ('A' for Active; 'I' for Inactive)
REMARK    1  A    between atoms: N1_1  and  C1_2 
REMARK    2  A    between atoms: N5_13  and  C6_14 
ROOT
HETATM    1  C1  UNL     1      -6.963  30.769   0.434  1.00  0.00     0.094 A 
HETATM    2  N2  UNL     1      -7.170  29.552  -0.103  1.00  0.00    -0.342 N 
ATOM      3  H2  UNL     1      -7.141  29.414  -1.113  1.00  0.00     0.167 HD
HETATM    4  C2  UNL     1      -7.416  28.522   0.727  1.00  0.00     0.183 A 
HETATM    5  N3  UNL     1      -7.476  28.536   2.067  1.00  0.00    -0.336 N 
ATOM      6  H3  UNL     1      -7.660  27.710   2.636  1.00  0.00     0.168 HD
HETATM    7  C3  UNL     1      -7.264  29.769   2.576  1.00  0.00     0.143 A 
HETATM    8  C4  UNL     1      -7.008  30.905   1.823  1.00  0.00     0.065 A 
HETATM    9  C5  UNL     1      -6.866  31.935   2.762  1.00  0.00     0.126 A 
HETATM   10  N4  UNL     1      -6.999  31.516   4.020  1.00  0.00    -0.302 N 
ATOM     11  H4  UNL     1      -6.928  32.071   4.872  1.00  0.00     0.186 HD
HETATM   12  N5  UNL     1      -7.253  30.172   3.913  1.00  0.00    -0.239 N 
ENDROOT
BRANCH  12  13
HETATM   13  C6  UNL     1      -7.460  29.400   5.098  1.00  0.00     0.058 A 
HETATM   14  C7  UNL     1      -7.037  29.917   6.336  1.00  0.00     0.031 A 
HETATM   15  C8  UNL     1      -7.223  29.189   7.513  1.00  0.00     0.002 A 
HETATM   16  C9  UNL     1      -7.833  27.938   7.470  1.00  0.00     0.000 A 
HETATM   17  C10 UNL     1      -8.257  27.416   6.250  1.00  0.00     0.002 A 
HETATM   18  C11 UNL     1      -8.073  28.141   5.067  1.00  0.00     0.031 A 
ENDBRANCH  12  13
BRANCH   1  19
HETATM   19  N1  UNL     1      -6.705  31.811  -0.442  1.00  0.00    -0.288 NA
HETATM   20  H1  UNL     1      -6.109  32.547  -0.092  1.00  0.00     0.125 HD
HETATM   21  H2  UNL     1      -6.479  31.456  -1.365  1.00  0.00     0.125 HD
ENDBRANCH   1  19
TORSDOF 2
ENDMDL
MODEL 3
REMARK minimizedAffinity -6.22134876
REMARK  2 active torsions:
REMARK  status: ('A' for Active; 'I' for Inactive)
REMARK    1  A    between atoms: N1_1  and  C1_2 
REMARK    2  A    between atoms: N5_13  and  C6_14 
ROOT
HETATM    1  C1  UNL     1      14.162  34.571  18.107  1.00  0.00     0.094 A 
HETATM    2  N2  UNL     1      14.235  35.456  17.095  1.00  0.00    -0.342 N 
ATOM      3  H2  UNL     1      15.101  35.579  16.570  1.00  0.00     0.167 HD
HETATM    4  C2  UNL     1      13.138  36.172  16.793  1.00  0.00     0.183 A 
HETATM    5  N3  UNL     1      11.930  36.120  17.375  1.00  0.00    -0.336 N 
ATOM      6  H3  UNL     1      11.136  36.691  17.087  1.00  0.00     0.168 HD
HETATM    7  C3  UNL     1      11.887  35.224  18.385  1.00  0.00     0.143 A 
HETATM    8  C4  UNL     1      12.951  34.434  18.791  1.00  0.00     0.065 A 
HETATM    9  C5  UNL     1      12.452  33.679  19.860  1.00  0.00     0.126 A 
HETATM   10  N4  UNL     1      11.172  33.933  20.125  1.00  0.00    -0.302 N 
ATOM     11  H4  UNL     1      10.588  33.506  20.843  1.00  0.00     0.186 HD
HETATM   12  N5  UNL     1      10.814  34.897  19.217  1.00  0.00    -0.239 N 
ENDROOT
BRANCH  12  13
HETATM   13  C6  UNL     1       9.481  35.414  19.229  1.00  0.00     0.058 A 
HETATM   14  C7  UNL     1       8.570  34.936  20.187  1.00  0.00     0.031 A 
HETATM   15  C8  UNL     1       7.259  35.419  20.227  1.00  0.00     0.002 A 
HETATM   16  C9  UNL     1       6.844  36.383  19.312  1.00  0.00     0.000 A 
HETATM   17  C10 UNL     1       7.738  36.864  18.359  1.00  0.00     0.002 A 
HETATM   18  C11 UNL     1       9.052  36.385  18.314  1.00  0.00     0.031 A 
ENDBRANCH  12  13
BRANCH   1  19
HETATM   19  N1  UNL     1      15.304  33.840  18.393  1.00  0.00    -0.288 NA
HETATM   20  H1  UNL     1      15.155  32.912  18.764  1.00  0.00     0.125 HD
HETATM   21  H2  UNL     1      15.975  33.914  17.637  1.00  0.00     0.125 HD
ENDBRANCH   1  19
TORSDOF 2
ENDMDL
MODEL 4
REMARK minimizedAffinity -6.12432289
REMARK  2 active torsions:
REMARK  status: ('A' for Active; 'I' for Inactive)
REMARK    1  A    between atoms: N1_1  and  C1_2 
REMARK    2  A    between atoms: N5_13  and  C6_14 
ROOT
HETATM    1  C1  UNL     1       7.417  35.580  20.284  1.00  0.00     0.094 A 
HETATM    2  N2  UNL     1       7.017  36.459  19.346  1.00  0.00    -0.342 N 
ATOM      3  H2  UNL     1       6.079  36.858  19.370  1.00  0.00     0.167 HD
HETATM    4  C2  UNL     1       7.886  36.797  18.376  1.00  0.00     0.183 A 
HETATM    5  N3  UNL     1       9.148  36.373  18.212  1.00  0.00    -0.336 N 
ATOM      6  H3  UNL     1       9.756  36.680  17.453  1.00  0.00     0.168 HD
HETATM    7  C3  UNL     1       9.521  35.493  19.167  1.00  0.00     0.143 A 
HETATM    8  C4  UNL     1       8.714  35.065  20.210  1.00  0.00     0.065 A 
HETATM    9  C5  UNL     1       9.506  34.164  20.932  1.00  0.00     0.126 A 
HETATM   10  N4  UNL     1      10.730  34.022  20.424  1.00  0.00    -0.302 N 
ATOM     11  H4  UNL     1      11.486  33.436  20.776  1.00  0.00     0.186 HD
HETATM   12  N5  UNL     1      10.745  34.840  19.323  1.00  0.00    -0.239 N 
ENDROOT
BRANCH  12  13
HETATM   13  C6  UNL     1      11.928  34.921  18.524  1.00  0.00     0.058 A 
HETATM   14  C7  UNL     1      12.036  35.940  17.561  1.00  0.00     0.031 A 
HETATM   15  C8  UNL     1      13.179  36.049  16.764  1.00  0.00     0.002 A 
HETATM   16  C9  UNL     1      14.224  35.142  16.918  1.00  0.00     0.000 A 
HETATM   17  C10 UNL     1      14.128  34.129  17.868  1.00  0.00     0.002 A 
HETATM   18  C11 UNL     1      12.987  34.015  18.670  1.00  0.00     0.031 A 
ENDBRANCH  12  13
BRANCH   1  19
HETATM   19  N1  UNL     1       6.506  35.254  21.276  1.00  0.00    -0.288 NA
HETATM   20  H1  UNL     1       6.897  35.020  22.177  1.00  0.00     0.125 HD
HETATM   21  H2  UNL     1       5.733  35.910  21.282  1.00  0.00     0.125 HD
ENDBRANCH   1  19
TORSDOF 2
ENDMDL
MODEL 5
REMARK minimizedAffinity -6.11914301
REMARK  2 active torsions:
REMARK  status: ('A' for Active; 'I' for Inactive)
REMARK    1  A    between atoms: N1_1  and  C1_2 
REMARK    2  A    between atoms: N5_13  and  C6_14 
ROOT
HETATM    1  C1  UNL     1       9.921  34.574  19.865  1.00  0.00     0.094 A 
HETATM    2  N2  UNL     1      10.496  33.949  20.910  1.00  0.00    -0.342 N 
ATOM      3  H2  UNL     1       9.940  33.649  21.710  1.00  0.00     0.167 HD
HETATM    4  C2  UNL     1      11.823  33.731  20.872  1.00  0.00     0.183 A 
HETATM    5  N3  UNL     1      12.686  34.052  19.895  1.00  0.00    -0.336 N 
ATOM      6  H3  UNL     1      13.684  33.847  19.930  1.00  0.00     0.168 HD
HETATM    7  C3  UNL     1      12.081  34.676  18.862  1.00  0.00     0.143 A 
HETATM    8  C4  UNL     1      10.726  34.960  18.791  1.00  0.00     0.065 A 
HETATM    9  C5  UNL     1      10.559  35.612  17.562  1.00  0.00     0.126 A 
HETATM   10  N4  UNL     1      11.695  35.731  16.876  1.00  0.00    -0.302 N 
ATOM     11  H4  UNL     1      11.827  36.155  15.958  1.00  0.00     0.186 HD
HETATM   12  N5  UNL     1      12.647  35.158  17.680  1.00  0.00    -0.239 N 
ENDROOT
BRANCH  12  13
HETATM   13  C6  UNL     1      14.008  35.124  17.243  1.00  0.00     0.058 A 
HETATM   14  C7  UNL     1      14.962  34.450  18.026  1.00  0.00     0.031 A 
HETATM   15  C8  UNL     1      16.301  34.397  17.628  1.00  0.00     0.002 A 
HETATM   16  C9  UNL     1      16.701  35.016  16.447  1.00  0.00     0.000 A 
HETATM   17  C10 UNL     1      15.765  35.686  15.664  1.00  0.00     0.002 A 
HETATM   18  C11 UNL     1      14.423  35.743  16.056  1.00  0.00     0.031 A 
ENDBRANCH  12  13
BRANCH   1  19
HETATM   19  N1  UNL     1       8.552  34.780  19.926  1.00  0.00    -0.288 NA
HETATM   20  H1  UNL     1       8.065  34.784  19.042  1.00  0.00     0.125 HD
HETATM   21  H2  UNL     1       8.137  34.216  20.660  1.00  0.00     0.125 HD
ENDBRANCH   1  19
TORSDOF 2
ENDMDL
MODEL 6
REMARK minimizedAffinity -6.04023266
REMARK  2 active torsions:
REMARK  status: ('A' for Active; 'I' for Inactive)
REMARK    1  A    between atoms: N1_1  and  C1_2 
REMARK    2  A    between atoms: N5_13  and  C6_14 
ROOT
HETATM    1  C1  UNL     1       7.930  35.895  19.734  1.00  0.00     0.094 A 
HETATM    2  N2  UNL     1       8.331  35.739  21.010  1.00  0.00    -0.342 N 
ATOM      3  H2  UNL     1       7.660  35.774  21.777  1.00  0.00     0.167 HD
HETATM    4  C2  UNL     1       9.640  35.534  21.247  1.00  0.00     0.183 A 
HETATM    5  N3  UNL     1      10.638  35.451  20.355  1.00  0.00    -0.336 N 
ATOM      6  H3  UNL     1      11.612  35.285  20.607  1.00  0.00     0.168 HD
HETATM    7  C3  UNL     1      10.206  35.612  19.085  1.00  0.00     0.143 A 
HETATM    8  C4  UNL     1       8.887  35.833  18.719  1.00  0.00     0.065 A 
HETATM    9  C5  UNL     1       8.916  35.945  17.323  1.00  0.00     0.126 A 
HETATM   10  N4  UNL     1      10.137  35.794  16.812  1.00  0.00    -0.302 N 
ATOM     11  H4  UNL     1      10.409  35.822  15.830  1.00  0.00     0.186 HD
HETATM   12  N5  UNL     1      10.946  35.593  17.901  1.00  0.00    -0.239 N 
ENDROOT
BRANCH  12  13
HETATM   13  C6  UNL     1      12.349  35.401  17.708  1.00  0.00     0.058 A 
HETATM   14  C7  UNL     1      12.947  34.212  18.164  1.00  0.00     0.031 A 
HETATM   15  C8  UNL     1      14.316  33.991  17.992  1.00  0.00     0.002 A 
HETATM   16  C9  UNL     1      15.103  34.953  17.365  1.00  0.00     0.000 A 
HETATM   17  C10 UNL     1      14.522  36.134  16.909  1.00  0.00     0.002 A 
HETATM   18  C11 UNL     1      13.151  36.361  17.078  1.00  0.00     0.031 A 
ENDBRANCH  12  13
BRANCH   1  19
HETATM   19  N1  UNL     1       6.576  36.098  19.517  1.00  0.00    -0.288 NA
HETATM   20  H1  UNL     1       6.211  35.748  18.643  1.00  0.00     0.125 HD
HETATM   21  H2  UNL     1       6.042  35.866  20.347  1.00  0.00     0.125 HD
ENDBRANCH   1  19
TORSDOF 2
ENDMDL
MODEL 7
REMARK minimizedAffinity -5.81230783
REMARK  2 active torsions:
REMARK  status: ('A' for Active; 'I' for Inactive)
REMARK    1  A    between atoms: N1_1  and  C1_2 
REMARK    2  A    between atoms: N5_13  and  C6_14 
ROOT
HETATM    1  C1  UNL     1      11.410  62.142   6.334  1.00  0.00     0.094 A 
HETATM    2  N2  UNL     1      10.958  61.611   7.485  1.00  0.00    -0.342 N 
ATOM      3  H2  UNL     1      10.416  62.172   8.142  1.00  0.00     0.167 HD
HETATM    4  C2  UNL     1      11.239  60.322   7.747  1.00  0.00     0.183 A 
HETATM    5  N3  UNL     1      11.925  59.454   6.988  1.00  0.00    -0.336 N 
ATOM      6  H3  UNL     1      12.094  58.483   7.247  1.00  0.00     0.168 HD
HETATM    7  C3  UNL     1      12.365  60.015   5.840  1.00  0.00     0.143 A 
HETATM    8  C4  UNL     1      12.144  61.331   5.465  1.00  0.00     0.065 A 
HETATM    9  C5  UNL     1      12.783  61.463   4.225  1.00  0.00     0.126 A 
HETATM   10  N4  UNL     1      13.358  60.335   3.811  1.00  0.00    -0.302 N 
ATOM     11  H4  UNL     1      13.870  60.179   2.943  1.00  0.00     0.186 HD
HETATM   12  N5  UNL     1      13.109  59.431   4.813  1.00  0.00    -0.239 N 
ENDROOT
BRANCH  12  13
HETATM   13  C6  UNL     1      13.604  58.096   4.692  1.00  0.00     0.058 A 
HETATM   14  C7  UNL     1      13.236  57.327   3.574  1.00  0.00     0.031 A 
HETATM   15  C8  UNL     1      13.701  56.018   3.425  1.00  0.00     0.002 A 
HETATM   16  C9  UNL     1      14.537  55.462   4.390  1.00  0.00     0.000 A 
HETATM   17  C10 UNL     1      14.909  56.214   5.501  1.00  0.00     0.002 A 
HETATM   18  C11 UNL     1      14.447  57.526   5.656  1.00  0.00     0.031 A 
ENDBRANCH  12  13
BRANCH   1  19
HETATM   19  N1  UNL     1      11.101  63.470   6.084  1.00  0.00    -0.288 NA
HETATM   20  H1  UNL     1      10.997  63.725   5.113  1.00  0.00     0.125 HD
HETATM   21  H2  UNL     1      10.371  63.791   6.710  1.00  0.00     0.125 HD
ENDBRANCH   1  19
TORSDOF 2
ENDMDL
MODEL 8
REMARK minimizedAffinity -5.80411291
REMARK  2 active torsions:
REMARK  status: ('A' for Active; 'I' for Inactive)
REMARK    1  A    between atoms: N1_1  and  C1_2 
REMARK    2  A    between atoms: N5_13  and  C6_14 
ROOT
HETATM    1  C1  UNL     1       6.982  65.368  -7.212  1.00  0.00     0.094 A 
HETATM    2  N2  UNL     1       7.646  64.413  -6.533  1.00  0.00    -0.342 N 
ATOM      3  H2  UNL     1       8.590  64.139  -6.805  1.00  0.00     0.167 HD
HETATM    4  C2  UNL     1       7.033  63.831  -5.487  1.00  0.00     0.183 A 
HETATM    5  N3  UNL     1       5.809  64.084  -5.000  1.00  0.00    -0.336 N 
ATOM      6  H3  UNL     1       5.409  63.606  -4.192  1.00  0.00     0.168 HD
HETATM    7  C3  UNL     1       5.169  65.045  -5.700  1.00  0.00     0.143 A 
HETATM    8  C4  UNL     1       5.694  65.711  -6.796  1.00  0.00     0.065 A 
HETATM    9  C5  UNL     1       4.686  66.598  -7.195  1.00  0.00     0.126 A 
HETATM   10  N4  UNL     1       3.601  66.537  -6.424  1.00  0.00    -0.302 N 
ATOM     11  H4  UNL     1       2.747  67.087  -6.505  1.00  0.00     0.186 HD
HETATM   12  N5  UNL     1       3.890  65.569  -5.495  1.00  0.00    -0.239 N 
ENDROOT
BRANCH  12  13
HETATM   13  C6  UNL     1       2.919  65.237  -4.500  1.00  0.00     0.058 A 
HETATM   14  C7  UNL     1       1.657  64.767  -4.905  1.00  0.00     0.031 A 
HETATM   15  C8  UNL     1       0.684  64.433  -3.959  1.00  0.00     0.002 A 
HETATM   16  C9  UNL     1       0.959  64.566  -2.601  1.00  0.00     0.000 A 
HETATM   17  C10 UNL     1       2.206  65.031  -2.188  1.00  0.00     0.002 A 
HETATM   18  C11 UNL     1       3.184  65.366  -3.131  1.00  0.00     0.031 A 
ENDBRANCH  12  13
BRANCH   1  19
HETATM   19  N1  UNL     1       7.638  65.957  -8.281  1.00  0.00    -0.288 NA
HETATM   20  H1  UNL     1       7.399  66.919  -8.471  1.00  0.00     0.125 HD
HETATM   21  H2  UNL     1       8.629  65.742  -8.256  1.00  0.00     0.125 HD
ENDBRANCH   1  19
TORSDOF 2
ENDMDL
MODEL 9
REMARK minimizedAffinity -5.78761625
REMARK  2 active torsions:
REMARK  status: ('A' for Active; 'I' for Inactive)
REMARK    1  A    between atoms: N1_1  and  C1_2 
REMARK    2  A    between atoms: N5_13  and  C6_14 
ROOT
HETATM    1  C1  UNL     1      10.659  45.629  -0.471  1.00  0.00     0.094 A 
HETATM    2  N2  UNL     1       9.570  46.141   0.134  1.00  0.00    -0.342 N 
ATOM      3  H2  UNL     1       8.954  45.549   0.690  1.00  0.00     0.167 HD
HETATM    4  C2  UNL     1       9.317  47.454  -0.014  1.00  0.00     0.183 A 
HETATM    5  N3  UNL     1      10.030  48.362  -0.697  1.00  0.00    -0.336 N 
ATOM      6  H3  UNL     1       9.781  49.349  -0.760  1.00  0.00     0.168 HD
HETATM    7  C3  UNL     1      11.114  47.819  -1.292  1.00  0.00     0.143 A 
HETATM    8  C4  UNL     1      11.475  46.483  -1.217  1.00  0.00     0.065 A 
HETATM    9  C5  UNL     1      12.643  46.381  -1.982  1.00  0.00     0.126 A 
HETATM   10  N4  UNL     1      13.030  47.545  -2.501  1.00  0.00    -0.302 N 
ATOM     11  H4  UNL     1      13.849  47.728  -3.081  1.00  0.00     0.186 HD
HETATM   12  N5  UNL     1      12.081  48.444  -2.083  1.00  0.00    -0.239 N 
ENDROOT
BRANCH  12  13
HETATM   13  C6  UNL     1      12.189  49.814  -2.476  1.00  0.00     0.058 A 
HETATM   14  C7  UNL     1      13.199  50.612  -1.910  1.00  0.00     0.031 A 
HETATM   15  C8  UNL     1      13.332  51.955  -2.272  1.00  0.00     0.002 A 
HETATM   16  C9  UNL     1      12.461  52.516  -3.201  1.00  0.00     0.000 A 
HETATM   17  C10 UNL     1      11.457  51.735  -3.769  1.00  0.00     0.002 A 
HETATM   18  C11 UNL     1      11.318  50.389  -3.411  1.00  0.00     0.031 A 
ENDBRANCH  12  13
BRANCH   1  19
HETATM   19  N1  UNL     1      10.901  44.275  -0.297  1.00  0.00    -0.288 NA
HETATM   20  H1  UNL     1      11.871  43.994  -0.309  1.00  0.00     0.125 HD
HETATM   21  H2  UNL     1      10.340  43.906   0.462  1.00  0.00     0.125 HD
ENDBRANCH   1  19
TORSDOF 2
ENDMDL
