MODEL 1
REMARK minimizedAffinity -6.68724966
REMARK CNNscore 0.510215878
REMARK CNNaffinity 5.54715538
REMARK  6 active torsions:
REMARK  status: ('A' for Active; 'I' for Inactive)
REMARK    1  A    between atoms: C5_6  and  N1_7 
REMARK    2  A    between atoms: N1_7  and  C6_8 
REMARK    3  A    between atoms: C11_17  and  N4_18 
REMARK    4  A    between atoms: N4_18  and  N5_19 
REMARK    5  A    between atoms: N6_21  and  C12_23 
REMARK    6  A    between atoms: C12_23  and  C13_24 
ROOT
HETATM    1  C6  UNL     1      13.892  56.920   1.946  1.00  0.00     0.119 A 
HETATM    2  N2  UNL     1      14.177  58.132   1.436  1.00  0.00    -0.338 N 
ATOM      3  H2  UNL     1      13.890  58.396   0.493  1.00  0.00     0.168 HD
HETATM    4  C7  UNL     1      14.852  58.974   2.223  1.00  0.00     0.182 A 
HETATM    5  N3  UNL     1      15.272  58.727   3.467  1.00  0.00    -0.352 N 
ATOM      6  H3  UNL     1      15.775  59.428   4.012  1.00  0.00     0.166 HD
HETATM    7  C8  UNL     1      15.001  57.517   3.960  1.00  0.00     0.047 A 
HETATM    8  C9  UNL     1      15.437  57.210   5.241  1.00  0.00     0.033 A 
HETATM    9  C10 UNL     1      15.198  55.961   5.826  1.00  0.00     0.033 A 
HETATM   10  C11 UNL     1      14.489  54.976   5.139  1.00  0.00     0.050 A 
HETATM   11  C19 UNL     1      14.072  55.269   3.835  1.00  0.00     0.048 A 
HETATM   12  C20 UNL     1      14.303  56.541   3.240  1.00  0.00     0.037 A 
ENDROOT
BRANCH  10  13
HETATM   13  N4  UNL     1      14.287  53.686   5.657  1.00  0.00    -0.287 N 
HETATM   14  H8  UNL     1      14.141  53.627   6.659  1.00  0.00     0.188 HD
BRANCH  13  15
HETATM   15  N5  UNL     1      14.978  52.656   5.134  1.00  0.00    -0.246 N 
HETATM   16  N6  UNL     1      16.082  52.668   5.708  1.00  0.00    -0.318 N 
ATOM     17  H6  UNL     1      16.342  53.347   6.423  1.00  0.00     0.182 HD
ATOM     18  H5  UNL     1      14.663  52.004   4.417  1.00  0.00     0.208 HD
BRANCH  16  19
HETATM   19  C12 UNL     1      16.969  51.592   5.240  1.00  0.00     0.179 C 
BRANCH  19  20
HETATM   20  C13 UNL     1      17.989  51.220   6.287  1.00  0.00    -0.039 A 
HETATM   21  C14 UNL     1      18.340  49.877   6.484  1.00  0.00     0.009 A 
HETATM   22  C15 UNL     1      19.294  49.529   7.443  1.00  0.00     0.001 A 
HETATM   23  C16 UNL     1      19.910  50.519   8.206  1.00  0.00     0.000 A 
HETATM   24  C17 UNL     1      19.578  51.858   8.010  1.00  0.00     0.001 A 
HETATM   25  C18 UNL     1      18.624  52.209   7.052  1.00  0.00     0.009 A 
ENDBRANCH  19  20
ENDBRANCH  16  19
ENDBRANCH  13  15
ENDBRANCH  10  13
BRANCH   1  26
HETATM   26  N1  UNL     1      13.134  55.999   1.170  1.00  0.00    -0.342 N 
HETATM   27  H4  UNL     1      12.258  55.818   1.651  1.00  0.00     0.167 HD
BRANCH  26  28
HETATM   28  C5  UNL     1      12.967  55.963  -0.234  1.00  0.00     0.034 A 
HETATM   29  C4  UNL     1      14.027  55.501  -1.032  1.00  0.00     0.029 A 
HETATM   30  C3  UNL     1      13.939  55.502  -2.427  1.00  0.00     0.004 A 
HETATM   31  C2  UNL     1      12.794  55.993  -3.049  1.00  0.00     0.019 A 
HETATM   32  C1  UNL     1      11.752  56.490  -2.271  1.00  0.00     0.013 A 
HETATM   33 BR1  UNL     1      10.206  57.185  -3.112  1.00  0.00    -0.051 Br
HETATM   34  C21 UNL     1      11.840  56.490  -0.877  1.00  0.00     0.048 A 
ENDBRANCH  26  28
ENDBRANCH   1  26
TORSDOF 6
ENDMDL
MODEL 2
REMARK minimizedAffinity -6.57199764
REMARK CNNscore 0.473720551
REMARK CNNaffinity 5.69442225
REMARK  6 active torsions:
REMARK  status: ('A' for Active; 'I' for Inactive)
REMARK    1  A    between atoms: C5_6  and  N1_7 
REMARK    2  A    between atoms: N1_7  and  C6_8 
REMARK    3  A    between atoms: C11_17  and  N4_18 
REMARK    4  A    between atoms: N4_18  and  N5_19 
REMARK    5  A    between atoms: N6_21  and  C12_23 
REMARK    6  A    between atoms: C12_23  and  C13_24 
ROOT
HETATM    1  C6  UNL     1      13.269  51.388  -3.104  1.00  0.00     0.119 A 
HETATM    2  N2  UNL     1      14.111  50.494  -3.652  1.00  0.00    -0.338 N 
ATOM      3  H2  UNL     1      13.783  49.592  -3.996  1.00  0.00     0.168 HD
HETATM    4  C7  UNL     1      15.398  50.845  -3.726  1.00  0.00     0.182 A 
HETATM    5  N3  UNL     1      15.928  51.998  -3.306  1.00  0.00    -0.352 N 
ATOM      6  H3  UNL     1      16.923  52.199  -3.407  1.00  0.00     0.166 HD
HETATM    7  C8  UNL     1      15.089  52.873  -2.748  1.00  0.00     0.047 A 
HETATM    8  C9  UNL     1      15.599  54.075  -2.279  1.00  0.00     0.033 A 
HETATM    9  C10 UNL     1      14.786  55.040  -1.676  1.00  0.00     0.033 A 
HETATM   10  C11 UNL     1      13.414  54.833  -1.540  1.00  0.00     0.050 A 
HETATM   11  C19 UNL     1      12.897  53.609  -1.983  1.00  0.00     0.048 A 
HETATM   12  C20 UNL     1      13.718  52.629  -2.608  1.00  0.00     0.037 A 
ENDROOT
BRANCH  10  13
HETATM   13  N4  UNL     1      12.570  55.741  -0.878  1.00  0.00    -0.287 N 
HETATM   14  H8  UNL     1      11.803  56.116  -1.427  1.00  0.00     0.188 HD
BRANCH  13  15
HETATM   15  N5  UNL     1      13.105  56.611  -0.003  1.00  0.00    -0.246 N 
HETATM   16  N6  UNL     1      13.166  56.002   1.081  1.00  0.00    -0.318 N 
ATOM     17  H6  UNL     1      12.859  55.038   1.207  1.00  0.00     0.182 HD
ATOM     18  H5  UNL     1      13.398  57.570  -0.188  1.00  0.00     0.208 HD
BRANCH  16  19
HETATM   19  C12 UNL     1      13.733  56.828   2.157  1.00  0.00     0.179 C 
BRANCH  19  20
HETATM   20  C13 UNL     1      14.402  55.982   3.212  1.00  0.00    -0.039 A 
HETATM   21  C14 UNL     1      13.629  55.238   4.115  1.00  0.00     0.009 A 
HETATM   22  C15 UNL     1      14.243  54.442   5.084  1.00  0.00     0.001 A 
HETATM   23  C16 UNL     1      15.634  54.376   5.153  1.00  0.00     0.000 A 
HETATM   24  C17 UNL     1      16.412  55.101   4.253  1.00  0.00     0.001 A 
HETATM   25  C18 UNL     1      15.800  55.898   3.283  1.00  0.00     0.009 A 
ENDBRANCH  19  20
ENDBRANCH  16  19
ENDBRANCH  13  15
ENDBRANCH  10  13
BRANCH   1  26
HETATM   26  N1  UNL     1      11.879  51.088  -3.042  1.00  0.00    -0.342 N 
HETATM   27  H4  UNL     1      11.385  51.722  -3.662  1.00  0.00     0.167 HD
BRANCH  26  28
HETATM   28  C5  UNL     1      11.256  49.818  -3.003  1.00  0.00     0.034 A 
HETATM   29  C4  UNL     1      11.025  49.139  -4.211  1.00  0.00     0.029 A 
HETATM   30  C3  UNL     1      10.358  47.911  -4.236  1.00  0.00     0.004 A 
HETATM   31  C2  UNL     1       9.887  47.353  -3.050  1.00  0.00     0.019 A 
HETATM   32  C1  UNL     1      10.076  48.034  -1.851  1.00  0.00     0.013 A 
HETATM   33 BR1  UNL     1       9.412  47.295  -0.240  1.00  0.00    -0.051 Br
HETATM   34  C21 UNL     1      10.741  49.262  -1.826  1.00  0.00     0.048 A 
ENDBRANCH  26  28
ENDBRANCH   1  26
TORSDOF 6
ENDMDL
MODEL 3
REMARK minimizedAffinity -7.2376647
REMARK CNNscore 0.371171951
REMARK CNNaffinity 5.03090906
REMARK  6 active torsions:
REMARK  status: ('A' for Active; 'I' for Inactive)
REMARK    1  A    between atoms: C5_6  and  N1_7 
REMARK    2  A    between atoms: N1_7  and  C6_8 
REMARK    3  A    between atoms: C11_17  and  N4_18 
REMARK    4  A    between atoms: N4_18  and  N5_19 
REMARK    5  A    between atoms: N6_21  and  C12_23 
REMARK    6  A    between atoms: C12_23  and  C13_24 
ROOT
HETATM    1  C6  UNL     1       3.324  65.661  -4.732  1.00  0.00     0.119 A 
HETATM    2  N2  UNL     1       2.329  66.386  -5.276  1.00  0.00    -0.338 N 
ATOM      3  H2  UNL     1       1.442  66.523  -4.792  1.00  0.00     0.168 HD
HETATM    4  C7  UNL     1       2.559  66.917  -6.479  1.00  0.00     0.182 A 
HETATM    5  N3  UNL     1       3.681  66.796  -7.195  1.00  0.00    -0.352 N 
ATOM      6  H3  UNL     1       3.786  67.242  -8.106  1.00  0.00     0.166 HD
HETATM    7  C8  UNL     1       4.657  66.062  -6.657  1.00  0.00     0.047 A 
HETATM    8  C9  UNL     1       5.832  65.892  -7.374  1.00  0.00     0.033 A 
HETATM    9  C10 UNL     1       6.898  65.132  -6.882  1.00  0.00     0.033 A 
HETATM   10  C11 UNL     1       6.822  64.525  -5.629  1.00  0.00     0.050 A 
HETATM   11  C19 UNL     1       5.628  64.667  -4.912  1.00  0.00     0.048 A 
HETATM   12  C20 UNL     1       4.545  65.448  -5.404  1.00  0.00     0.037 A 
ENDROOT
BRANCH  10  13
HETATM   13  N4  UNL     1       7.837  63.695  -5.124  1.00  0.00    -0.287 N 
HETATM   14  H8  UNL     1       8.660  64.168  -4.764  1.00  0.00     0.188 HD
BRANCH  13  15
HETATM   15  N5  UNL     1       8.091  62.526  -5.739  1.00  0.00    -0.246 N 
HETATM   16  N6  UNL     1       9.323  62.500  -5.913  1.00  0.00    -0.318 N 
ATOM     17  H6  UNL     1       9.953  63.246  -5.621  1.00  0.00     0.182 HD
ATOM     18  H5  UNL     1       7.416  61.811  -6.007  1.00  0.00     0.208 HD
BRANCH  16  19
HETATM   19  C12 UNL     1       9.768  61.270  -6.588  1.00  0.00     0.179 C 
BRANCH  19  20
HETATM   20  C13 UNL     1       9.797  60.097  -5.639  1.00  0.00    -0.039 A 
HETATM   21  C14 UNL     1       8.710  59.214  -5.575  1.00  0.00     0.009 A 
HETATM   22  C15 UNL     1       8.737  58.120  -4.709  1.00  0.00     0.001 A 
HETATM   23  C16 UNL     1       9.854  57.894  -3.906  1.00  0.00     0.000 A 
HETATM   24  C17 UNL     1      10.945  58.758  -3.969  1.00  0.00     0.001 A 
HETATM   25  C18 UNL     1      10.920  59.853  -4.835  1.00  0.00     0.009 A 
ENDBRANCH  19  20
ENDBRANCH  16  19
ENDBRANCH  13  15
ENDBRANCH  10  13
BRANCH   1  26
HETATM   26  N1  UNL     1       3.153  65.111  -3.431  1.00  0.00    -0.342 N 
HETATM   27  H4  UNL     1       3.828  65.543  -2.807  1.00  0.00     0.167 HD
BRANCH  26  28
HETATM   28  C5  UNL     1       1.946  64.814  -2.755  1.00  0.00     0.034 A 
HETATM   29  C4  UNL     1       1.242  63.650  -3.105  1.00  0.00     0.029 A 
HETATM   30  C3  UNL     1       0.014  63.340  -2.514  1.00  0.00     0.004 A 
HETATM   31  C2  UNL     1      -0.544  64.206  -1.577  1.00  0.00     0.019 A 
HETATM   32  C1  UNL     1       0.126  65.382  -1.250  1.00  0.00     0.013 A 
HETATM   33 BR1  UNL     1      -0.641  66.579   0.000  1.00  0.00    -0.051 Br
HETATM   34  C21 UNL     1       1.352  65.693  -1.842  1.00  0.00     0.048 A 
ENDBRANCH  26  28
ENDBRANCH   1  26
TORSDOF 6
ENDMDL
MODEL 4
REMARK minimizedAffinity -6.57668209
REMARK CNNscore 0.271634132
REMARK CNNaffinity 4.87863111
REMARK  6 active torsions:
REMARK  status: ('A' for Active; 'I' for Inactive)
REMARK    1  A    between atoms: C5_6  and  N1_7 
REMARK    2  A    between atoms: N1_7  and  C6_8 
REMARK    3  A    between atoms: C11_17  and  N4_18 
REMARK    4  A    between atoms: N4_18  and  N5_19 
REMARK    5  A    between atoms: N6_21  and  C12_23 
REMARK    6  A    between atoms: C12_23  and  C13_24 
ROOT
HETATM    1  C6  UNL     1      14.216  53.502  -2.275  1.00  0.00     0.119 A 
HETATM    2  N2  UNL     1      15.539  53.294  -2.153  1.00  0.00    -0.338 N 
ATOM      3  H2  UNL     1      15.985  52.457  -2.528  1.00  0.00     0.168 HD
HETATM    4  C7  UNL     1      16.241  54.236  -1.518  1.00  0.00     0.182 A 
HETATM    5  N3  UNL     1      15.754  55.364  -0.991  1.00  0.00    -0.352 N 
ATOM      6  H3  UNL     1      16.357  56.044  -0.529  1.00  0.00     0.166 HD
HETATM    7  C8  UNL     1      14.438  55.555  -1.101  1.00  0.00     0.047 A 
HETATM    8  C9  UNL     1      13.885  56.702  -0.551  1.00  0.00     0.033 A 
HETATM    9  C10 UNL     1      12.514  56.971  -0.619  1.00  0.00     0.033 A 
HETATM   10  C11 UNL     1      11.647  56.093  -1.267  1.00  0.00     0.050 A 
HETATM   11  C19 UNL     1      12.192  54.918  -1.798  1.00  0.00     0.048 A 
HETATM   12  C20 UNL     1      13.587  54.645  -1.741  1.00  0.00     0.037 A 
ENDROOT
BRANCH  10  13
HETATM   13  N4  UNL     1      10.255  56.285  -1.298  1.00  0.00    -0.287 N 
HETATM   14  H8  UNL     1       9.733  55.883  -0.526  1.00  0.00     0.188 HD
BRANCH  13  15
HETATM   15  N5  UNL     1       9.616  56.243  -2.482  1.00  0.00    -0.246 N 
HETATM   16  N6  UNL     1      10.066  57.199  -3.140  1.00  0.00    -0.318 N 
ATOM     17  H6  UNL     1      10.777  57.842  -2.792  1.00  0.00     0.182 HD
ATOM     18  H5  UNL     1       8.910  55.570  -2.778  1.00  0.00     0.208 HD
BRANCH  16  19
HETATM   19  C12 UNL     1       9.458  57.296  -4.476  1.00  0.00     0.179 C 
BRANCH  19  20
HETATM   20  C13 UNL     1       9.374  58.728  -4.943  1.00  0.00    -0.039 A 
HETATM   21  C14 UNL     1      10.536  59.505  -5.048  1.00  0.00     0.009 A 
HETATM   22  C15 UNL     1      10.466  60.827  -5.493  1.00  0.00     0.001 A 
HETATM   23  C16 UNL     1       9.236  61.380  -5.844  1.00  0.00     0.000 A 
HETATM   24  C17 UNL     1       8.076  60.613  -5.756  1.00  0.00     0.001 A 
HETATM   25  C18 UNL     1       8.144  59.292  -5.311  1.00  0.00     0.009 A 
ENDBRANCH  19  20
ENDBRANCH  16  19
ENDBRANCH  13  15
ENDBRANCH  10  13
BRANCH   1  26
HETATM   26  N1  UNL     1      13.425  52.554  -2.984  1.00  0.00    -0.342 N 
HETATM   27  H4  UNL     1      13.807  52.451  -3.919  1.00  0.00     0.167 HD
BRANCH  26  28
HETATM   28  C5  UNL     1      12.884  51.335  -2.514  1.00  0.00     0.034 A 
HETATM   29  C4  UNL     1      11.510  51.268  -2.228  1.00  0.00     0.029 A 
HETATM   30  C3  UNL     1      10.934  50.108  -1.702  1.00  0.00     0.004 A 
HETATM   31  C2  UNL     1      11.732  49.000  -1.428  1.00  0.00     0.019 A 
HETATM   32  C1  UNL     1      13.101  49.067  -1.670  1.00  0.00     0.013 A 
HETATM   33 BR1  UNL     1      14.196  47.575  -1.272  1.00  0.00    -0.051 Br
HETATM   34  C21 UNL     1      13.678  50.226  -2.194  1.00  0.00     0.048 A 
ENDBRANCH  26  28
ENDBRANCH   1  26
TORSDOF 6
ENDMDL
MODEL 5
REMARK minimizedAffinity -6.83465862
REMARK CNNscore 0.266924769
REMARK CNNaffinity 4.95014238
REMARK  6 active torsions:
REMARK  status: ('A' for Active; 'I' for Inactive)
REMARK    1  A    between atoms: C5_6  and  N1_7 
REMARK    2  A    between atoms: N1_7  and  C6_8 
REMARK    3  A    between atoms: C11_17  and  N4_18 
REMARK    4  A    between atoms: N4_18  and  N5_19 
REMARK    5  A    between atoms: N6_21  and  C12_23 
REMARK    6  A    between atoms: C12_23  and  C13_24 
ROOT
HETATM    1  C6  UNL     1      13.561  58.305   0.203  1.00  0.00     0.119 A 
HETATM    2  N2  UNL     1      13.394  59.640   0.220  1.00  0.00    -0.338 N 
ATOM      3  H2  UNL     1      13.912  60.235   0.866  1.00  0.00     0.168 HD
HETATM    4  C7  UNL     1      12.518  60.149  -0.651  1.00  0.00     0.182 A 
HETATM    5  N3  UNL     1      11.792  59.459  -1.535  1.00  0.00    -0.352 N 
ATOM      6  H3  UNL     1      11.149  59.921  -2.178  1.00  0.00     0.166 HD
HETATM    7  C8  UNL     1      11.950  58.134  -1.534  1.00  0.00     0.047 A 
HETATM    8  C9  UNL     1      11.200  57.376  -2.422  1.00  0.00     0.033 A 
HETATM    9  C10 UNL     1      11.304  55.982  -2.477  1.00  0.00     0.033 A 
HETATM   10  C11 UNL     1      12.189  55.299  -1.644  1.00  0.00     0.050 A 
HETATM   11  C19 UNL     1      12.927  56.054  -0.725  1.00  0.00     0.048 A 
HETATM   12  C20 UNL     1      12.833  57.473  -0.672  1.00  0.00     0.037 A 
ENDROOT
BRANCH  10  13
HETATM   13  N4  UNL     1      12.276  53.897  -1.613  1.00  0.00    -0.287 N 
HETATM   14  H8  UNL     1      13.099  53.512  -1.160  1.00  0.00     0.188 HD
BRANCH  13  15
HETATM   15  N5  UNL     1      11.847  53.192  -2.676  1.00  0.00    -0.246 N 
HETATM   16  N6  UNL     1      11.606  52.050  -2.246  1.00  0.00    -0.318 N 
ATOM     17  H6  UNL     1      11.728  51.773  -1.272  1.00  0.00     0.182 HD
ATOM     18  H5  UNL     1      11.742  53.525  -3.634  1.00  0.00     0.208 HD
BRANCH  16  19
HETATM   19  C12 UNL     1      11.124  51.143  -3.301  1.00  0.00     0.179 C 
BRANCH  19  20
HETATM   20  C13 UNL     1      10.418  49.944  -2.719  1.00  0.00    -0.039 A 
HETATM   21  C14 UNL     1       9.594  49.149  -3.529  1.00  0.00     0.009 A 
HETATM   22  C15 UNL     1       8.948  48.030  -2.999  1.00  0.00     0.001 A 
HETATM   23  C16 UNL     1       9.127  47.691  -1.660  1.00  0.00     0.000 A 
HETATM   24  C17 UNL     1       9.953  48.466  -0.848  1.00  0.00     0.001 A 
HETATM   25  C18 UNL     1      10.600  49.586  -1.376  1.00  0.00     0.009 A 
ENDBRANCH  19  20
ENDBRANCH  16  19
ENDBRANCH  13  15
ENDBRANCH  10  13
BRANCH   1  26
HETATM   26  N1  UNL     1      14.515  57.712   1.076  1.00  0.00    -0.342 N 
HETATM   27  H4  UNL     1      15.429  58.102   0.867  1.00  0.00     0.167 HD
BRANCH  26  28
HETATM   28  C5  UNL     1      14.384  57.424   2.455  1.00  0.00     0.034 A 
HETATM   29  C4  UNL     1      14.176  58.484   3.353  1.00  0.00     0.029 A 
HETATM   30  C3  UNL     1      14.101  58.263   4.732  1.00  0.00     0.004 A 
HETATM   31  C2  UNL     1      14.259  56.975   5.237  1.00  0.00     0.019 A 
HETATM   32  C1  UNL     1      14.504  55.921   4.361  1.00  0.00     0.013 A 
HETATM   33 BR1  UNL     1      14.749  54.173   5.044  1.00  0.00    -0.051 Br
HETATM   34  C21 UNL     1      14.581  56.142   2.984  1.00  0.00     0.048 A 
ENDBRANCH  26  28
ENDBRANCH   1  26
TORSDOF 6
ENDMDL
MODEL 6
REMARK minimizedAffinity -6.53270149
REMARK CNNscore 0.250398368
REMARK CNNaffinity 5.11340284
REMARK  6 active torsions:
REMARK  status: ('A' for Active; 'I' for Inactive)
REMARK    1  A    between atoms: C5_6  and  N1_7 
REMARK    2  A    between atoms: N1_7  and  C6_8 
REMARK    3  A    between atoms: C11_17  and  N4_18 
REMARK    4  A    between atoms: N4_18  and  N5_19 
REMARK    5  A    between atoms: N6_21  and  C12_23 
REMARK    6  A    between atoms: C12_23  and  C13_24 
ROOT
HETATM    1  C6  UNL     1      17.986  54.058   4.525  1.00  0.00     0.119 A 
HETATM    2  N2  UNL     1      18.418  52.844   4.913  1.00  0.00    -0.338 N 
ATOM      3  H2  UNL     1      19.404  52.587   4.861  1.00  0.00     0.168 HD
HETATM    4  C7  UNL     1      17.495  51.993   5.368  1.00  0.00     0.182 A 
HETATM    5  N3  UNL     1      16.185  52.231   5.474  1.00  0.00    -0.352 N 
ATOM      6  H3  UNL     1      15.541  51.531   5.843  1.00  0.00     0.166 HD
HETATM    7  C8  UNL     1      15.761  53.431   5.072  1.00  0.00     0.047 A 
HETATM    8  C9  UNL     1      14.405  53.715   5.145  1.00  0.00     0.033 A 
HETATM    9  C10 UNL     1      13.882  54.946   4.737  1.00  0.00     0.033 A 
HETATM   10  C11 UNL     1      14.719  55.952   4.254  1.00  0.00     0.050 A 
HETATM   11  C19 UNL     1      16.085  55.662   4.149  1.00  0.00     0.048 A 
HETATM   12  C20 UNL     1      16.623  54.415   4.573  1.00  0.00     0.037 A 
ENDROOT
BRANCH  10  13
HETATM   13  N4  UNL     1      14.233  57.176   3.767  1.00  0.00    -0.287 N 
HETATM   14  H8  UNL     1      14.293  57.311   2.763  1.00  0.00     0.188 HD
BRANCH  13  15
HETATM   15  N5  UNL     1      14.434  58.293   4.490  1.00  0.00    -0.246 N 
HETATM   16  N6  UNL     1      13.329  58.573   4.989  1.00  0.00    -0.318 N 
ATOM     17  H6  UNL     1      12.484  58.021   4.841  1.00  0.00     0.182 HD
ATOM     18  H5  UNL     1      15.309  58.804   4.604  1.00  0.00     0.208 HD
BRANCH  16  19
HETATM   19  C12 UNL     1      13.379  59.788   5.817  1.00  0.00     0.179 C 
BRANCH  19  20
HETATM   20  C13 UNL     1      12.479  59.674   7.023  1.00  0.00    -0.039 A 
HETATM   21  C14 UNL     1      12.907  58.971   8.158  1.00  0.00     0.009 A 
HETATM   22  C15 UNL     1      12.084  58.873   9.282  1.00  0.00     0.001 A 
HETATM   23  C16 UNL     1      10.832  59.484   9.284  1.00  0.00     0.000 A 
HETATM   24  C17 UNL     1      10.401  60.196   8.166  1.00  0.00     0.001 A 
HETATM   25  C18 UNL     1      11.222  60.294   7.041  1.00  0.00     0.009 A 
ENDBRANCH  19  20
ENDBRANCH  16  19
ENDBRANCH  13  15
ENDBRANCH  10  13
BRANCH   1  26
HETATM   26  N1  UNL     1      18.931  55.023   4.076  1.00  0.00    -0.342 N 
HETATM   27  H4  UNL     1      19.664  55.105   4.775  1.00  0.00     0.167 HD
BRANCH  26  28
HETATM   28  C5  UNL     1      19.443  55.209   2.771  1.00  0.00     0.034 A 
HETATM   29  C4  UNL     1      20.405  54.308   2.285  1.00  0.00     0.029 A 
HETATM   30  C3  UNL     1      20.989  54.480   1.026  1.00  0.00     0.004 A 
HETATM   31  C2  UNL     1      20.638  55.575   0.242  1.00  0.00     0.019 A 
HETATM   32  C1  UNL     1      19.714  56.497   0.729  1.00  0.00     0.013 A 
HETATM   33 BR1  UNL     1      19.255  58.004  -0.320  1.00  0.00    -0.051 Br
HETATM   34  C21 UNL     1      19.131  56.326   1.987  1.00  0.00     0.048 A 
ENDBRANCH  26  28
ENDBRANCH   1  26
TORSDOF 6
ENDMDL
MODEL 7
REMARK minimizedAffinity -6.8441124
REMARK CNNscore 0.244678736
REMARK CNNaffinity 5.12275505
REMARK  6 active torsions:
REMARK  status: ('A' for Active; 'I' for Inactive)
REMARK    1  A    between atoms: C5_6  and  N1_7 
REMARK    2  A    between atoms: N1_7  and  C6_8 
REMARK    3  A    between atoms: C11_17  and  N4_18 
REMARK    4  A    between atoms: N4_18  and  N5_19 
REMARK    5  A    between atoms: N6_21  and  C12_23 
REMARK    6  A    between atoms: C12_23  and  C13_24 
ROOT
HETATM    1  C6  UNL     1      11.969  54.378  -3.023  1.00  0.00     0.119 A 
HETATM    2  N2  UNL     1      11.377  53.532  -3.885  1.00  0.00    -0.338 N 
ATOM      3  H2  UNL     1      10.389  53.616  -4.121  1.00  0.00     0.168 HD
HETATM    4  C7  UNL     1      12.145  52.578  -4.417  1.00  0.00     0.182 A 
HETATM    5  N3  UNL     1      13.445  52.383  -4.174  1.00  0.00    -0.352 N 
ATOM      6  H3  UNL     1      13.969  51.635  -4.629  1.00  0.00     0.166 HD
HETATM    7  C8  UNL     1      14.022  53.215  -3.305  1.00  0.00     0.047 A 
HETATM    8  C9  UNL     1      15.365  53.037  -3.007  1.00  0.00     0.033 A 
HETATM    9  C10 UNL     1      16.039  53.864  -2.102  1.00  0.00     0.033 A 
HETATM   10  C11 UNL     1      15.381  54.920  -1.474  1.00  0.00     0.050 A 
HETATM   11  C19 UNL     1      14.018  55.088  -1.747  1.00  0.00     0.048 A 
HETATM   12  C20 UNL     1      13.330  54.257  -2.675  1.00  0.00     0.037 A 
ENDROOT
BRANCH  10  13
HETATM   13  N4  UNL     1      15.997  55.732  -0.506  1.00  0.00    -0.287 N 
HETATM   14  H8  UNL     1      16.988  55.570  -0.356  1.00  0.00     0.188 HD
BRANCH  13  15
HETATM   15  N5  UNL     1      15.312  56.057   0.605  1.00  0.00    -0.246 N 
HETATM   16  N6  UNL     1      16.150  56.547   1.384  1.00  0.00    -0.318 N 
ATOM     17  H6  UNL     1      17.139  56.653   1.159  1.00  0.00     0.182 HD
ATOM     18  H5  UNL     1      14.315  55.929   0.774  1.00  0.00     0.208 HD
BRANCH  16  19
HETATM   19  C12 UNL     1      15.554  56.956   2.665  1.00  0.00     0.179 C 
BRANCH  19  20
HETATM   20  C13 UNL     1      15.394  55.784   3.601  1.00  0.00    -0.039 A 
HETATM   21  C14 UNL     1      14.118  55.395   4.034  1.00  0.00     0.009 A 
HETATM   22  C15 UNL     1      13.964  54.302   4.890  1.00  0.00     0.001 A 
HETATM   23  C16 UNL     1      15.081  53.584   5.313  1.00  0.00     0.000 A 
HETATM   24  C17 UNL     1      16.353  53.954   4.879  1.00  0.00     0.001 A 
HETATM   25  C18 UNL     1      16.510  55.046   4.023  1.00  0.00     0.009 A 
ENDBRANCH  19  20
ENDBRANCH  16  19
ENDBRANCH  13  15
ENDBRANCH  10  13
BRANCH   1  26
HETATM   26  N1  UNL     1      11.211  55.444  -2.462  1.00  0.00    -0.342 N 
HETATM   27  H4  UNL     1      11.567  55.636  -1.531  1.00  0.00     0.167 HD
BRANCH  26  28
HETATM   28  C5  UNL     1      10.758  56.626  -3.093  1.00  0.00     0.034 A 
HETATM   29  C4  UNL     1       9.523  56.606  -3.763  1.00  0.00     0.029 A 
HETATM   30  C3  UNL     1       9.056  57.726  -4.456  1.00  0.00     0.004 A 
HETATM   31  C2  UNL     1       9.831  58.881  -4.511  1.00  0.00     0.019 A 
HETATM   32  C1  UNL     1      11.074  58.901  -3.884  1.00  0.00     0.013 A 
HETATM   33 BR1  UNL     1      12.147  60.458  -3.981  1.00  0.00    -0.051 Br
HETATM   34  C21 UNL     1      11.543  57.781  -3.193  1.00  0.00     0.048 A 
ENDBRANCH  26  28
ENDBRANCH   1  26
TORSDOF 6
ENDMDL
MODEL 8
REMARK minimizedAffinity -6.82553434
REMARK CNNscore 0.230563849
REMARK CNNaffinity 4.71520281
REMARK  6 active torsions:
REMARK  status: ('A' for Active; 'I' for Inactive)
REMARK    1  A    between atoms: C5_6  and  N1_7 
REMARK    2  A    between atoms: N1_7  and  C6_8 
REMARK    3  A    between atoms: C11_17  and  N4_18 
REMARK    4  A    between atoms: N4_18  and  N5_19 
REMARK    5  A    between atoms: N6_21  and  C12_23 
REMARK    6  A    between atoms: C12_23  and  C13_24 
ROOT
HETATM    1  C6  UNL     1       1.914  64.379  -2.743  1.00  0.00     0.119 A 
HETATM    2  N2  UNL     1       1.453  63.231  -3.272  1.00  0.00    -0.338 N 
ATOM      3  H2  UNL     1       2.036  62.646  -3.870  1.00  0.00     0.168 HD
HETATM    4  C7  UNL     1       0.195  62.895  -2.978  1.00  0.00     0.182 A 
HETATM    5  N3  UNL     1      -0.649  63.589  -2.209  1.00  0.00    -0.352 N 
ATOM      6  H3  UNL     1      -1.596  63.261  -2.020  1.00  0.00     0.166 HD
HETATM    7  C8  UNL     1      -0.190  64.735  -1.701  1.00  0.00     0.047 A 
HETATM    8  C9  UNL     1      -1.039  65.499  -0.913  1.00  0.00     0.033 A 
HETATM    9  C10 UNL     1      -0.635  66.714  -0.350  1.00  0.00     0.033 A 
HETATM   10  C11 UNL     1       0.658  67.197  -0.549  1.00  0.00     0.050 A 
HETATM   11  C19 UNL     1       1.511  66.446  -1.367  1.00  0.00     0.048 A 
HETATM   12  C20 UNL     1       1.108  65.204  -1.933  1.00  0.00     0.037 A 
ENDROOT
BRANCH  10  13
HETATM   13  N4  UNL     1       1.086  68.444  -0.064  1.00  0.00    -0.287 N 
HETATM   14  H8  UNL     1       1.985  68.769  -0.406  1.00  0.00     0.188 HD
BRANCH  13  15
HETATM   15  N5  UNL     1       0.827  68.772   1.215  1.00  0.00    -0.246 N 
HETATM   16  N6  UNL     1       1.209  67.803   1.894  1.00  0.00    -0.318 N 
ATOM     17  H6  UNL     1       1.629  66.962   1.497  1.00  0.00     0.182 HD
ATOM     18  H5  UNL     1       0.404  69.635   1.555  1.00  0.00     0.208 HD
BRANCH  16  19
HETATM   19  C12 UNL     1       0.989  68.005   3.334  1.00  0.00     0.179 C 
BRANCH  19  20
HETATM   20  C13 UNL     1      -0.349  67.460   3.772  1.00  0.00    -0.039 A 
HETATM   21  C14 UNL     1      -1.454  68.313   3.890  1.00  0.00     0.009 A 
HETATM   22  C15 UNL     1      -2.697  67.811   4.282  1.00  0.00     0.001 A 
HETATM   23  C16 UNL     1      -2.847  66.452   4.549  1.00  0.00     0.000 A 
HETATM   24  C17 UNL     1      -1.758  65.592   4.423  1.00  0.00     0.001 A 
HETATM   25  C18 UNL     1      -0.514  66.092   4.032  1.00  0.00     0.009 A 
ENDBRANCH  19  20
ENDBRANCH  16  19
ENDBRANCH  13  15
ENDBRANCH  10  13
BRANCH   1  26
HETATM   26  N1  UNL     1       3.263  64.764  -2.984  1.00  0.00    -0.342 N 
HETATM   27  H4  UNL     1       3.876  64.092  -2.532  1.00  0.00     0.167 HD
BRANCH  26  28
HETATM   28  C5  UNL     1       3.835  65.256  -4.181  1.00  0.00     0.034 A 
HETATM   29  C4  UNL     1       3.099  66.162  -4.962  1.00  0.00     0.029 A 
HETATM   30  C3  UNL     1       3.589  66.632  -6.184  1.00  0.00     0.004 A 
HETATM   31  C2  UNL     1       4.818  66.180  -6.658  1.00  0.00     0.019 A 
HETATM   32  C1  UNL     1       5.540  65.252  -5.912  1.00  0.00     0.013 A 
HETATM   33 BR1  UNL     1       7.196  64.612  -6.566  1.00  0.00    -0.051 Br
HETATM   34  C21 UNL     1       5.049  64.781  -4.692  1.00  0.00     0.048 A 
ENDBRANCH  26  28
ENDBRANCH   1  26
TORSDOF 6
ENDMDL
MODEL 9
REMARK minimizedAffinity -6.69182682
REMARK CNNscore 0.221491531
REMARK CNNaffinity 4.51158476
REMARK  6 active torsions:
REMARK  status: ('A' for Active; 'I' for Inactive)
REMARK    1  A    between atoms: C5_6  and  N1_7 
REMARK    2  A    between atoms: N1_7  and  C6_8 
REMARK    3  A    between atoms: C11_17  and  N4_18 
REMARK    4  A    between atoms: N4_18  and  N5_19 
REMARK    5  A    between atoms: N6_21  and  C12_23 
REMARK    6  A    between atoms: C12_23  and  C13_24 
ROOT
HETATM    1  C6  UNL     1      18.137  55.770  12.483  1.00  0.00     0.119 A 
HETATM    2  N2  UNL     1      18.081  55.637  13.821  1.00  0.00    -0.338 N 
ATOM      3  H2  UNL     1      17.634  56.340  14.409  1.00  0.00     0.168 HD
HETATM    4  C7  UNL     1      18.637  54.541  14.342  1.00  0.00     0.182 A 
HETATM    5  N3  UNL     1      19.245  53.564  13.661  1.00  0.00    -0.352 N 
ATOM      6  H3  UNL     1      19.638  52.748  14.131  1.00  0.00     0.166 HD
HETATM    7  C8  UNL     1      19.312  53.711  12.337  1.00  0.00     0.047 A 
HETATM    8  C9  UNL     1      19.952  52.731  11.592  1.00  0.00     0.033 A 
HETATM    9  C10 UNL     1      20.069  52.815  10.200  1.00  0.00     0.033 A 
HETATM   10  C11 UNL     1      19.524  53.892   9.503  1.00  0.00     0.050 A 
HETATM   11  C19 UNL     1      18.903  54.900  10.250  1.00  0.00     0.048 A 
HETATM   12  C20 UNL     1      18.771  54.813  11.665  1.00  0.00     0.037 A 
ENDROOT
BRANCH  10  13
HETATM   13  N4  UNL     1      19.678  54.056   8.116  1.00  0.00    -0.287 N 
HETATM   14  H8  UNL     1      19.747  55.013   7.786  1.00  0.00     0.188 HD
BRANCH  13  15
HETATM   15  N5  UNL     1      19.023  53.227   7.283  1.00  0.00    -0.246 N 
HETATM   16  N6  UNL     1      18.268  53.954   6.612  1.00  0.00    -0.318 N 
ATOM     17  H6  UNL     1      18.211  54.966   6.721  1.00  0.00     0.182 HD
ATOM     18  H5  UNL     1      19.124  52.214   7.216  1.00  0.00     0.208 HD
BRANCH  16  19
HETATM   19  C12 UNL     1      17.468  53.188   5.643  1.00  0.00     0.179 C 
BRANCH  19  20
HETATM   20  C13 UNL     1      16.402  54.045   5.006  1.00  0.00    -0.039 A 
HETATM   21  C14 UNL     1      15.047  53.790   5.260  1.00  0.00     0.009 A 
HETATM   22  C15 UNL     1      14.057  54.588   4.683  1.00  0.00     0.001 A 
HETATM   23  C16 UNL     1      14.412  55.652   3.856  1.00  0.00     0.000 A 
HETATM   24  C17 UNL     1      15.756  55.922   3.606  1.00  0.00     0.001 A 
HETATM   25  C18 UNL     1      16.748  55.125   4.182  1.00  0.00     0.009 A 
ENDBRANCH  19  20
ENDBRANCH  16  19
ENDBRANCH  13  15
ENDBRANCH  10  13
BRANCH   1  26
HETATM   26  N1  UNL     1      17.519  56.895  11.869  1.00  0.00    -0.342 N 
HETATM   27  H4  UNL     1      18.144  57.255  11.154  1.00  0.00     0.167 HD
BRANCH  26  28
HETATM   28  C5  UNL     1      16.164  57.058  11.496  1.00  0.00     0.034 A 
HETATM   29  C4  UNL     1      15.177  56.353  12.205  1.00  0.00     0.029 A 
HETATM   30  C3  UNL     1      13.829  56.428  11.840  1.00  0.00     0.004 A 
HETATM   31  C2  UNL     1      13.450  57.192  10.740  1.00  0.00     0.019 A 
HETATM   32  C1  UNL     1      14.423  57.864  10.005  1.00  0.00     0.013 A 
HETATM   33 BR1  UNL     1      13.918  58.880   8.490  1.00  0.00    -0.051 Br
HETATM   34  C21 UNL     1      15.770  57.788  10.368  1.00  0.00     0.048 A 
ENDBRANCH  26  28
ENDBRANCH   1  26
TORSDOF 6
ENDMDL
