MODEL 1
REMARK minimizedAffinity -6.88570499
REMARK  3 active torsions:
REMARK  status: ('A' for Active; 'I' for Inactive)
REMARK    1  A    between atoms: O1_1  and  C1_2 
REMARK    2  A    between atoms: C5_6  and  N1_7 
REMARK    3  A    between atoms: N1_7  and  C6_8 
ROOT
HETATM    1  C1  UNL     1      10.284  34.059  21.847  1.00  0.00     0.067 A 
HETATM    2  C2  UNL     1      11.444  33.587  21.257  1.00  0.00     0.037 A 
HETATM    3  C3  UNL     1      11.708  33.910  19.928  1.00  0.00     0.020 A 
HETATM    4  C4  UNL     1      10.806  34.714  19.183  1.00  0.00     0.035 A 
HETATM    5  C5  UNL     1      10.981  35.102  17.839  1.00  0.00     0.119 A 
HETATM    6  N2  UNL     1      10.065  35.839  17.187  1.00  0.00    -0.338 N 
ATOM      7  H2  UNL     1      10.191  36.105  16.211  1.00  0.00     0.168 HD
HETATM    8  C12 UNL     1       8.983  36.209  17.878  1.00  0.00     0.182 A 
HETATM    9  N3  UNL     1       8.723  35.916  19.156  1.00  0.00    -0.351 N 
ATOM     10  H3  UNL     1       7.875  36.244  19.619  1.00  0.00     0.166 HD
HETATM   11  C13 UNL     1       9.629  35.171  19.797  1.00  0.00     0.049 A 
HETATM   12  C14 UNL     1       9.386  34.839  21.124  1.00  0.00     0.067 A 
ENDROOT
BRANCH   5  13
HETATM   13  N1  UNL     1      12.171  34.713  17.164  1.00  0.00    -0.342 N 
HETATM   14  H4  UNL     1      12.271  33.706  17.239  1.00  0.00     0.167 HD
BRANCH  13  15
HETATM   15  C6  UNL     1      13.429  35.359  17.159  1.00  0.00     0.034 A 
HETATM   16  C7  UNL     1      14.547  34.676  17.665  1.00  0.00     0.029 A 
HETATM   17  C8  UNL     1      15.823  35.244  17.626  1.00  0.00     0.004 A 
HETATM   18  C9  UNL     1      16.007  36.500  17.056  1.00  0.00     0.019 A 
HETATM   19  C10 UNL     1      14.913  37.173  16.517  1.00  0.00     0.013 A 
HETATM   20 BR1  UNL     1      15.162  38.866  15.713  1.00  0.00    -0.051 Br
HETATM   21  C11 UNL     1      13.638  36.604  16.555  1.00  0.00     0.048 A 
ENDBRANCH  13  15
ENDBRANCH   5  13
BRANCH   1  22
HETATM   22  O1  UNL     1      10.054  33.728  23.148  1.00  0.00    -0.361 OA
HETATM   23  H1  UNL     1       9.203  34.109  23.426  1.00  0.00     0.217 HD
ENDBRANCH   1  22
TORSDOF 3
ENDMDL
MODEL 2
REMARK minimizedAffinity -6.78556728
REMARK  3 active torsions:
REMARK  status: ('A' for Active; 'I' for Inactive)
REMARK    1  A    between atoms: O1_1  and  C1_2 
REMARK    2  A    between atoms: C5_6  and  N1_7 
REMARK    3  A    between atoms: N1_7  and  C6_8 
ROOT
HETATM    1  C1  UNL     1       8.030  36.087  18.992  1.00  0.00     0.067 A 
HETATM    2  C2  UNL     1       8.718  36.390  17.829  1.00  0.00     0.037 A 
HETATM    3  C3  UNL     1      10.001  35.879  17.649  1.00  0.00     0.020 A 
HETATM    4  C4  UNL     1      10.600  35.056  18.637  1.00  0.00     0.035 A 
HETATM    5  C5  UNL     1      11.887  34.485  18.551  1.00  0.00     0.119 A 
HETATM    6  N2  UNL     1      12.402  33.741  19.544  1.00  0.00    -0.338 N 
ATOM      7  H2  UNL     1      13.339  33.343  19.482  1.00  0.00     0.168 HD
HETATM    8  C12 UNL     1      11.631  33.547  20.618  1.00  0.00     0.182 A 
HETATM    9  N3  UNL     1      10.394  34.021  20.798  1.00  0.00    -0.351 N 
ATOM     10  H3  UNL     1       9.862  33.820  21.645  1.00  0.00     0.166 HD
HETATM   11  C13 UNL     1       9.890  34.772  19.815  1.00  0.00     0.049 A 
HETATM   12  C14 UNL     1       8.611  35.290  19.974  1.00  0.00     0.067 A 
ENDROOT
BRANCH   5  13
HETATM   13  N1  UNL     1      12.649  34.693  17.368  1.00  0.00    -0.342 N 
HETATM   14  H4  UNL     1      12.280  34.094  16.636  1.00  0.00     0.167 HD
BRANCH  13  15
HETATM   15  C6  UNL     1      14.047  34.863  17.242  1.00  0.00     0.034 A 
HETATM   16  C7  UNL     1      14.896  34.207  18.149  1.00  0.00     0.029 A 
HETATM   17  C8  UNL     1      16.286  34.291  18.031  1.00  0.00     0.004 A 
HETATM   18  C9  UNL     1      16.852  35.015  16.986  1.00  0.00     0.019 A 
HETATM   19  C10 UNL     1      16.021  35.639  16.058  1.00  0.00     0.013 A 
HETATM   20 BR1  UNL     1      16.785  36.599  14.618  1.00  0.00    -0.051 Br
HETATM   21  C11 UNL     1      14.633  35.554  16.175  1.00  0.00     0.048 A 
ENDBRANCH  13  15
ENDBRANCH   5  13
BRANCH   1  22
HETATM   22  O1  UNL     1       6.776  36.600  19.139  1.00  0.00    -0.361 OA
HETATM   23  H1  UNL     1       6.421  36.323  20.001  1.00  0.00     0.217 HD
ENDBRANCH   1  22
TORSDOF 3
ENDMDL
MODEL 3
REMARK minimizedAffinity -6.54120731
REMARK  3 active torsions:
REMARK  status: ('A' for Active; 'I' for Inactive)
REMARK    1  A    between atoms: O1_1  and  C1_2 
REMARK    2  A    between atoms: C5_6  and  N1_7 
REMARK    3  A    between atoms: N1_7  and  C6_8 
ROOT
HETATM    1  C1  UNL     1       8.043  36.104  18.951  1.00  0.00     0.067 A 
HETATM    2  C2  UNL     1       8.718  36.331  17.764  1.00  0.00     0.037 A 
HETATM    3  C3  UNL     1       9.992  35.794  17.596  1.00  0.00     0.020 A 
HETATM    4  C4  UNL     1      10.594  35.019  18.621  1.00  0.00     0.035 A 
HETATM    5  C5  UNL     1      11.872  34.426  18.549  1.00  0.00     0.119 A 
HETATM    6  N2  UNL     1      12.391  33.731  19.576  1.00  0.00    -0.338 N 
ATOM      7  H2  UNL     1      13.322  33.317  19.524  1.00  0.00     0.168 HD
HETATM    8  C12 UNL     1      11.632  33.608  20.669  1.00  0.00     0.182 A 
HETATM    9  N3  UNL     1      10.404  34.108  20.839  1.00  0.00    -0.351 N 
ATOM     10  H3  UNL     1       9.881  33.962  21.703  1.00  0.00     0.166 HD
HETATM   11  C13 UNL     1       9.897  34.810  19.822  1.00  0.00     0.049 A 
HETATM   12  C14 UNL     1       8.627  35.354  19.968  1.00  0.00     0.067 A 
ENDROOT
BRANCH   5  13
HETATM   13  N1  UNL     1      12.620  34.557  17.347  1.00  0.00    -0.342 N 
HETATM   14  H4  UNL     1      12.709  33.640  16.920  1.00  0.00     0.167 HD
BRANCH  13  15
HETATM   15  C6  UNL     1      13.763  35.354  17.106  1.00  0.00     0.034 A 
HETATM   16  C7  UNL     1      13.590  36.676  16.664  1.00  0.00     0.029 A 
HETATM   17  C8  UNL     1      14.683  37.525  16.471  1.00  0.00     0.004 A 
HETATM   18  C9  UNL     1      15.970  37.072  16.742  1.00  0.00     0.019 A 
HETATM   19  C10 UNL     1      16.153  35.775  17.216  1.00  0.00     0.013 A 
HETATM   20 BR1  UNL     1      17.898  35.164  17.614  1.00  0.00    -0.051 Br
HETATM   21  C11 UNL     1      15.061  34.927  17.410  1.00  0.00     0.048 A 
ENDBRANCH  13  15
ENDBRANCH   5  13
BRANCH   1  22
HETATM   22  O1  UNL     1       6.798  36.641  19.086  1.00  0.00    -0.361 OA
HETATM   23  H1  UNL     1       6.451  36.418  19.966  1.00  0.00     0.217 HD
ENDBRANCH   1  22
TORSDOF 3
ENDMDL
MODEL 4
REMARK minimizedAffinity -6.46274757
REMARK  3 active torsions:
REMARK  status: ('A' for Active; 'I' for Inactive)
REMARK    1  A    between atoms: O1_1  and  C1_2 
REMARK    2  A    between atoms: C5_6  and  N1_7 
REMARK    3  A    between atoms: N1_7  and  C6_8 
ROOT
HETATM    1  C1  UNL     1      11.040  27.481  -0.988  1.00  0.00     0.067 A 
HETATM    2  C2  UNL     1      10.118  28.501  -0.835  1.00  0.00     0.037 A 
HETATM    3  C3  UNL     1       9.325  28.866  -1.920  1.00  0.00     0.020 A 
HETATM    4  C4  UNL     1       9.453  28.202  -3.169  1.00  0.00     0.035 A 
HETATM    5  C5  UNL     1       8.697  28.489  -4.324  1.00  0.00     0.119 A 
HETATM    6  N2  UNL     1       8.898  27.839  -5.484  1.00  0.00    -0.338 N 
ATOM      7  H2  UNL     1       8.359  28.061  -6.320  1.00  0.00     0.168 HD
HETATM    8  C12 UNL     1       9.837  26.888  -5.490  1.00  0.00     0.182 A 
HETATM    9  N3  UNL     1      10.597  26.521  -4.453  1.00  0.00    -0.351 N 
ATOM     10  H3  UNL     1      11.289  25.775  -4.533  1.00  0.00     0.166 HD
HETATM   11  C13 UNL     1      10.404  27.178  -3.306  1.00  0.00     0.049 A 
HETATM   12  C14 UNL     1      11.183  26.829  -2.210  1.00  0.00     0.067 A 
ENDROOT
BRANCH   5  13
HETATM   13  N1  UNL     1       7.685  29.484  -4.250  1.00  0.00    -0.342 N 
HETATM   14  H4  UNL     1       6.801  29.032  -4.036  1.00  0.00     0.167 HD
BRANCH  13  15
HETATM   15  C6  UNL     1       7.500  30.614  -5.080  1.00  0.00     0.034 A 
HETATM   16  C7  UNL     1       6.315  30.726  -5.824  1.00  0.00     0.029 A 
HETATM   17  C8  UNL     1       6.055  31.851  -6.611  1.00  0.00     0.004 A 
HETATM   18  C9  UNL     1       6.971  32.899  -6.647  1.00  0.00     0.019 A 
HETATM   19  C10 UNL     1       8.133  32.818  -5.884  1.00  0.00     0.013 A 
HETATM   20 BR1  UNL     1       9.366  34.252  -5.905  1.00  0.00    -0.051 Br
HETATM   21  C11 UNL     1       8.392  31.694  -5.097  1.00  0.00     0.048 A 
ENDBRANCH  13  15
ENDBRANCH   5  13
BRANCH   1  22
HETATM   22  O1  UNL     1      11.800  27.145   0.092  1.00  0.00    -0.361 OA
HETATM   23  H1  UNL     1      12.411  26.431  -0.160  1.00  0.00     0.217 HD
ENDBRANCH   1  22
TORSDOF 3
ENDMDL
MODEL 5
REMARK minimizedAffinity -6.39444923
REMARK  3 active torsions:
REMARK  status: ('A' for Active; 'I' for Inactive)
REMARK    1  A    between atoms: O1_1  and  C1_2 
REMARK    2  A    between atoms: C5_6  and  N1_7 
REMARK    3  A    between atoms: N1_7  and  C6_8 
ROOT
HETATM    1  C1  UNL     1      18.932  44.426   7.141  1.00  0.00     0.067 A 
HETATM    2  C2  UNL     1      19.585  45.442   6.466  1.00  0.00     0.037 A 
HETATM    3  C3  UNL     1      18.853  46.540   6.021  1.00  0.00     0.020 A 
HETATM    4  C4  UNL     1      17.455  46.623   6.255  1.00  0.00     0.035 A 
HETATM    5  C5  UNL     1      16.625  47.690   5.853  1.00  0.00     0.119 A 
HETATM    6  N2  UNL     1      15.300  47.684   6.083  1.00  0.00    -0.338 N 
ATOM      7  H2  UNL     1      14.703  48.452   5.777  1.00  0.00     0.168 HD
HETATM    8  C12 UNL     1      14.803  46.627   6.730  1.00  0.00     0.182 A 
HETATM    9  N3  UNL     1      15.496  45.573   7.173  1.00  0.00    -0.351 N 
ATOM     10  H3  UNL     1      15.044  44.805   7.671  1.00  0.00     0.166 HD
HETATM   11  C13 UNL     1      16.810  45.576   6.931  1.00  0.00     0.049 A 
HETATM   12  C14 UNL     1      17.560  44.491   7.369  1.00  0.00     0.067 A 
ENDROOT
BRANCH   5  13
HETATM   13  N1  UNL     1      17.215  48.808   5.202  1.00  0.00    -0.342 N 
HETATM   14  H4  UNL     1      17.930  48.471   4.565  1.00  0.00     0.167 HD
BRANCH  13  15
HETATM   15  C6  UNL     1      17.562  50.063   5.753  1.00  0.00     0.034 A 
HETATM   16  C7  UNL     1      18.423  50.105   6.862  1.00  0.00     0.029 A 
HETATM   17  C8  UNL     1      18.847  51.321   7.405  1.00  0.00     0.004 A 
HETATM   18  C9  UNL     1      18.433  52.520   6.832  1.00  0.00     0.019 A 
HETATM   19  C10 UNL     1      17.609  52.492   5.709  1.00  0.00     0.013 A 
HETATM   20 BR1  UNL     1      17.070  54.118   4.907  1.00  0.00    -0.051 Br
HETATM   21  C11 UNL     1      17.187  51.277   5.165  1.00  0.00     0.048 A 
ENDBRANCH  13  15
ENDBRANCH   5  13
BRANCH   1  22
HETATM   22  O1  UNL     1      19.675  43.366   7.566  1.00  0.00    -0.361 OA
HETATM   23  H1  UNL     1      19.091  42.726   8.006  1.00  0.00     0.217 HD
ENDBRANCH   1  22
TORSDOF 3
ENDMDL
MODEL 6
REMARK minimizedAffinity -6.35902166
REMARK  3 active torsions:
REMARK  status: ('A' for Active; 'I' for Inactive)
REMARK    1  A    between atoms: O1_1  and  C1_2 
REMARK    2  A    between atoms: C5_6  and  N1_7 
REMARK    3  A    between atoms: N1_7  and  C6_8 
ROOT
HETATM    1  C1  UNL     1      14.529  55.645   4.551  1.00  0.00     0.067 A 
HETATM    2  C2  UNL     1      14.017  54.497   5.131  1.00  0.00     0.037 A 
HETATM    3  C3  UNL     1      14.863  53.414   5.352  1.00  0.00     0.020 A 
HETATM    4  C4  UNL     1      16.235  53.480   4.993  1.00  0.00     0.035 A 
HETATM    5  C5  UNL     1      17.176  52.446   5.179  1.00  0.00     0.119 A 
HETATM    6  N2  UNL     1      18.455  52.569   4.783  1.00  0.00    -0.338 N 
ATOM      7  H2  UNL     1      19.127  51.812   4.907  1.00  0.00     0.168 HD
HETATM    8  C12 UNL     1      18.805  53.729   4.220  1.00  0.00     0.182 A 
HETATM    9  N3  UNL     1      18.005  54.780   4.013  1.00  0.00    -0.351 N 
ATOM     10  H3  UNL     1      18.350  55.639   3.584  1.00  0.00     0.166 HD
HETATM   11  C13 UNL     1      16.731  54.649   4.395  1.00  0.00     0.049 A 
HETATM   12  C14 UNL     1      15.870  55.719   4.185  1.00  0.00     0.067 A 
ENDROOT
BRANCH   5  13
HETATM   13  N1  UNL     1      16.757  51.247   5.820  1.00  0.00    -0.342 N 
HETATM   14  H4  UNL     1      16.034  51.477   6.495  1.00  0.00     0.167 HD
BRANCH  13  15
HETATM   15  C6  UNL     1      17.551  50.162   6.259  1.00  0.00     0.034 A 
HETATM   16  C7  UNL     1      18.624  50.413   7.129  1.00  0.00     0.029 A 
HETATM   17  C8  UNL     1      19.401  49.370   7.641  1.00  0.00     0.004 A 
HETATM   18  C9  UNL     1      19.099  48.052   7.311  1.00  0.00     0.019 A 
HETATM   19  C10 UNL     1      18.014  47.787   6.479  1.00  0.00     0.013 A 
HETATM   20 BR1  UNL     1      17.581  45.997   6.051  1.00  0.00    -0.051 Br
HETATM   21  C11 UNL     1      17.238  48.829   5.968  1.00  0.00     0.048 A 
ENDBRANCH  13  15
ENDBRANCH   5  13
BRANCH   1  22
HETATM   22  O1  UNL     1      13.676  56.689   4.349  1.00  0.00    -0.361 OA
HETATM   23  H1  UNL     1      14.162  57.415   3.923  1.00  0.00     0.217 HD
ENDBRANCH   1  22
TORSDOF 3
ENDMDL
MODEL 7
REMARK minimizedAffinity -6.33565283
REMARK  3 active torsions:
REMARK  status: ('A' for Active; 'I' for Inactive)
REMARK    1  A    between atoms: O1_1  and  C1_2 
REMARK    2  A    between atoms: C5_6  and  N1_7 
REMARK    3  A    between atoms: N1_7  and  C6_8 
ROOT
HETATM    1  C1  UNL     1      16.834  35.416  15.704  1.00  0.00     0.067 A 
HETATM    2  C2  UNL     1      15.655  35.800  15.089  1.00  0.00     0.037 A 
HETATM    3  C3  UNL     1      14.448  35.606  15.755  1.00  0.00     0.020 A 
HETATM    4  C4  UNL     1      14.419  35.027  17.051  1.00  0.00     0.035 A 
HETATM    5  C5  UNL     1      13.255  34.795  17.813  1.00  0.00     0.119 A 
HETATM    6  N2  UNL     1      13.303  34.211  19.023  1.00  0.00    -0.338 N 
ATOM      7  H2  UNL     1      12.457  34.032  19.563  1.00  0.00     0.168 HD
HETATM    8  C12 UNL     1      14.511  33.875  19.486  1.00  0.00     0.182 A 
HETATM    9  N3  UNL     1      15.678  34.066  18.861  1.00  0.00    -0.351 N 
ATOM     10  H3  UNL     1      16.564  33.791  19.286  1.00  0.00     0.166 HD
HETATM   11  C13 UNL     1      15.625  34.634  17.653  1.00  0.00     0.049 A 
HETATM   12  C14 UNL     1      16.818  34.838  16.971  1.00  0.00     0.067 A 
ENDROOT
BRANCH   5  13
HETATM   13  N1  UNL     1      12.000  35.207  17.288  1.00  0.00    -0.342 N 
HETATM   14  H4  UNL     1      12.163  35.914  16.578  1.00  0.00     0.167 HD
BRANCH  13  15
HETATM   15  C6  UNL     1      10.791  35.440  17.982  1.00  0.00     0.034 A 
HETATM   16  C7  UNL     1       9.709  36.011  17.293  1.00  0.00     0.029 A 
HETATM   17  C8  UNL     1       8.472  36.205  17.915  1.00  0.00     0.004 A 
HETATM   18  C9  UNL     1       8.290  35.805  19.236  1.00  0.00     0.019 A 
HETATM   19  C10 UNL     1       9.343  35.203  19.920  1.00  0.00     0.013 A 
HETATM   20 BR1  UNL     1       9.091  34.631  21.705  1.00  0.00    -0.051 Br
HETATM   21  C11 UNL     1      10.578  35.009  19.297  1.00  0.00     0.048 A 
ENDBRANCH  13  15
ENDBRANCH   5  13
BRANCH   1  22
HETATM   22  O1  UNL     1      17.999  35.619  15.028  1.00  0.00    -0.361 OA
HETATM   23  H1  UNL     1      18.739  35.291  15.567  1.00  0.00     0.217 HD
ENDBRANCH   1  22
TORSDOF 3
ENDMDL
MODEL 8
REMARK minimizedAffinity -6.32911444
REMARK  3 active torsions:
REMARK  status: ('A' for Active; 'I' for Inactive)
REMARK    1  A    between atoms: O1_1  and  C1_2 
REMARK    2  A    between atoms: C5_6  and  N1_7 
REMARK    3  A    between atoms: N1_7  and  C6_8 
ROOT
HETATM    1  C1  UNL     1      10.776  27.865  -0.822  1.00  0.00     0.067 A 
HETATM    2  C2  UNL     1       9.680  28.709  -0.845  1.00  0.00     0.037 A 
HETATM    3  C3  UNL     1       8.976  28.874  -2.036  1.00  0.00     0.020 A 
HETATM    4  C4  UNL     1       9.370  28.185  -3.213  1.00  0.00     0.035 A 
HETATM    5  C5  UNL     1       8.724  28.276  -4.463  1.00  0.00     0.119 A 
HETATM    6  N2  UNL     1       9.175  27.616  -5.545  1.00  0.00    -0.338 N 
ATOM      7  H2  UNL     1       8.713  27.698  -6.450  1.00  0.00     0.168 HD
HETATM    8  C12 UNL     1      10.257  26.850  -5.379  1.00  0.00     0.182 A 
HETATM    9  N3  UNL     1      10.934  26.674  -4.240  1.00  0.00    -0.351 N 
ATOM     10  H3  UNL     1      11.749  26.062  -4.190  1.00  0.00     0.166 HD
HETATM   11  C13 UNL     1      10.492  27.342  -3.170  1.00  0.00     0.049 A 
HETATM   12  C14 UNL     1      11.178  27.191  -1.972  1.00  0.00     0.067 A 
ENDROOT
BRANCH   5  13
HETATM   13  N1  UNL     1       7.554  29.076  -4.572  1.00  0.00    -0.342 N 
HETATM   14  H4  UNL     1       6.821  28.656  -4.010  1.00  0.00     0.167 HD
BRANCH  13  15
HETATM   15  C6  UNL     1       7.026  29.708  -5.722  1.00  0.00     0.034 A 
HETATM   16  C7  UNL     1       7.308  31.067  -5.941  1.00  0.00     0.029 A 
HETATM   17  C8  UNL     1       6.863  31.723  -7.092  1.00  0.00     0.004 A 
HETATM   18  C9  UNL     1       6.148  31.022  -8.058  1.00  0.00     0.019 A 
HETATM   19  C10 UNL     1       5.895  29.666  -7.872  1.00  0.00     0.013 A 
HETATM   20 BR1  UNL     1       4.950  28.701  -9.196  1.00  0.00    -0.051 Br
HETATM   21  C11 UNL     1       6.340  29.010  -6.722  1.00  0.00     0.048 A 
ENDBRANCH  13  15
ENDBRANCH   5  13
BRANCH   1  22
HETATM   22  O1  UNL     1      11.443  27.723   0.358  1.00  0.00    -0.361 OA
HETATM   23  H1  UNL     1      12.193  27.118   0.225  1.00  0.00     0.217 HD
ENDBRANCH   1  22
TORSDOF 3
ENDMDL
MODEL 9
REMARK minimizedAffinity -6.31480169
REMARK  3 active torsions:
REMARK  status: ('A' for Active; 'I' for Inactive)
REMARK    1  A    between atoms: O1_1  and  C1_2 
REMARK    2  A    between atoms: C5_6  and  N1_7 
REMARK    3  A    between atoms: N1_7  and  C6_8 
ROOT
HETATM    1  C1  UNL     1       7.301  64.681  -6.413  1.00  0.00     0.067 A 
HETATM    2  C2  UNL     1       7.050  64.060  -5.203  1.00  0.00     0.037 A 
HETATM    3  C3  UNL     1       5.829  64.279  -4.569  1.00  0.00     0.020 A 
HETATM    4  C4  UNL     1       4.849  65.124  -5.153  1.00  0.00     0.035 A 
HETATM    5  C5  UNL     1       3.583  65.407  -4.599  1.00  0.00     0.119 A 
HETATM    6  N2  UNL     1       2.719  66.245  -5.196  1.00  0.00    -0.338 N 
ATOM      7  H2  UNL     1       1.810  66.457  -4.783  1.00  0.00     0.168 HD
HETATM    8  C12 UNL     1       3.103  66.789  -6.354  1.00  0.00     0.182 A 
HETATM    9  N3  UNL     1       4.267  66.577  -6.979  1.00  0.00    -0.351 N 
ATOM     10  H3  UNL     1       4.485  67.023  -7.870  1.00  0.00     0.166 HD
HETATM   11  C13 UNL     1       5.129  65.754  -6.376  1.00  0.00     0.049 A 
HETATM   12  C14 UNL     1       6.353  65.520  -6.992  1.00  0.00     0.067 A 
ENDROOT
BRANCH   5  13
HETATM   13  N1  UNL     1       3.211  64.770  -3.384  1.00  0.00    -0.342 N 
HETATM   14  H4  UNL     1       3.760  63.922  -3.281  1.00  0.00     0.167 HD
BRANCH  13  15
HETATM   15  C6  UNL     1       1.919  64.621  -2.830  1.00  0.00     0.034 A 
HETATM   16  C7  UNL     1       1.175  63.470  -3.138  1.00  0.00     0.029 A 
HETATM   17  C8  UNL     1      -0.081  63.244  -2.569  1.00  0.00     0.004 A 
HETATM   18  C9  UNL     1      -0.605  64.158  -1.659  1.00  0.00     0.019 A 
HETATM   19  C10 UNL     1       0.138  65.285  -1.316  1.00  0.00     0.013 A 
HETATM   20 BR1  UNL     1      -0.556  66.513  -0.057  1.00  0.00    -0.051 Br
HETATM   21  C11 UNL     1       1.393  65.510  -1.884  1.00  0.00     0.048 A 
ENDBRANCH  13  15
ENDBRANCH   5  13
BRANCH   1  22
HETATM   22  O1  UNL     1       8.504  64.446  -7.010  1.00  0.00    -0.361 OA
HETATM   23  H1  UNL     1       8.550  64.954  -7.838  1.00  0.00     0.217 HD
ENDBRANCH   1  22
TORSDOF 3
ENDMDL
