MODEL 1
REMARK minimizedAffinity -7.31972647
REMARK CNNscore 0.776909649
REMARK CNNaffinity 5.87151194
REMARK  3 active torsions:
REMARK  status: ('A' for Active; 'I' for Inactive)
REMARK    1  A    between atoms: C4_5  and  C5_6 
REMARK    2  A    between atoms: N2_9  and  C6_10 
REMARK    3  A    between atoms: C12_16  and  C13_17 
ROOT
HETATM    1  C5  UNL     1      17.138  52.099   5.148  1.00  0.00     0.038 C 
HETATM    2  N1  UNL     1      16.606  50.916   5.105  1.00  0.00    -0.301 N 
ATOM      3  H1  UNL     1      15.617  50.701   4.968  1.00  0.00     0.187 HD
HETATM    4  N2  UNL     1      17.615  50.011   5.279  1.00  0.00    -0.283 N 
HETATM    5  C12 UNL     1      18.917  50.637   5.531  1.00  0.00     0.148 C 
HETATM    6  C23 UNL     1      18.633  52.124   5.295  1.00  0.00     0.091 C 
ENDROOT
BRANCH   5   7
HETATM    7  C13 UNL     1      19.460  50.414   6.943  1.00  0.00    -0.022 A 
HETATM    8  C14 UNL     1      19.852  49.121   7.344  1.00  0.00     0.010 A 
HETATM    9  C15 UNL     1      20.338  48.879   8.623  1.00  0.00     0.002 A 
HETATM   10  C16 UNL     1      20.431  49.922   9.535  1.00  0.00     0.012 A 
HETATM   11  C17 UNL     1      20.035  51.220   9.186  1.00  0.00    -0.025 A 
HETATM   12  C18 UNL     1      20.131  52.251  10.135  1.00  0.00     0.012 A 
HETATM   13  C22 UNL     1      19.537  51.488   7.884  1.00  0.00    -0.018 A 
HETATM   14  C19 UNL     1      19.737  53.551   9.828  1.00  0.00     0.001 A 
HETATM   15  C20 UNL     1      19.241  53.835   8.564  1.00  0.00     0.001 A 
HETATM   16  C21 UNL     1      19.141  52.820   7.608  1.00  0.00     0.013 A 
ENDBRANCH   5   7
BRANCH   4  17
HETATM   17  C6  UNL     1      17.415  48.659   4.992  1.00  0.00     0.051 A 
HETATM   18  C7  UNL     1      17.874  48.103   3.784  1.00  0.00     0.031 A 
HETATM   19  C8  UNL     1      17.685  46.754   3.470  1.00  0.00     0.002 A 
HETATM   20  C9  UNL     1      17.021  45.919   4.361  1.00  0.00     0.000 A 
HETATM   21  C10 UNL     1      16.548  46.440   5.561  1.00  0.00     0.002 A 
HETATM   22  C11 UNL     1      16.743  47.792   5.869  1.00  0.00     0.031 A 
ENDBRANCH   4  17
BRANCH   1  23
HETATM   23  C4  UNL     1      16.344  53.344   5.024  1.00  0.00    -0.012 A 
HETATM   24  C3  UNL     1      16.944  54.565   4.685  1.00  0.00     0.016 A 
HETATM   25  C2  UNL     1      16.163  55.720   4.578  1.00  0.00     0.043 A 
HETATM   26  C1  UNL     1      14.794  55.651   4.807  1.00  0.00     0.116 A 
HETATM   27  F1  UNL     1      14.051  56.760   4.702  1.00  0.00    -0.206 F 
HETATM   28  C25 UNL     1      14.184  54.447   5.142  1.00  0.00     0.043 A 
HETATM   29  C24 UNL     1      14.961  53.292   5.251  1.00  0.00     0.016 A 
ENDBRANCH   1  23
TORSDOF 3
ENDMDL
MODEL 2
REMARK minimizedAffinity -7.02057362
REMARK CNNscore 0.772127569
REMARK CNNaffinity 5.85117722
REMARK  3 active torsions:
REMARK  status: ('A' for Active; 'I' for Inactive)
REMARK    1  A    between atoms: C4_5  and  C5_6 
REMARK    2  A    between atoms: N2_9  and  C6_10 
REMARK    3  A    between atoms: C12_16  and  C13_17 
ROOT
HETATM    1  C5  UNL     1      17.018  52.559   5.164  1.00  0.00     0.038 C 
HETATM    2  N1  UNL     1      16.505  51.367   5.197  1.00  0.00    -0.301 N 
ATOM      3  H1  UNL     1      15.529  51.124   5.025  1.00  0.00     0.187 HD
HETATM    4  N2  UNL     1      17.514  50.499   5.505  1.00  0.00    -0.283 N 
HETATM    5  C12 UNL     1      18.792  51.169   5.773  1.00  0.00     0.148 C 
HETATM    6  C23 UNL     1      18.502  52.623   5.392  1.00  0.00     0.091 C 
ENDROOT
BRANCH   5   7
HETATM    7  C13 UNL     1      19.257  51.080   7.227  1.00  0.00    -0.022 A 
HETATM    8  C14 UNL     1      19.002  52.148   8.109  1.00  0.00     0.010 A 
HETATM    9  C15 UNL     1      19.423  52.107   9.433  1.00  0.00     0.002 A 
HETATM   10  C16 UNL     1      20.119  51.001   9.902  1.00  0.00     0.012 A 
HETATM   11  C17 UNL     1      20.413  49.923   9.055  1.00  0.00    -0.025 A 
HETATM   12  C18 UNL     1      21.129  48.824   9.557  1.00  0.00     0.012 A 
HETATM   13  C22 UNL     1      19.991  49.946   7.699  1.00  0.00    -0.018 A 
HETATM   14  C19 UNL     1      21.447  47.740   8.743  1.00  0.00     0.001 A 
HETATM   15  C20 UNL     1      21.052  47.744   7.413  1.00  0.00     0.001 A 
HETATM   16  C21 UNL     1      20.337  48.829   6.899  1.00  0.00     0.013 A 
ENDBRANCH   5   7
BRANCH   4  17
HETATM   17  C6  UNL     1      17.349  49.124   5.328  1.00  0.00     0.051 A 
HETATM   18  C7  UNL     1      17.803  48.489   4.158  1.00  0.00     0.031 A 
HETATM   19  C8  UNL     1      17.648  47.114   3.953  1.00  0.00     0.002 A 
HETATM   20  C9  UNL     1      17.024  46.334   4.920  1.00  0.00     0.000 A 
HETATM   21  C10 UNL     1      16.558  46.933   6.085  1.00  0.00     0.002 A 
HETATM   22  C11 UNL     1      16.719  48.310   6.284  1.00  0.00     0.031 A 
ENDBRANCH   4  17
BRANCH   1  23
HETATM   23  C4  UNL     1      16.216  53.774   4.888  1.00  0.00    -0.012 A 
HETATM   24  C3  UNL     1      16.808  54.946   4.398  1.00  0.00     0.016 A 
HETATM   25  C2  UNL     1      16.020  56.074   4.148  1.00  0.00     0.043 A 
HETATM   26  C1  UNL     1      14.651  56.025   4.387  1.00  0.00     0.116 A 
HETATM   27  F1  UNL     1      13.901  57.109   4.146  1.00  0.00    -0.206 F 
HETATM   28  C25 UNL     1      14.050  54.870   4.871  1.00  0.00     0.043 A 
HETATM   29  C24 UNL     1      14.834  53.742   5.122  1.00  0.00     0.016 A 
ENDBRANCH   1  23
TORSDOF 3
ENDMDL
MODEL 3
REMARK minimizedAffinity -7.42893124
REMARK CNNscore 0.656897902
REMARK CNNaffinity 5.49350977
REMARK  3 active torsions:
REMARK  status: ('A' for Active; 'I' for Inactive)
REMARK    1  A    between atoms: C4_5  and  C5_6 
REMARK    2  A    between atoms: N2_9  and  C6_10 
REMARK    3  A    between atoms: C12_16  and  C13_17 
ROOT
HETATM    1  C5  UNL     1      12.573  60.924   5.460  1.00  0.00     0.038 C 
HETATM    2  N1  UNL     1      12.122  61.497   4.387  1.00  0.00    -0.301 N 
ATOM      3  H1  UNL     1      11.300  62.098   4.322  1.00  0.00     0.187 HD
HETATM    4  N2  UNL     1      12.951  61.144   3.360  1.00  0.00    -0.283 N 
HETATM    5  C12 UNL     1      14.000  60.201   3.761  1.00  0.00     0.148 C 
HETATM    6  C23 UNL     1      13.845  60.144   5.283  1.00  0.00     0.091 C 
ENDROOT
BRANCH   5   7
HETATM    7  C13 UNL     1      13.857  58.804   3.155  1.00  0.00    -0.022 A 
HETATM    8  C14 UNL     1      13.373  58.659   1.840  1.00  0.00     0.010 A 
HETATM    9  C15 UNL     1      13.217  57.405   1.263  1.00  0.00     0.002 A 
HETATM   10  C16 UNL     1      13.530  56.266   1.992  1.00  0.00     0.012 A 
HETATM   11  C17 UNL     1      13.996  56.361   3.310  1.00  0.00    -0.025 A 
HETATM   12  C18 UNL     1      14.293  55.189   4.026  1.00  0.00     0.012 A 
HETATM   13  C22 UNL     1      14.163  57.634   3.918  1.00  0.00    -0.018 A 
HETATM   14  C19 UNL     1      14.749  55.244   5.340  1.00  0.00     0.001 A 
HETATM   15  C20 UNL     1      14.913  56.476   5.957  1.00  0.00     0.001 A 
HETATM   16  C21 UNL     1      14.623  57.651   5.258  1.00  0.00     0.013 A 
ENDBRANCH   5   7
BRANCH   4  17
HETATM   17  C6  UNL     1      12.906  61.828   2.143  1.00  0.00     0.051 A 
HETATM   18  C7  UNL     1      12.149  61.332   1.066  1.00  0.00     0.031 A 
HETATM   19  C8  UNL     1      12.090  61.993  -0.165  1.00  0.00     0.002 A 
HETATM   20  C9  UNL     1      12.796  63.175  -0.353  1.00  0.00     0.000 A 
HETATM   21  C10 UNL     1      13.560  63.688   0.690  1.00  0.00     0.002 A 
HETATM   22  C11 UNL     1      13.613  63.021   1.919  1.00  0.00     0.031 A 
ENDBRANCH   4  17
BRANCH   1  23
HETATM   23  C4  UNL     1      11.913  61.053   6.781  1.00  0.00    -0.012 A 
HETATM   24  C3  UNL     1      12.155  62.151   7.617  1.00  0.00     0.016 A 
HETATM   25  C2  UNL     1      11.514  62.239   8.857  1.00  0.00     0.043 A 
HETATM   26  C1  UNL     1      10.637  61.235   9.253  1.00  0.00     0.116 A 
HETATM   27  F1  UNL     1      10.026  61.324  10.441  1.00  0.00    -0.206 F 
HETATM   28  C25 UNL     1      10.386  60.140   8.434  1.00  0.00     0.043 A 
HETATM   29  C24 UNL     1      11.025  60.049   7.195  1.00  0.00     0.016 A 
ENDBRANCH   1  23
TORSDOF 3
ENDMDL
MODEL 4
REMARK minimizedAffinity -7.12970018
REMARK CNNscore 0.583295882
REMARK CNNaffinity 5.07882166
REMARK  3 active torsions:
REMARK  status: ('A' for Active; 'I' for Inactive)
REMARK    1  A    between atoms: C4_5  and  C5_6 
REMARK    2  A    between atoms: N2_9  and  C6_10 
REMARK    3  A    between atoms: C12_16  and  C13_17 
ROOT
HETATM    1  C5  UNL     1      11.571  49.984  -2.303  1.00  0.00     0.038 C 
HETATM    2  N1  UNL     1      11.819  51.098  -1.685  1.00  0.00    -0.301 N 
ATOM      3  H1  UNL     1      11.711  51.272  -0.685  1.00  0.00     0.187 HD
HETATM    4  N2  UNL     1      12.253  51.993  -2.621  1.00  0.00    -0.283 N 
HETATM    5  C12 UNL     1      12.223  51.462  -3.988  1.00  0.00     0.148 C 
HETATM    6  C23 UNL     1      11.883  49.984  -3.773  1.00  0.00     0.091 C 
ENDROOT
BRANCH   5   7
HETATM    7  C13 UNL     1      11.187  52.122  -4.899  1.00  0.00    -0.022 A 
HETATM    8  C14 UNL     1      11.466  53.375  -5.480  1.00  0.00     0.010 A 
HETATM    9  C15 UNL     1      10.543  54.011  -6.302  1.00  0.00     0.002 A 
HETATM   10  C16 UNL     1       9.314  53.414  -6.551  1.00  0.00     0.012 A 
HETATM   11  C17 UNL     1       8.986  52.177  -5.979  1.00  0.00    -0.025 A 
HETATM   12  C18 UNL     1       7.730  51.605  -6.240  1.00  0.00     0.012 A 
HETATM   13  C22 UNL     1       9.916  51.511  -5.137  1.00  0.00    -0.018 A 
HETATM   14  C19 UNL     1       7.366  50.383  -5.682  1.00  0.00     0.001 A 
HETATM   15  C20 UNL     1       8.255  49.717  -4.850  1.00  0.00     0.001 A 
HETATM   16  C21 UNL     1       9.509  50.273  -4.581  1.00  0.00     0.013 A 
ENDBRANCH   5   7
BRANCH   4  17
HETATM   17  C6  UNL     1      12.875  53.182  -2.234  1.00  0.00     0.051 A 
HETATM   18  C7  UNL     1      14.277  53.275  -2.175  1.00  0.00     0.031 A 
HETATM   19  C8  UNL     1      14.926  54.452  -1.788  1.00  0.00     0.002 A 
HETATM   20  C9  UNL     1      14.182  55.574  -1.442  1.00  0.00     0.000 A 
HETATM   21  C10 UNL     1      12.794  55.512  -1.483  1.00  0.00     0.002 A 
HETATM   22  C11 UNL     1      12.151  54.331  -1.874  1.00  0.00     0.031 A 
ENDBRANCH   4  17
BRANCH   1  23
HETATM   23  C4  UNL     1      11.051  48.779  -1.615  1.00  0.00    -0.012 A 
HETATM   24  C3  UNL     1      11.776  47.579  -1.590  1.00  0.00     0.016 A 
HETATM   25  C2  UNL     1      11.254  46.462  -0.930  1.00  0.00     0.043 A 
HETATM   26  C1  UNL     1      10.017  46.548  -0.301  1.00  0.00     0.116 A 
HETATM   27  F1  UNL     1       9.522  45.475   0.329  1.00  0.00    -0.206 F 
HETATM   28  C25 UNL     1       9.287  47.731  -0.317  1.00  0.00     0.043 A 
HETATM   29  C24 UNL     1       9.805  48.849  -0.974  1.00  0.00     0.016 A 
ENDBRANCH   1  23
TORSDOF 3
ENDMDL
MODEL 5
REMARK minimizedAffinity -6.93803787
REMARK CNNscore 0.571932316
REMARK CNNaffinity 5.3521018
REMARK  3 active torsions:
REMARK  status: ('A' for Active; 'I' for Inactive)
REMARK    1  A    between atoms: C4_5  and  C5_6 
REMARK    2  A    between atoms: N2_9  and  C6_10 
REMARK    3  A    between atoms: C12_16  and  C13_17 
ROOT
HETATM    1  C5  UNL     1      17.106  49.147   5.018  1.00  0.00     0.038 C 
HETATM    2  N1  UNL     1      16.751  50.265   4.461  1.00  0.00    -0.301 N 
ATOM      3  H1  UNL     1      16.280  50.370   3.562  1.00  0.00     0.187 HD
HETATM    4  N2  UNL     1      17.126  51.273   5.303  1.00  0.00    -0.283 N 
HETATM    5  C12 UNL     1      17.856  50.801   6.484  1.00  0.00     0.148 C 
HETATM    6  C23 UNL     1      17.726  49.279   6.380  1.00  0.00     0.091 C 
ENDROOT
BRANCH   5   7
HETATM    7  C13 UNL     1      19.329  51.211   6.519  1.00  0.00    -0.022 A 
HETATM    8  C14 UNL     1      20.147  50.977   5.396  1.00  0.00     0.010 A 
HETATM    9  C15 UNL     1      21.493  51.324   5.398  1.00  0.00     0.002 A 
HETATM   10  C16 UNL     1      22.054  51.901   6.529  1.00  0.00     0.012 A 
HETATM   11  C17 UNL     1      21.284  52.135   7.676  1.00  0.00    -0.025 A 
HETATM   12  C18 UNL     1      21.885  52.709   8.809  1.00  0.00     0.012 A 
HETATM   13  C22 UNL     1      19.907  51.788   7.693  1.00  0.00    -0.018 A 
HETATM   14  C19 UNL     1      21.154  52.947   9.969  1.00  0.00     0.001 A 
HETATM   15  C20 UNL     1      19.809  52.610  10.012  1.00  0.00     0.001 A 
HETATM   16  C21 UNL     1      19.196  52.038   8.893  1.00  0.00     0.013 A 
ENDBRANCH   5   7
BRANCH   4  17
HETATM   17  C6  UNL     1      16.627  52.567   5.130  1.00  0.00     0.051 A 
HETATM   18  C7  UNL     1      17.486  53.633   4.807  1.00  0.00     0.031 A 
HETATM   19  C8  UNL     1      17.014  54.937   4.632  1.00  0.00     0.002 A 
HETATM   20  C9  UNL     1      15.660  55.213   4.782  1.00  0.00     0.000 A 
HETATM   21  C10 UNL     1      14.786  54.182   5.109  1.00  0.00     0.002 A 
HETATM   22  C11 UNL     1      15.266  52.878   5.281  1.00  0.00     0.031 A 
ENDBRANCH   4  17
BRANCH   1  23
HETATM   23  C4  UNL     1      16.888  47.826   4.382  1.00  0.00    -0.012 A 
HETATM   24  C3  UNL     1      15.629  47.443   3.902  1.00  0.00     0.016 A 
HETATM   25  C2  UNL     1      15.461  46.188   3.308  1.00  0.00     0.043 A 
HETATM   26  C1  UNL     1      16.547  45.326   3.197  1.00  0.00     0.116 A 
HETATM   27  F1  UNL     1      16.380  44.125   2.627  1.00  0.00    -0.206 F 
HETATM   28  C25 UNL     1      17.802  45.693   3.668  1.00  0.00     0.043 A 
HETATM   29  C24 UNL     1      17.973  46.945   4.262  1.00  0.00     0.016 A 
ENDBRANCH   1  23
TORSDOF 3
ENDMDL
MODEL 6
REMARK minimizedAffinity -6.45884371
REMARK CNNscore 0.513453305
REMARK CNNaffinity 5.1692853
REMARK  3 active torsions:
REMARK  status: ('A' for Active; 'I' for Inactive)
REMARK    1  A    between atoms: C4_5  and  C5_6 
REMARK    2  A    between atoms: N2_9  and  C6_10 
REMARK    3  A    between atoms: C12_16  and  C13_17 
ROOT
HETATM    1  C5  UNL     1      13.123  59.796   6.002  1.00  0.00     0.038 C 
HETATM    2  N1  UNL     1      12.572  59.814   4.827  1.00  0.00    -0.301 N 
ATOM      3  H1  UNL     1      11.629  60.133   4.606  1.00  0.00     0.187 HD
HETATM    4  N2  UNL     1      13.491  59.326   3.941  1.00  0.00    -0.283 N 
HETATM    5  C12 UNL     1      14.731  58.876   4.582  1.00  0.00     0.148 C 
HETATM    6  C23 UNL     1      14.554  59.336   6.032  1.00  0.00     0.091 C 
ENDROOT
BRANCH   5   7
HETATM    7  C13 UNL     1      14.957  57.365   4.525  1.00  0.00    -0.022 A 
HETATM    8  C14 UNL     1      13.854  56.490   4.589  1.00  0.00     0.010 A 
HETATM    9  C15 UNL     1      14.023  55.111   4.553  1.00  0.00     0.002 A 
HETATM   10  C16 UNL     1      15.301  54.575   4.465  1.00  0.00     0.012 A 
HETATM   11  C17 UNL     1      16.429  55.405   4.418  1.00  0.00    -0.025 A 
HETATM   12  C18 UNL     1      17.709  54.832   4.341  1.00  0.00     0.012 A 
HETATM   13  C22 UNL     1      16.276  56.817   4.453  1.00  0.00    -0.018 A 
HETATM   14  C19 UNL     1      18.852  55.625   4.303  1.00  0.00     0.001 A 
HETATM   15  C20 UNL     1      18.728  57.006   4.343  1.00  0.00     0.001 A 
HETATM   16  C21 UNL     1      17.461  57.593   4.418  1.00  0.00     0.013 A 
ENDBRANCH   5   7
BRANCH   4  17
HETATM   17  C6  UNL     1      13.310  59.491   2.566  1.00  0.00     0.051 A 
HETATM   18  C7  UNL     1      13.445  58.401   1.686  1.00  0.00     0.031 A 
HETATM   19  C8  UNL     1      13.273  58.538   0.306  1.00  0.00     0.002 A 
HETATM   20  C9  UNL     1      12.965  59.781  -0.237  1.00  0.00     0.000 A 
HETATM   21  C10 UNL     1      12.833  60.880   0.606  1.00  0.00     0.002 A 
HETATM   22  C11 UNL     1      13.005  60.734   1.988  1.00  0.00     0.031 A 
ENDBRANCH   4  17
BRANCH   1  23
HETATM   23  C4  UNL     1      12.416  60.229   7.231  1.00  0.00    -0.012 A 
HETATM   24  C3  UNL     1      13.026  61.074   8.167  1.00  0.00     0.016 A 
HETATM   25  C2  UNL     1      12.328  61.462   9.315  1.00  0.00     0.043 A 
HETATM   26  C1  UNL     1      11.030  61.006   9.521  1.00  0.00     0.116 A 
HETATM   27  F1  UNL     1      10.366  61.381  10.622  1.00  0.00    -0.206 F 
HETATM   28  C25 UNL     1      10.412  60.168   8.600  1.00  0.00     0.043 A 
HETATM   29  C24 UNL     1      11.106  59.779   7.453  1.00  0.00     0.016 A 
ENDBRANCH   1  23
TORSDOF 3
ENDMDL
MODEL 7
REMARK minimizedAffinity -7.25930262
REMARK CNNscore 0.486131221
REMARK CNNaffinity 4.95775223
REMARK  3 active torsions:
REMARK  status: ('A' for Active; 'I' for Inactive)
REMARK    1  A    between atoms: C4_5  and  C5_6 
REMARK    2  A    between atoms: N2_9  and  C6_10 
REMARK    3  A    between atoms: C12_16  and  C13_17 
ROOT
HETATM    1  C5  UNL     1      13.436  58.853   1.034  1.00  0.00     0.038 C 
HETATM    2  N1  UNL     1      14.080  58.363   2.048  1.00  0.00    -0.301 N 
ATOM      3  H1  UNL     1      14.479  58.891   2.824  1.00  0.00     0.187 HD
HETATM    4  N2  UNL     1      14.123  57.007   1.884  1.00  0.00    -0.283 N 
HETATM    5  C12 UNL     1      13.525  56.558   0.621  1.00  0.00     0.148 C 
HETATM    6  C23 UNL     1      12.896  57.839   0.066  1.00  0.00     0.091 C 
ENDROOT
BRANCH   5   7
HETATM    7  C13 UNL     1      14.526  55.977  -0.378  1.00  0.00    -0.022 A 
HETATM    8  C14 UNL     1      15.862  56.428  -0.372  1.00  0.00     0.010 A 
HETATM    9  C15 UNL     1      16.794  55.932  -1.275  1.00  0.00     0.002 A 
HETATM   10  C16 UNL     1      16.411  54.982  -2.212  1.00  0.00     0.012 A 
HETATM   11  C17 UNL     1      15.089  54.519  -2.268  1.00  0.00    -0.025 A 
HETATM   12  C18 UNL     1      14.730  53.566  -3.236  1.00  0.00     0.012 A 
HETATM   13  C22 UNL     1      14.121  55.013  -1.353  1.00  0.00    -0.018 A 
HETATM   14  C19 UNL     1      13.425  53.090  -3.327  1.00  0.00     0.001 A 
HETATM   15  C20 UNL     1      12.460  53.563  -2.449  1.00  0.00     0.001 A 
HETATM   16  C21 UNL     1      12.802  54.510  -1.479  1.00  0.00     0.013 A 
ENDBRANCH   5   7
BRANCH   4  17
HETATM   17  C6  UNL     1      14.485  56.173   2.943  1.00  0.00     0.051 A 
HETATM   18  C7  UNL     1      15.839  55.945   3.249  1.00  0.00     0.031 A 
HETATM   19  C8  UNL     1      16.231  55.112   4.302  1.00  0.00     0.002 A 
HETATM   20  C9  UNL     1      15.270  54.475   5.079  1.00  0.00     0.000 A 
HETATM   21  C10 UNL     1      13.923  54.674   4.797  1.00  0.00     0.002 A 
HETATM   22  C11 UNL     1      13.539  55.511   3.742  1.00  0.00     0.031 A 
ENDBRANCH   4  17
BRANCH   1  23
HETATM   23  C4  UNL     1      13.211  60.307   0.848  1.00  0.00    -0.012 A 
HETATM   24  C3  UNL     1      13.758  61.251   1.729  1.00  0.00     0.016 A 
HETATM   25  C2  UNL     1      13.524  62.614   1.523  1.00  0.00     0.043 A 
HETATM   26  C1  UNL     1      12.751  63.026   0.443  1.00  0.00     0.116 A 
HETATM   27  F1  UNL     1      12.530  64.333   0.251  1.00  0.00    -0.206 F 
HETATM   28  C25 UNL     1      12.203  62.102  -0.439  1.00  0.00     0.043 A 
HETATM   29  C24 UNL     1      12.434  60.739  -0.236  1.00  0.00     0.016 A 
ENDBRANCH   1  23
TORSDOF 3
ENDMDL
MODEL 8
REMARK minimizedAffinity -7.50678205
REMARK CNNscore 0.433743358
REMARK CNNaffinity 5.28725243
REMARK  3 active torsions:
REMARK  status: ('A' for Active; 'I' for Inactive)
REMARK    1  A    between atoms: C4_5  and  C5_6 
REMARK    2  A    between atoms: N2_9  and  C6_10 
REMARK    3  A    between atoms: C12_16  and  C13_17 
ROOT
HETATM    1  C5  UNL     1       3.680  65.978  -5.120  1.00  0.00     0.038 C 
HETATM    2  N1  UNL     1       3.626  66.839  -4.151  1.00  0.00    -0.301 N 
ATOM      3  H1  UNL     1       4.422  67.248  -3.660  1.00  0.00     0.187 HD
HETATM    4  N2  UNL     1       2.306  67.097  -3.911  1.00  0.00    -0.283 N 
HETATM    5  C12 UNL     1       1.400  66.289  -4.733  1.00  0.00     0.148 C 
HETATM    6  C23 UNL     1       2.352  65.591  -5.708  1.00  0.00     0.091 C 
ENDROOT
BRANCH   5   7
HETATM    7  C13 UNL     1       0.587  65.258  -3.949  1.00  0.00    -0.022 A 
HETATM    8  C14 UNL     1       1.196  64.056  -3.536  1.00  0.00     0.010 A 
HETATM    9  C15 UNL     1       0.484  63.091  -2.834  1.00  0.00     0.002 A 
HETATM   10  C16 UNL     1      -0.857  63.300  -2.539  1.00  0.00     0.012 A 
HETATM   11  C17 UNL     1      -1.509  64.472  -2.947  1.00  0.00    -0.025 A 
HETATM   12  C18 UNL     1      -2.869  64.649  -2.644  1.00  0.00     0.012 A 
HETATM   13  C22 UNL     1      -0.798  65.471  -3.665  1.00  0.00    -0.018 A 
HETATM   14  C19 UNL     1      -3.552  65.795  -3.041  1.00  0.00     0.001 A 
HETATM   15  C20 UNL     1      -2.881  66.781  -3.750  1.00  0.00     0.001 A 
HETATM   16  C21 UNL     1      -1.527  66.621  -4.058  1.00  0.00     0.013 A 
ENDBRANCH   5   7
BRANCH   4  17
HETATM   17  C6  UNL     1       1.925  68.193  -3.134  1.00  0.00     0.051 A 
HETATM   18  C7  UNL     1       1.312  68.009  -1.881  1.00  0.00     0.031 A 
HETATM   19  C8  UNL     1       0.917  69.088  -1.084  1.00  0.00     0.002 A 
HETATM   20  C9  UNL     1       1.122  70.390  -1.526  1.00  0.00     0.000 A 
HETATM   21  C10 UNL     1       1.719  70.606  -2.763  1.00  0.00     0.002 A 
HETATM   22  C11 UNL     1       2.113  69.520  -3.555  1.00  0.00     0.031 A 
ENDBRANCH   4  17
BRANCH   1  23
HETATM   23  C4  UNL     1       4.955  65.433  -5.643  1.00  0.00    -0.012 A 
HETATM   24  C3  UNL     1       5.420  65.758  -6.925  1.00  0.00     0.016 A 
HETATM   25  C2  UNL     1       6.628  65.225  -7.385  1.00  0.00     0.043 A 
HETATM   26  C1  UNL     1       7.362  64.374  -6.567  1.00  0.00     0.116 A 
HETATM   27  F1  UNL     1       8.519  63.866  -7.014  1.00  0.00    -0.206 F 
HETATM   28  C25 UNL     1       6.915  64.042  -5.294  1.00  0.00     0.043 A 
HETATM   29  C24 UNL     1       5.709  64.573  -4.831  1.00  0.00     0.016 A 
ENDBRANCH   1  23
TORSDOF 3
ENDMDL
MODEL 9
REMARK minimizedAffinity -7.53238153
REMARK CNNscore 0.429568172
REMARK CNNaffinity 4.95151758
REMARK  3 active torsions:
REMARK  status: ('A' for Active; 'I' for Inactive)
REMARK    1  A    between atoms: C4_5  and  C5_6 
REMARK    2  A    between atoms: N2_9  and  C6_10 
REMARK    3  A    between atoms: C12_16  and  C13_17 
ROOT
HETATM    1  C5  UNL     1       6.773  63.664  -5.656  1.00  0.00     0.038 C 
HETATM    2  N1  UNL     1       5.716  63.723  -4.905  1.00  0.00    -0.301 N 
ATOM      3  H1  UNL     1       5.414  63.020  -4.230  1.00  0.00     0.187 HD
HETATM    4  N2  UNL     1       5.083  64.900  -5.187  1.00  0.00    -0.283 N 
HETATM    5  C12 UNL     1       5.725  65.658  -6.266  1.00  0.00     0.148 C 
HETATM    6  C23 UNL     1       7.016  64.873  -6.515  1.00  0.00     0.091 C 
ENDROOT
BRANCH   5   7
HETATM    7  C13 UNL     1       4.899  65.751  -7.549  1.00  0.00    -0.022 A 
HETATM    8  C14 UNL     1       3.509  65.970  -7.471  1.00  0.00     0.010 A 
HETATM    9  C15 UNL     1       2.725  66.046  -8.616  1.00  0.00     0.002 A 
HETATM   10  C16 UNL     1       3.312  65.894  -9.866  1.00  0.00     0.012 A 
HETATM   11  C17 UNL     1       4.687  65.656  -9.991  1.00  0.00    -0.025 A 
HETATM   12  C18 UNL     1       5.248  65.495 -11.268  1.00  0.00     0.012 A 
HETATM   13  C22 UNL     1       5.505  65.575  -8.832  1.00  0.00    -0.018 A 
HETATM   14  C19 UNL     1       6.609  65.247 -11.431  1.00  0.00     0.001 A 
HETATM   15  C20 UNL     1       7.426  65.157 -10.314  1.00  0.00     0.001 A 
HETATM   16  C21 UNL     1       6.883  65.317  -9.036  1.00  0.00     0.013 A 
ENDBRANCH   5   7
BRANCH   4  17
HETATM   17  C6  UNL     1       4.083  65.390  -4.344  1.00  0.00     0.051 A 
HETATM   18  C7  UNL     1       3.524  66.664  -4.555  1.00  0.00     0.031 A 
HETATM   19  C8  UNL     1       2.525  67.181  -3.725  1.00  0.00     0.002 A 
HETATM   20  C9  UNL     1       2.059  66.433  -2.649  1.00  0.00     0.000 A 
HETATM   21  C10 UNL     1       2.597  65.174  -2.409  1.00  0.00     0.002 A 
HETATM   22  C11 UNL     1       3.596  64.662  -3.246  1.00  0.00     0.031 A 
ENDBRANCH   4  17
BRANCH   1  23
HETATM   23  C4  UNL     1       7.704  62.511  -5.649  1.00  0.00    -0.012 A 
HETATM   24  C3  UNL     1       9.092  62.689  -5.714  1.00  0.00     0.016 A 
HETATM   25  C2  UNL     1       9.940  61.576  -5.706  1.00  0.00     0.043 A 
HETATM   26  C1  UNL     1       9.399  60.298  -5.632  1.00  0.00     0.116 A 
HETATM   27  F1  UNL     1      10.215  59.236  -5.624  1.00  0.00    -0.206 F 
HETATM   28  C25 UNL     1       8.024  60.105  -5.566  1.00  0.00     0.043 A 
HETATM   29  C24 UNL     1       7.174  61.214  -5.574  1.00  0.00     0.016 A 
ENDBRANCH   1  23
TORSDOF 3
ENDMDL
