MODEL 1
REMARK minimizedAffinity -7.74692774
REMARK  3 active torsions:
REMARK  status: ('A' for Active; 'I' for Inactive)
REMARK    1  A    between atoms: N1_1  and  C1_2 
REMARK    2  A    between atoms: C2_5  and  N3_6 
REMARK    3  A    between atoms: N3_6  and  C3_7 
ROOT
HETATM    1  C1  UNL     1      12.488  36.055  16.103  1.00  0.00     0.156 A 
HETATM    2  N2  UNL     1      13.481  35.419  16.753  1.00  0.00    -0.318 N 
ATOM      3  H2  UNL     1      14.417  35.372  16.350  1.00  0.00     0.170 HD
HETATM    4  C2  UNL     1      13.220  34.847  17.944  1.00  0.00     0.117 A 
HETATM    5  C9  UNL     1      11.959  34.927  18.461  1.00  0.00     0.018 A 
HETATM    6  C10 UNL     1      11.007  35.592  17.705  1.00  0.00     0.055 A 
HETATM    7  N4  UNL     1      11.225  36.157  16.519  1.00  0.00    -0.332 N 
ATOM      8  H4  UNL     1      10.496  36.623  15.980  1.00  0.00     0.168 HD
HETATM    9  C11 UNL     1       9.744  35.576  18.403  1.00  0.00    -0.002 A 
HETATM   10  C12 UNL     1       8.511  36.097  18.055  1.00  0.00     0.014 A 
HETATM   11  C13 UNL     1       7.448  35.925  18.947  1.00  0.00     0.001 A 
HETATM   12  C14 UNL     1       7.629  35.241  20.163  1.00  0.00     0.001 A 
HETATM   13  C15 UNL     1       8.877  34.716  20.514  1.00  0.00     0.008 A 
HETATM   14  C16 UNL     1       9.922  34.890  19.625  1.00  0.00    -0.041 A 
HETATM   15  C17 UNL     1      11.363  34.432  19.751  1.00  0.00     0.084 A 
ENDROOT
BRANCH   4  16
HETATM   16  N3  UNL     1      14.224  34.177  18.680  1.00  0.00    -0.342 N 
HETATM   17  H3  UNL     1      14.453  33.300  18.225  1.00  0.00     0.167 HD
BRANCH  16  18
HETATM   18  C3  UNL     1      15.342  34.728  19.346  1.00  0.00     0.034 A 
HETATM   19  C4  UNL     1      16.491  35.160  18.671  1.00  0.00     0.029 A 
HETATM   20  C5  UNL     1      17.553  35.760  19.356  1.00  0.00     0.004 A 
HETATM   21  C6  UNL     1      17.472  35.962  20.731  1.00  0.00     0.019 A 
HETATM   22  C7  UNL     1      16.321  35.571  21.409  1.00  0.00     0.013 A 
HETATM   23 BR1  UNL     1      16.188  35.864  23.273  1.00  0.00    -0.051 Br
HETATM   24  C8  UNL     1      15.260  34.972  20.726  1.00  0.00     0.048 A 
ENDBRANCH  16  18
ENDBRANCH   4  16
BRANCH   1  25
HETATM   25  N1  UNL     1      12.797  36.607  14.876  1.00  0.00    -0.274 NA
HETATM   26  H1  UNL     1      13.594  36.129  14.481  1.00  0.00     0.127 HD
HETATM   27  H2  UNL     1      11.961  36.668  14.312  1.00  0.00     0.127 HD
ENDBRANCH   1  25
TORSDOF 3
ENDMDL
MODEL 2
REMARK minimizedAffinity -7.64162779
REMARK  3 active torsions:
REMARK  status: ('A' for Active; 'I' for Inactive)
REMARK    1  A    between atoms: N1_1  and  C1_2 
REMARK    2  A    between atoms: C2_5  and  N3_6 
REMARK    3  A    between atoms: N3_6  and  C3_7 
ROOT
HETATM    1  C1  UNL     1      10.270  35.598  17.454  1.00  0.00     0.156 A 
HETATM    2  N2  UNL     1      10.070  35.079  18.680  1.00  0.00    -0.318 N 
ATOM      3  H2  UNL     1       9.132  35.038  19.079  1.00  0.00     0.170 HD
HETATM    4  C2  UNL     1      11.128  34.613  19.372  1.00  0.00     0.117 A 
HETATM    5  C9  UNL     1      12.372  34.680  18.814  1.00  0.00     0.018 A 
HETATM    6  C10 UNL     1      12.469  35.246  17.553  1.00  0.00     0.055 A 
HETATM    7  N4  UNL     1      11.449  35.728  16.846  1.00  0.00    -0.332 N 
ATOM      8  H4  UNL     1      11.559  36.156  15.926  1.00  0.00     0.168 HD
HETATM    9  C11 UNL     1      13.848  35.232  17.126  1.00  0.00    -0.002 A 
HETATM   10  C12 UNL     1      14.441  35.684  15.961  1.00  0.00     0.014 A 
HETATM   11  C13 UNL     1      15.824  35.534  15.824  1.00  0.00     0.001 A 
HETATM   12  C14 UNL     1      16.590  34.939  16.842  1.00  0.00     0.001 A 
HETATM   13  C15 UNL     1      15.990  34.481  18.019  1.00  0.00     0.008 A 
HETATM   14  C16 UNL     1      14.621  34.635  18.147  1.00  0.00    -0.041 A 
HETATM   15  C17 UNL     1      13.723  34.230  19.301  1.00  0.00     0.084 A 
ENDROOT
BRANCH   4  16
HETATM   16  N3  UNL     1      10.981  34.045  20.658  1.00  0.00    -0.342 N 
HETATM   17  H3  UNL     1      11.733  33.387  20.828  1.00  0.00     0.167 HD
BRANCH  16  18
HETATM   18  C3  UNL     1      10.552  34.670  21.851  1.00  0.00     0.034 A 
HETATM   19  C4  UNL     1       9.672  34.060  22.754  1.00  0.00     0.029 A 
HETATM   20  C5  UNL     1       9.319  34.682  23.956  1.00  0.00     0.004 A 
HETATM   21  C6  UNL     1       9.863  35.920  24.288  1.00  0.00     0.019 A 
HETATM   22  C7  UNL     1      10.766  36.521  23.417  1.00  0.00     0.013 A 
HETATM   23 BR1  UNL     1      11.531  38.191  23.868  1.00  0.00    -0.051 Br
HETATM   24  C8  UNL     1      11.119  35.901  22.216  1.00  0.00     0.048 A 
ENDBRANCH  16  18
ENDBRANCH   4  16
BRANCH   1  25
HETATM   25  N1  UNL     1       9.160  36.082  16.792  1.00  0.00    -0.274 NA
HETATM   26  H1  UNL     1       8.445  36.326  17.463  1.00  0.00     0.127 HD
HETATM   27  H2  UNL     1       9.441  36.793  16.131  1.00  0.00     0.127 HD
ENDBRANCH   1  25
TORSDOF 3
ENDMDL
MODEL 3
REMARK minimizedAffinity -7.61421824
REMARK  3 active torsions:
REMARK  status: ('A' for Active; 'I' for Inactive)
REMARK    1  A    between atoms: N1_1  and  C1_2 
REMARK    2  A    between atoms: C2_5  and  N3_6 
REMARK    3  A    between atoms: N3_6  and  C3_7 
ROOT
HETATM    1  C1  UNL     1       9.635  35.623  17.697  1.00  0.00     0.156 A 
HETATM    2  N2  UNL     1      10.875  35.110  17.575  1.00  0.00    -0.318 N 
ATOM      3  H2  UNL     1      11.331  35.069  16.664  1.00  0.00     0.170 HD
HETATM    4  C2  UNL     1      11.503  34.653  18.675  1.00  0.00     0.117 A 
HETATM    5  C9  UNL     1      10.869  34.721  19.883  1.00  0.00     0.018 A 
HETATM    6  C10 UNL     1       9.590  35.254  19.895  1.00  0.00     0.055 A 
HETATM    7  N4  UNL     1       8.933  35.702  18.828  1.00  0.00    -0.332 N 
ATOM      8  H4  UNL     1       7.983  36.071  18.870  1.00  0.00     0.168 HD
HETATM    9  C11 UNL     1       9.081  35.245  21.246  1.00  0.00    -0.002 A 
HETATM   10  C12 UNL     1       7.866  35.663  21.759  1.00  0.00     0.014 A 
HETATM   11  C13 UNL     1       7.651  35.530  23.134  1.00  0.00     0.001 A 
HETATM   12  C14 UNL     1       8.643  34.988  23.971  1.00  0.00     0.001 A 
HETATM   13  C15 UNL     1       9.871  34.567  23.452  1.00  0.00     0.008 A 
HETATM   14  C16 UNL     1      10.075  34.701  22.090  1.00  0.00    -0.041 A 
HETATM   15  C17 UNL     1      11.299  34.334  21.272  1.00  0.00     0.084 A 
ENDROOT
BRANCH   4  16
HETATM   16  N3  UNL     1      12.809  34.116  18.614  1.00  0.00    -0.342 N 
HETATM   17  H3  UNL     1      12.803  33.266  18.062  1.00  0.00     0.167 HD
BRANCH  16  18
HETATM   18  C3  UNL     1      14.038  34.805  18.499  1.00  0.00     0.034 A 
HETATM   19  C4  UNL     1      15.279  34.158  18.552  1.00  0.00     0.029 A 
HETATM   20  C5  UNL     1      16.473  34.863  18.370  1.00  0.00     0.004 A 
HETATM   21  C6  UNL     1      16.445  36.230  18.107  1.00  0.00     0.019 A 
HETATM   22  C7  UNL     1      15.218  36.879  18.017  1.00  0.00     0.013 A 
HETATM   23 BR1  UNL     1      15.164  38.731  17.635  1.00  0.00    -0.051 Br
HETATM   24  C8  UNL     1      14.023  36.176  18.198  1.00  0.00     0.048 A 
ENDBRANCH  16  18
ENDBRANCH   4  16
BRANCH   1  25
HETATM   25  N1  UNL     1       9.022  36.059  16.540  1.00  0.00    -0.274 NA
HETATM   26  H1  UNL     1       9.424  35.583  15.744  1.00  0.00     0.127 HD
HETATM   27  H2  UNL     1       8.019  36.017  16.650  1.00  0.00     0.127 HD
ENDBRANCH   1  25
TORSDOF 3
ENDMDL
MODEL 4
REMARK minimizedAffinity -7.48437977
REMARK  3 active torsions:
REMARK  status: ('A' for Active; 'I' for Inactive)
REMARK    1  A    between atoms: N1_1  and  C1_2 
REMARK    2  A    between atoms: C2_5  and  N3_6 
REMARK    3  A    between atoms: N3_6  and  C3_7 
ROOT
HETATM    1  C1  UNL     1      12.682  36.003  16.105  1.00  0.00     0.156 A 
HETATM    2  N2  UNL     1      13.745  35.390  16.659  1.00  0.00    -0.318 N 
ATOM      3  H2  UNL     1      14.649  35.394  16.186  1.00  0.00     0.170 HD
HETATM    4  C2  UNL     1      13.598  34.773  17.846  1.00  0.00     0.117 A 
HETATM    5  C9  UNL     1      12.377  34.785  18.458  1.00  0.00     0.018 A 
HETATM    6  C10 UNL     1      11.345  35.432  17.796  1.00  0.00     0.055 A 
HETATM    7  N4  UNL     1      11.450  36.040  16.616  1.00  0.00    -0.332 N 
ATOM      8  H4  UNL     1      10.665  36.491  16.148  1.00  0.00     0.168 HD
HETATM    9  C11 UNL     1      10.140  35.342  18.585  1.00  0.00    -0.002 A 
HETATM   10  C12 UNL     1       8.864  35.821  18.347  1.00  0.00     0.014 A 
HETATM   11  C13 UNL     1       7.880  35.579  19.310  1.00  0.00     0.001 A 
HETATM   12  C14 UNL     1       8.179  34.868  20.486  1.00  0.00     0.001 A 
HETATM   13  C15 UNL     1       9.469  34.385  20.725  1.00  0.00     0.008 A 
HETATM   14  C16 UNL     1      10.437  34.628  19.768  1.00  0.00    -0.041 A 
HETATM   15  C17 UNL     1      11.900  34.228  19.772  1.00  0.00     0.084 A 
ENDROOT
BRANCH   4  16
HETATM   16  N3  UNL     1      14.680  34.124  18.484  1.00  0.00    -0.342 N 
HETATM   17  H3  UNL     1      14.636  33.128  18.299  1.00  0.00     0.167 HD
BRANCH  16  18
HETATM   18  C3  UNL     1      16.012  34.572  18.627  1.00  0.00     0.034 A 
HETATM   19  C4  UNL     1      17.008  34.310  17.678  1.00  0.00     0.029 A 
HETATM   20  C5  UNL     1      18.301  34.824  17.822  1.00  0.00     0.004 A 
HETATM   21  C6  UNL     1      18.614  35.634  18.911  1.00  0.00     0.019 A 
HETATM   22  C7  UNL     1      17.625  35.932  19.843  1.00  0.00     0.013 A 
HETATM   23 BR1  UNL     1      18.031  37.050  21.313  1.00  0.00    -0.051 Br
HETATM   24  C8  UNL     1      16.333  35.419  19.700  1.00  0.00     0.048 A 
ENDBRANCH  16  18
ENDBRANCH   4  16
BRANCH   1  25
HETATM   25  N1  UNL     1      12.874  36.603  14.877  1.00  0.00    -0.274 NA
HETATM   26  H1  UNL     1      13.658  36.171  14.408  1.00  0.00     0.127 HD
HETATM   27  H2  UNL     1      11.997  36.646  14.378  1.00  0.00     0.127 HD
ENDBRANCH   1  25
TORSDOF 3
ENDMDL
MODEL 5
REMARK minimizedAffinity -7.41030979
REMARK  3 active torsions:
REMARK  status: ('A' for Active; 'I' for Inactive)
REMARK    1  A    between atoms: N1_1  and  C1_2 
REMARK    2  A    between atoms: C2_5  and  N3_6 
REMARK    3  A    between atoms: N3_6  and  C3_7 
ROOT
HETATM    1  C1  UNL     1      13.201  34.438  19.649  1.00  0.00     0.156 A 
HETATM    2  N2  UNL     1      13.504  34.946  18.439  1.00  0.00    -0.318 N 
ATOM      3  H2  UNL     1      14.464  34.927  18.095  1.00  0.00     0.170 HD
HETATM    4  C2  UNL     1      12.520  35.479  17.690  1.00  0.00     0.117 A 
HETATM    5  C9  UNL     1      11.243  35.491  18.175  1.00  0.00     0.018 A 
HETATM    6  C10 UNL     1      11.042  34.955  19.437  1.00  0.00     0.055 A 
HETATM    7  N4  UNL     1      11.991  34.432  20.211  1.00  0.00    -0.332 N 
ATOM      8  H4  UNL     1      11.811  34.063  21.144  1.00  0.00     0.168 HD
HETATM    9  C11 UNL     1       9.644  35.053  19.781  1.00  0.00    -0.002 A 
HETATM   10  C12 UNL     1       8.962  34.666  20.921  1.00  0.00     0.014 A 
HETATM   11  C13 UNL     1       7.584  34.891  20.972  1.00  0.00     0.001 A 
HETATM   12  C14 UNL     1       6.909  35.493  19.895  1.00  0.00     0.001 A 
HETATM   13  C15 UNL     1       7.599  35.883  18.743  1.00  0.00     0.008 A 
HETATM   14  C16 UNL     1       8.963  35.658  18.700  1.00  0.00    -0.041 A 
HETATM   15  C17 UNL     1       9.945  35.974  17.588  1.00  0.00     0.084 A 
ENDROOT
BRANCH   4  16
HETATM   16  N3  UNL     1      12.773  36.017  16.407  1.00  0.00    -0.342 N 
HETATM   17  H3  UNL     1      11.973  36.558  16.100  1.00  0.00     0.167 HD
BRANCH  16  18
HETATM   18  C3  UNL     1      13.984  36.536  15.896  1.00  0.00     0.034 A 
HETATM   19  C4  UNL     1      14.337  37.887  16.006  1.00  0.00     0.029 A 
HETATM   20  C5  UNL     1      15.573  38.354  15.544  1.00  0.00     0.004 A 
HETATM   21  C6  UNL     1      16.490  37.468  14.985  1.00  0.00     0.019 A 
HETATM   22  C7  UNL     1      16.167  36.117  14.902  1.00  0.00     0.013 A 
HETATM   23 BR1  UNL     1      17.414  34.899  14.167  1.00  0.00    -0.051 Br
HETATM   24  C8  UNL     1      14.932  35.649  15.363  1.00  0.00     0.048 A 
ENDBRANCH  16  18
ENDBRANCH   4  16
BRANCH   1  25
HETATM   25  N1  UNL     1      14.244  33.921  20.390  1.00  0.00    -0.274 NA
HETATM   26  H1  UNL     1      15.112  34.343  20.091  1.00  0.00     0.127 HD
HETATM   27  H2  UNL     1      14.017  33.966  21.373  1.00  0.00     0.127 HD
ENDBRANCH   1  25
TORSDOF 3
ENDMDL
MODEL 6
REMARK minimizedAffinity -7.18161392
REMARK  3 active torsions:
REMARK  status: ('A' for Active; 'I' for Inactive)
REMARK    1  A    between atoms: N1_1  and  C1_2 
REMARK    2  A    between atoms: C2_5  and  N3_6 
REMARK    3  A    between atoms: N3_6  and  C3_7 
ROOT
HETATM    1  C1  UNL     1      19.076  53.539   4.539  1.00  0.00     0.156 A 
HETATM    2  N2  UNL     1      18.679  52.443   5.213  1.00  0.00    -0.318 N 
ATOM      3  H2  UNL     1      19.361  51.748   5.519  1.00  0.00     0.170 HD
HETATM    4  C2  UNL     1      17.369  52.278   5.477  1.00  0.00     0.117 A 
HETATM    5  C9  UNL     1      16.479  53.224   5.057  1.00  0.00     0.018 A 
HETATM    6  C10 UNL     1      16.990  54.307   4.359  1.00  0.00     0.055 A 
HETATM    7  N4  UNL     1      18.276  54.496   4.068  1.00  0.00    -0.332 N 
ATOM      8  H4  UNL     1      18.616  55.297   3.536  1.00  0.00     0.168 HD
HETATM    9  C11 UNL     1      15.912  55.196   3.998  1.00  0.00    -0.002 A 
HETATM   10  C12 UNL     1      15.919  56.391   3.300  1.00  0.00     0.014 A 
HETATM   11  C13 UNL     1      14.698  57.042   3.098  1.00  0.00     0.001 A 
HETATM   12  C14 UNL     1      13.499  56.498   3.591  1.00  0.00     0.001 A 
HETATM   13  C15 UNL     1      13.494  55.291   4.297  1.00  0.00     0.008 A 
HETATM   14  C16 UNL     1      14.705  54.652   4.491  1.00  0.00    -0.041 A 
HETATM   15  C17 UNL     1      14.988  53.349   5.215  1.00  0.00     0.084 A 
ENDROOT
BRANCH   4  16
HETATM   16  N3  UNL     1      16.892  51.155   6.191  1.00  0.00    -0.342 N 
HETATM   17  H3  UNL     1      15.899  51.040   6.023  1.00  0.00     0.167 HD
BRANCH  16  18
HETATM   18  C3  UNL     1      17.534  49.914   6.407  1.00  0.00     0.034 A 
HETATM   19  C4  UNL     1      18.697  49.784   7.176  1.00  0.00     0.029 A 
HETATM   20  C5  UNL     1      19.269  48.531   7.421  1.00  0.00     0.004 A 
HETATM   21  C6  UNL     1      18.670  47.380   6.919  1.00  0.00     0.019 A 
HETATM   22  C7  UNL     1      17.494  47.490   6.184  1.00  0.00     0.013 A 
HETATM   23 BR1  UNL     1      16.656  45.931   5.517  1.00  0.00    -0.051 Br
HETATM   24  C8  UNL     1      16.921  48.742   5.938  1.00  0.00     0.048 A 
ENDBRANCH  16  18
ENDBRANCH   4  16
BRANCH   1  25
HETATM   25  N1  UNL     1      20.425  53.655   4.272  1.00  0.00    -0.274 NA
HETATM   26  H1  UNL     1      20.851  52.739   4.277  1.00  0.00     0.127 HD
HETATM   27  H2  UNL     1      20.561  54.229   3.452  1.00  0.00     0.127 HD
ENDBRANCH   1  25
TORSDOF 3
ENDMDL
MODEL 7
REMARK minimizedAffinity -7.17811632
REMARK  3 active torsions:
REMARK  status: ('A' for Active; 'I' for Inactive)
REMARK    1  A    between atoms: N1_1  and  C1_2 
REMARK    2  A    between atoms: C2_5  and  N3_6 
REMARK    3  A    between atoms: N3_6  and  C3_7 
ROOT
HETATM    1  C1  UNL     1      13.444  34.301  20.223  1.00  0.00     0.156 A 
HETATM    2  N2  UNL     1      12.314  34.956  19.897  1.00  0.00    -0.318 N 
ATOM      3  H2  UNL     1      11.519  34.969  20.537  1.00  0.00     0.170 HD
HETATM    4  C2  UNL     1      12.247  35.594  18.713  1.00  0.00     0.117 A 
HETATM    5  C9  UNL     1      13.325  35.560  17.875  1.00  0.00     0.018 A 
HETATM    6  C10 UNL     1      14.434  34.846  18.300  1.00  0.00     0.055 A 
HETATM    7  N4  UNL     1      14.530  34.193  19.457  1.00  0.00    -0.332 N 
ATOM      8  H4  UNL     1      15.356  33.661  19.731  1.00  0.00     0.168 HD
HETATM    9  C11 UNL     1      15.466  34.921  17.295  1.00  0.00    -0.002 A 
HETATM   10  C12 UNL     1      16.736  34.373  17.258  1.00  0.00     0.014 A 
HETATM   11  C13 UNL     1      17.527  34.620  16.132  1.00  0.00     0.001 A 
HETATM   12  C14 UNL     1      17.045  35.403  15.068  1.00  0.00     0.001 A 
HETATM   13  C15 UNL     1      15.762  35.957  15.107  1.00  0.00     0.008 A 
HETATM   14  C16 UNL     1      14.985  35.708  16.224  1.00  0.00    -0.041 A 
HETATM   15  C17 UNL     1      13.576  36.181  16.528  1.00  0.00     0.084 A 
ENDROOT
BRANCH   4  16
HETATM   16  N3  UNL     1      11.093  36.309  18.319  1.00  0.00    -0.342 N 
HETATM   17  H3  UNL     1      11.046  36.352  17.308  1.00  0.00     0.167 HD
BRANCH  16  18
HETATM   18  C3  UNL     1       9.806  36.288  18.902  1.00  0.00     0.034 A 
HETATM   19  C4  UNL     1       8.632  36.471  18.159  1.00  0.00     0.029 A 
HETATM   20  C5  UNL     1       7.372  36.380  18.759  1.00  0.00     0.004 A 
HETATM   21  C6  UNL     1       7.263  36.080  20.114  1.00  0.00     0.019 A 
HETATM   22  C7  UNL     1       8.418  35.860  20.857  1.00  0.00     0.013 A 
HETATM   23 BR1  UNL     1       8.283  35.426  22.693  1.00  0.00    -0.051 Br
HETATM   24  C8  UNL     1       9.679  35.950  20.259  1.00  0.00     0.048 A 
ENDBRANCH  16  18
ENDBRANCH   4  16
BRANCH   1  25
HETATM   25  N1  UNL     1      13.458  33.644  21.436  1.00  0.00    -0.274 NA
HETATM   26  H1  UNL     1      12.512  33.430  21.717  1.00  0.00     0.127 HD
HETATM   27  H2  UNL     1      14.119  32.880  21.402  1.00  0.00     0.127 HD
ENDBRANCH   1  25
TORSDOF 3
ENDMDL
MODEL 8
REMARK minimizedAffinity -7.06410503
REMARK  3 active torsions:
REMARK  status: ('A' for Active; 'I' for Inactive)
REMARK    1  A    between atoms: N1_1  and  C1_2 
REMARK    2  A    between atoms: C2_5  and  N3_6 
REMARK    3  A    between atoms: N3_6  and  C3_7 
ROOT
HETATM    1  C1  UNL     1       1.116  63.933  -2.870  1.00  0.00     0.156 A 
HETATM    2  N2  UNL     1       1.831  64.169  -3.987  1.00  0.00    -0.318 N 
ATOM      3  H2  UNL     1       2.061  63.407  -4.625  1.00  0.00     0.170 HD
HETATM    4  C2  UNL     1       2.235  65.426  -4.249  1.00  0.00     0.117 A 
HETATM    5  C9  UNL     1       1.912  66.427  -3.379  1.00  0.00     0.018 A 
HETATM    6  C10 UNL     1       1.186  66.075  -2.252  1.00  0.00     0.055 A 
HETATM    7  N4  UNL     1       0.781  64.842  -1.953  1.00  0.00    -0.332 N 
ATOM      8  H4  UNL     1       0.263  64.614  -1.105  1.00  0.00     0.168 HD
HETATM    9  C11 UNL     1       0.938  67.252  -1.454  1.00  0.00    -0.002 A 
HETATM   10  C12 UNL     1       0.270  67.407  -0.253  1.00  0.00     0.014 A 
HETATM   11  C13 UNL     1       0.188  68.691   0.293  1.00  0.00     0.001 A 
HETATM   12  C14 UNL     1       0.768  69.793  -0.361  1.00  0.00     0.001 A 
HETATM   13  C15 UNL     1       1.442  69.635  -1.576  1.00  0.00     0.008 A 
HETATM   14  C16 UNL     1       1.520  68.361  -2.109  1.00  0.00    -0.041 A 
HETATM   15  C17 UNL     1       2.179  67.908  -3.398  1.00  0.00     0.084 A 
ENDROOT
BRANCH   4  16
HETATM   16  N3  UNL     1       2.977  65.739  -5.412  1.00  0.00    -0.342 N 
HETATM   17  H3  UNL     1       2.686  66.642  -5.769  1.00  0.00     0.167 HD
BRANCH  16  18
HETATM   18  C3  UNL     1       4.341  65.485  -5.678  1.00  0.00     0.034 A 
HETATM   19  C4  UNL     1       5.194  64.870  -4.753  1.00  0.00     0.029 A 
HETATM   20  C5  UNL     1       6.523  64.577  -5.074  1.00  0.00     0.004 A 
HETATM   21  C6  UNL     1       7.017  64.872  -6.342  1.00  0.00     0.019 A 
HETATM   22  C7  UNL     1       6.171  65.450  -7.283  1.00  0.00     0.013 A 
HETATM   23 BR1  UNL     1       6.823  65.834  -9.017  1.00  0.00    -0.051 Br
HETATM   24  C8  UNL     1       4.843  65.744  -6.963  1.00  0.00     0.048 A 
ENDBRANCH  16  18
ENDBRANCH   4  16
BRANCH   1  25
HETATM   25  N1  UNL     1       0.742  62.626  -2.631  1.00  0.00    -0.274 NA
HETATM   26  H1  UNL     1       1.375  62.000  -3.110  1.00  0.00     0.127 HD
HETATM   27  H2  UNL     1       0.609  62.487  -1.639  1.00  0.00     0.127 HD
ENDBRANCH   1  25
TORSDOF 3
ENDMDL
MODEL 9
REMARK minimizedAffinity -6.86003113
REMARK  3 active torsions:
REMARK  status: ('A' for Active; 'I' for Inactive)
REMARK    1  A    between atoms: N1_1  and  C1_2 
REMARK    2  A    between atoms: C2_5  and  N3_6 
REMARK    3  A    between atoms: N3_6  and  C3_7 
ROOT
HETATM    1  C1  UNL     1      14.928  38.513  17.264  1.00  0.00     0.156 A 
HETATM    2  N2  UNL     1      13.958  37.581  17.331  1.00  0.00    -0.318 N 
ATOM      3  H2  UNL     1      13.166  37.702  17.963  1.00  0.00     0.170 HD
HETATM    4  C2  UNL     1      14.049  36.487  16.551  1.00  0.00     0.117 A 
HETATM    5  C9  UNL     1      15.119  36.351  15.714  1.00  0.00     0.018 A 
HETATM    6  C10 UNL     1      16.068  37.361  15.733  1.00  0.00     0.055 A 
HETATM    7  N4  UNL     1      16.018  38.448  16.500  1.00  0.00    -0.332 N 
ATOM      8  H4  UNL     1      16.744  39.164  16.502  1.00  0.00     0.168 HD
HETATM    9  C11 UNL     1      17.118  37.049  14.793  1.00  0.00    -0.002 A 
HETATM   10  C12 UNL     1      18.271  37.738  14.461  1.00  0.00     0.014 A 
HETATM   11  C13 UNL     1      19.116  37.182  13.497  1.00  0.00     0.001 A 
HETATM   12  C14 UNL     1      18.801  35.957  12.881  1.00  0.00     0.001 A 
HETATM   13  C15 UNL     1      17.635  35.262  13.216  1.00  0.00     0.008 A 
HETATM   14  C16 UNL     1      16.805  35.819  14.172  1.00  0.00    -0.041 A 
HETATM   15  C17 UNL     1      15.492  35.289  14.716  1.00  0.00     0.084 A 
ENDROOT
BRANCH   4  16
HETATM   16  N3  UNL     1      13.056  35.480  16.566  1.00  0.00    -0.342 N 
HETATM   17  H3  UNL     1      13.405  34.650  16.100  1.00  0.00     0.167 HD
BRANCH  16  18
HETATM   18  C3  UNL     1      12.148  35.158  17.600  1.00  0.00     0.034 A 
HETATM   19  C4  UNL     1      12.494  34.347  18.689  1.00  0.00     0.029 A 
HETATM   20  C5  UNL     1      11.589  34.101  19.727  1.00  0.00     0.004 A 
HETATM   21  C6  UNL     1      10.325  34.685  19.705  1.00  0.00     0.019 A 
HETATM   22  C7  UNL     1       9.981  35.522  18.649  1.00  0.00     0.013 A 
HETATM   23 BR1  UNL     1       8.277  36.342  18.620  1.00  0.00    -0.051 Br
HETATM   24  C8  UNL     1      10.885  35.768  17.611  1.00  0.00     0.048 A 
ENDBRANCH  16  18
ENDBRANCH   4  16
BRANCH   1  25
HETATM   25  N1  UNL     1      14.803  39.605  18.098  1.00  0.00    -0.274 NA
HETATM   26  H1  UNL     1      14.227  39.362  18.891  1.00  0.00     0.127 HD
HETATM   27  H2  UNL     1      15.716  39.995  18.286  1.00  0.00     0.127 HD
ENDBRANCH   1  25
TORSDOF 3
ENDMDL
