MODEL 1
REMARK minimizedAffinity -7.6322484
REMARK  6 active torsions:
REMARK  status: ('A' for Active; 'I' for Inactive)
REMARK    1  A    between atoms: C2_2  and  C3_3 
REMARK       I    between atoms: C3_3  and  N1_5 
REMARK    2  A    between atoms: N1_5  and  C4_6 
REMARK    3  A    between atoms: C9_15  and  N4_16 
REMARK    4  A    between atoms: N4_16  and  C10_17 
REMARK    5  A    between atoms: C13_20  and  O2_21 
REMARK    6  A    between atoms: O2_21  and  C14_22 
ROOT
HETATM    1  C4  UNL     1       8.206  34.463  20.860  1.00  0.00     0.036 A 
HETATM    2  C5  UNL     1       8.102  35.053  22.118  1.00  0.00     0.032 A 
HETATM    3  C6  UNL     1       9.161  35.806  22.636  1.00  0.00     0.033 A 
HETATM    4  C7  UNL     1      10.341  35.994  21.932  1.00  0.00     0.047 A 
HETATM    5  N2  UNL     1      11.304  36.726  22.495  1.00  0.00    -0.352 N 
ATOM      6  H2  UNL     1      11.194  37.137  23.422  1.00  0.00     0.166 HD
HETATM    7  C8  UNL     1      12.422  36.892  21.781  1.00  0.00     0.182 A 
HETATM    8  N3  UNL     1      12.665  36.391  20.568  1.00  0.00    -0.338 N 
ATOM      9  H3  UNL     1      13.547  36.567  20.086  1.00  0.00     0.168 HD
HETATM   10  C9  UNL     1      11.695  35.643  20.009  1.00  0.00     0.119 A 
HETATM   11  C22 UNL     1      10.466  35.410  20.665  1.00  0.00     0.037 A 
HETATM   12  C23 UNL     1       9.384  34.652  20.137  1.00  0.00     0.047 A 
ENDROOT
BRANCH  10  13
HETATM   13  N4  UNL     1      11.903  35.076  18.723  1.00  0.00    -0.342 N 
HETATM   14  H8  UNL     1      11.624  34.101  18.733  1.00  0.00     0.167 HD
BRANCH  13  15
HETATM   15  C10 UNL     1      12.946  35.309  17.800  1.00  0.00     0.033 A 
HETATM   16  C11 UNL     1      12.731  36.220  16.753  1.00  0.00     0.032 A 
HETATM   17  C12 UNL     1      13.748  36.531  15.844  1.00  0.00     0.039 A 
HETATM   18  C13 UNL     1      15.000  35.940  15.976  1.00  0.00     0.076 A 
HETATM   19  C20 UNL     1      15.254  35.080  17.043  1.00  0.00     0.039 A 
HETATM   20  C21 UNL     1      14.232  34.774  17.949  1.00  0.00     0.032 A 
BRANCH  18  21
HETATM   21  O2  UNL     1      15.968  36.311  15.070  1.00  0.00    -0.311 OA
BRANCH  21  22
HETATM   22  C14 UNL     1      16.509  35.322  14.280  1.00  0.00     0.076 A 
HETATM   23  C15 UNL     1      15.817  34.997  13.114  1.00  0.00     0.037 A 
HETATM   24  C16 UNL     1      16.291  33.979  12.284  1.00  0.00     0.003 A 
HETATM   25  C17 UNL     1      17.447  33.280  12.631  1.00  0.00     0.000 A 
HETATM   26  C18 UNL     1      18.127  33.592  13.809  1.00  0.00     0.003 A 
HETATM   27  C19 UNL     1      17.655  34.608  14.640  1.00  0.00     0.037 A 
ENDBRANCH  21  22
ENDBRANCH  18  21
ENDBRANCH  13  15
ENDBRANCH  10  13
BRANCH   1  28
HETATM   28  N1  UNL     1       7.108  33.708  20.403  1.00  0.00    -0.324 N 
HETATM   29  C3  UNL     1       6.099  34.123  19.564  1.00  0.00     0.244 C 
HETATM   30  O1  UNL     1       5.942  35.237  19.082  1.00  0.00    -0.268 OA
HETATM   31  H4  UNL     1       7.050  32.760  20.751  1.00  0.00     0.169 HD
BRANCH  29  32
HETATM   32  C2  UNL     1       5.077  33.077  19.274  1.00  0.00     0.064 C 
HETATM   33  C1  UNL     1       4.577  32.800  18.062  1.00  0.00     0.017 C 
ENDBRANCH  29  32
ENDBRANCH   1  28
TORSDOF 6
ENDMDL
MODEL 2
REMARK minimizedAffinity -7.45943403
REMARK  6 active torsions:
REMARK  status: ('A' for Active; 'I' for Inactive)
REMARK    1  A    between atoms: C2_2  and  C3_3 
REMARK       I    between atoms: C3_3  and  N1_5 
REMARK    2  A    between atoms: N1_5  and  C4_6 
REMARK    3  A    between atoms: C9_15  and  N4_16 
REMARK    4  A    between atoms: N4_16  and  C10_17 
REMARK    5  A    between atoms: C13_20  and  O2_21 
REMARK    6  A    between atoms: O2_21  and  C14_22 
ROOT
HETATM    1  C4  UNL     1      16.874  35.904  14.146  1.00  0.00     0.036 A 
HETATM    2  C5  UNL     1      17.142  37.175  13.642  1.00  0.00     0.032 A 
HETATM    3  C6  UNL     1      16.833  38.314  14.393  1.00  0.00     0.033 A 
HETATM    4  C7  UNL     1      16.255  38.228  15.651  1.00  0.00     0.047 A 
HETATM    5  N2  UNL     1      15.990  39.361  16.305  1.00  0.00    -0.352 N 
ATOM      6  H2  UNL     1      16.194  40.274  15.900  1.00  0.00     0.166 HD
HETATM    7  C8  UNL     1      15.443  39.236  17.518  1.00  0.00     0.182 A 
HETATM    8  N3  UNL     1      15.132  38.091  18.129  1.00  0.00    -0.338 N 
ATOM      9  H3  UNL     1      14.718  38.081  19.062  1.00  0.00     0.168 HD
HETATM   10  C9  UNL     1      15.390  36.951  17.461  1.00  0.00     0.119 A 
HETATM   11  C22 UNL     1      15.979  36.960  16.178  1.00  0.00     0.037 A 
HETATM   12  C23 UNL     1      16.303  35.803  15.415  1.00  0.00     0.047 A 
ENDROOT
BRANCH  10  13
HETATM   13  N4  UNL     1      15.071  35.703  18.060  1.00  0.00    -0.342 N 
HETATM   14  H8  UNL     1      15.568  34.960  17.580  1.00  0.00     0.167 HD
BRANCH  13  15
HETATM   15  C10 UNL     1      13.841  35.250  18.585  1.00  0.00     0.033 A 
HETATM   16  C11 UNL     1      13.795  34.820  19.922  1.00  0.00     0.032 A 
HETATM   17  C12 UNL     1      12.592  34.415  20.510  1.00  0.00     0.039 A 
HETATM   18  C13 UNL     1      11.414  34.443  19.771  1.00  0.00     0.076 A 
HETATM   19  C20 UNL     1      11.427  34.924  18.462  1.00  0.00     0.039 A 
HETATM   20  C21 UNL     1      12.634  35.328  17.880  1.00  0.00     0.032 A 
BRANCH  18  21
HETATM   21  O2  UNL     1      10.259  34.064  20.416  1.00  0.00    -0.311 OA
BRANCH  21  22
HETATM   22  C14 UNL     1       9.092  34.695  20.050  1.00  0.00     0.076 A 
HETATM   23  C15 UNL     1       9.211  35.812  19.224  1.00  0.00     0.037 A 
HETATM   24  C16 UNL     1       8.071  36.522  18.843  1.00  0.00     0.003 A 
HETATM   25  C17 UNL     1       6.816  36.120  19.301  1.00  0.00     0.000 A 
HETATM   26  C18 UNL     1       6.700  35.015  20.145  1.00  0.00     0.003 A 
HETATM   27  C19 UNL     1       7.838  34.305  20.528  1.00  0.00     0.037 A 
ENDBRANCH  21  22
ENDBRANCH  18  21
ENDBRANCH  13  15
ENDBRANCH  10  13
BRANCH   1  28
HETATM   28  N1  UNL     1      17.199  34.800  13.334  1.00  0.00    -0.324 N 
HETATM   29  C3  UNL     1      16.376  34.142  12.450  1.00  0.00     0.244 C 
HETATM   30  O1  UNL     1      15.193  34.366  12.223  1.00  0.00    -0.268 OA
HETATM   31  H4  UNL     1      18.140  34.442  13.432  1.00  0.00     0.169 HD
BRANCH  29  32
HETATM   32  C2  UNL     1      17.026  33.002  11.742  1.00  0.00     0.064 C 
HETATM   33  C1  UNL     1      17.648  31.976  12.338  1.00  0.00     0.017 C 
ENDBRANCH  29  32
ENDBRANCH   1  28
TORSDOF 6
ENDMDL
MODEL 3
REMARK minimizedAffinity -7.33892822
REMARK  6 active torsions:
REMARK  status: ('A' for Active; 'I' for Inactive)
REMARK    1  A    between atoms: C2_2  and  C3_3 
REMARK       I    between atoms: C3_3  and  N1_5 
REMARK    2  A    between atoms: N1_5  and  C4_6 
REMARK    3  A    between atoms: C9_15  and  N4_16 
REMARK    4  A    between atoms: N4_16  and  C10_17 
REMARK    5  A    between atoms: C13_20  and  O2_21 
REMARK    6  A    between atoms: O2_21  and  C14_22 
ROOT
HETATM    1  C4  UNL     1      17.389  48.245   4.968  1.00  0.00     0.036 A 
HETATM    2  C5  UNL     1      18.025  47.627   6.043  1.00  0.00     0.032 A 
HETATM    3  C6  UNL     1      18.667  48.395   7.020  1.00  0.00     0.033 A 
HETATM    4  C7  UNL     1      18.699  49.780   6.962  1.00  0.00     0.047 A 
HETATM    5  N2  UNL     1      19.332  50.440   7.933  1.00  0.00    -0.352 N 
ATOM      6  H2  UNL     1      19.793  49.953   8.701  1.00  0.00     0.166 HD
HETATM    7  C8  UNL     1      19.331  51.774   7.847  1.00  0.00     0.182 A 
HETATM    8  N3  UNL     1      18.766  52.502   6.882  1.00  0.00    -0.338 N 
ATOM      9  H3  UNL     1      18.807  53.521   6.890  1.00  0.00     0.168 HD
HETATM   10  C9  UNL     1      18.138  51.831   5.898  1.00  0.00     0.119 A 
HETATM   11  C22 UNL     1      18.064  50.421   5.891  1.00  0.00     0.037 A 
HETATM   12  C23 UNL     1      17.404  49.638   4.903  1.00  0.00     0.047 A 
ENDROOT
BRANCH  10  13
HETATM   13  N4  UNL     1      17.526  52.554   4.839  1.00  0.00    -0.342 N 
HETATM   14  H8  UNL     1      18.211  52.737   4.113  1.00  0.00     0.167 HD
BRANCH  13  15
HETATM   15  C10 UNL     1      16.547  53.570   4.897  1.00  0.00     0.033 A 
HETATM   16  C11 UNL     1      16.906  54.876   4.526  1.00  0.00     0.032 A 
HETATM   17  C12 UNL     1      15.964  55.910   4.510  1.00  0.00     0.039 A 
HETATM   18  C13 UNL     1      14.642  55.648   4.858  1.00  0.00     0.076 A 
HETATM   19  C20 UNL     1      14.251  54.347   5.171  1.00  0.00     0.039 A 
HETATM   20  C21 UNL     1      15.200  53.318   5.184  1.00  0.00     0.032 A 
BRANCH  18  21
HETATM   21  O2  UNL     1      13.756  56.699   4.792  1.00  0.00    -0.311 OA
BRANCH  21  22
HETATM   22  C14 UNL     1      13.606  57.326   3.575  1.00  0.00     0.076 A 
HETATM   23  C15 UNL     1      13.531  58.718   3.587  1.00  0.00     0.037 A 
HETATM   24  C16 UNL     1      13.343  59.416   2.393  1.00  0.00     0.003 A 
HETATM   25  C17 UNL     1      13.215  58.718   1.192  1.00  0.00     0.000 A 
HETATM   26  C18 UNL     1      13.268  57.323   1.184  1.00  0.00     0.003 A 
HETATM   27  C19 UNL     1      13.455  56.624   2.376  1.00  0.00     0.037 A 
ENDBRANCH  21  22
ENDBRANCH  18  21
ENDBRANCH  13  15
ENDBRANCH  10  13
BRANCH   1  28
HETATM   28  N1  UNL     1      16.771  47.413   4.013  1.00  0.00    -0.324 N 
HETATM   29  C3  UNL     1      15.689  46.584   4.201  1.00  0.00     0.244 C 
HETATM   30  O1  UNL     1      15.076  46.382   5.241  1.00  0.00    -0.268 OA
HETATM   31  H4  UNL     1      17.189  47.415   3.092  1.00  0.00     0.169 HD
BRANCH  29  32
HETATM   32  C2  UNL     1      15.280  45.828   2.983  1.00  0.00     0.064 C 
HETATM   33  C1  UNL     1      15.221  46.333   1.743  1.00  0.00     0.017 C 
ENDBRANCH  29  32
ENDBRANCH   1  28
TORSDOF 6
ENDMDL
MODEL 4
REMARK minimizedAffinity -7.18858194
REMARK  6 active torsions:
REMARK  status: ('A' for Active; 'I' for Inactive)
REMARK    1  A    between atoms: C2_2  and  C3_3 
REMARK       I    between atoms: C3_3  and  N1_5 
REMARK    2  A    between atoms: N1_5  and  C4_6 
REMARK    3  A    between atoms: C9_15  and  N4_16 
REMARK    4  A    between atoms: N4_16  and  C10_17 
REMARK    5  A    between atoms: C13_20  and  O2_21 
REMARK    6  A    between atoms: O2_21  and  C14_22 
ROOT
HETATM    1  C4  UNL     1      12.201  35.386  17.417  1.00  0.00     0.036 A 
HETATM    2  C5  UNL     1      12.704  34.350  18.200  1.00  0.00     0.032 A 
HETATM    3  C6  UNL     1      14.081  34.113  18.259  1.00  0.00     0.033 A 
HETATM    4  C7  UNL     1      14.990  34.885  17.551  1.00  0.00     0.047 A 
HETATM    5  N2  UNL     1      16.288  34.594  17.659  1.00  0.00    -0.352 N 
ATOM      6  H2  UNL     1      16.618  33.823  18.238  1.00  0.00     0.166 HD
HETATM    7  C8  UNL     1      17.132  35.368  16.970  1.00  0.00     0.182 A 
HETATM    8  N3  UNL     1      16.799  36.392  16.182  1.00  0.00    -0.338 N 
ATOM      9  H3  UNL     1      17.507  36.937  15.689  1.00  0.00     0.168 HD
HETATM   10  C9  UNL     1      15.488  36.673  16.066  1.00  0.00     0.119 A 
HETATM   11  C22 UNL     1      14.505  35.933  16.758  1.00  0.00     0.037 A 
HETATM   12  C23 UNL     1      13.104  36.177  16.707  1.00  0.00     0.047 A 
ENDROOT
BRANCH  10  13
HETATM   13  N4  UNL     1      15.075  37.748  15.232  1.00  0.00    -0.342 N 
HETATM   14  H8  UNL     1      14.766  37.383  14.337  1.00  0.00     0.167 HD
BRANCH  13  15
HETATM   15  C10 UNL     1      15.622  39.043  15.104  1.00  0.00     0.033 A 
HETATM   16  C11 UNL     1      16.221  39.406  13.887  1.00  0.00     0.032 A 
HETATM   17  C12 UNL     1      16.729  40.694  13.685  1.00  0.00     0.039 A 
HETATM   18  C13 UNL     1      16.636  41.642  14.698  1.00  0.00     0.076 A 
HETATM   19  C20 UNL     1      15.991  41.322  15.892  1.00  0.00     0.039 A 
HETATM   20  C21 UNL     1      15.485  40.031  16.087  1.00  0.00     0.032 A 
BRANCH  18  21
HETATM   21  O2  UNL     1      17.124  42.900  14.427  1.00  0.00    -0.311 OA
BRANCH  21  22
HETATM   22  C14 UNL     1      17.925  43.488  15.380  1.00  0.00     0.076 A 
HETATM   23  C15 UNL     1      17.468  44.681  15.939  1.00  0.00     0.037 A 
HETATM   24  C16 UNL     1      18.246  45.350  16.886  1.00  0.00     0.003 A 
HETATM   25  C17 UNL     1      19.487  44.831  17.259  1.00  0.00     0.000 A 
HETATM   26  C18 UNL     1      19.953  43.648  16.682  1.00  0.00     0.003 A 
HETATM   27  C19 UNL     1      19.177  42.979  15.736  1.00  0.00     0.037 A 
ENDBRANCH  21  22
ENDBRANCH  18  21
ENDBRANCH  13  15
ENDBRANCH  10  13
BRANCH   1  28
HETATM   28  N1  UNL     1      10.803  35.564  17.392  1.00  0.00    -0.324 N 
HETATM   29  C3  UNL     1      10.017  36.145  18.361  1.00  0.00     0.244 C 
HETATM   30  O1  UNL     1      10.375  36.588  19.445  1.00  0.00    -0.268 OA
HETATM   31  H4  UNL     1      10.327  35.203  16.577  1.00  0.00     0.169 HD
BRANCH  29  32
HETATM   32  C2  UNL     1       8.564  36.175  18.032  1.00  0.00     0.064 C 
HETATM   33  C1  UNL     1       7.574  36.353  18.917  1.00  0.00     0.017 C 
ENDBRANCH  29  32
ENDBRANCH   1  28
TORSDOF 6
ENDMDL
MODEL 5
REMARK minimizedAffinity -7.16821718
REMARK  6 active torsions:
REMARK  status: ('A' for Active; 'I' for Inactive)
REMARK    1  A    between atoms: C2_2  and  C3_3 
REMARK       I    between atoms: C3_3  and  N1_5 
REMARK    2  A    between atoms: N1_5  and  C4_6 
REMARK    3  A    between atoms: C9_15  and  N4_16 
REMARK    4  A    between atoms: N4_16  and  C10_17 
REMARK    5  A    between atoms: C13_20  and  O2_21 
REMARK    6  A    between atoms: O2_21  and  C14_22 
ROOT
HETATM    1  C4  UNL     1      17.708  47.714   5.736  1.00  0.00     0.036 A 
HETATM    2  C5  UNL     1      18.745  47.414   6.617  1.00  0.00     0.032 A 
HETATM    3  C6  UNL     1      19.352  48.428   7.366  1.00  0.00     0.033 A 
HETATM    4  C7  UNL     1      18.956  49.753   7.265  1.00  0.00     0.047 A 
HETATM    5  N2  UNL     1      19.585  50.661   8.013  1.00  0.00    -0.352 N 
ATOM      6  H2  UNL     1      20.346  50.404   8.642  1.00  0.00     0.166 HD
HETATM    7  C8  UNL     1      19.167  51.925   7.895  1.00  0.00     0.182 A 
HETATM    8  N3  UNL     1      18.190  52.361   7.098  1.00  0.00    -0.338 N 
ATOM      9  H3  UNL     1      17.928  53.347   7.068  1.00  0.00     0.168 HD
HETATM   10  C9  UNL     1      17.566  51.443   6.336  1.00  0.00     0.119 A 
HETATM   11  C22 UNL     1      17.914  50.076   6.387  1.00  0.00     0.037 A 
HETATM   12  C23 UNL     1      17.292  49.042   5.632  1.00  0.00     0.047 A 
ENDROOT
BRANCH  10  13
HETATM   13  N4  UNL     1      16.524  51.853   5.462  1.00  0.00    -0.342 N 
HETATM   14  H8  UNL     1      16.512  51.253   4.644  1.00  0.00     0.167 HD
BRANCH  13  15
HETATM   15  C10 UNL     1      16.070  53.156   5.157  1.00  0.00     0.033 A 
HETATM   16  C11 UNL     1      16.993  54.094   4.666  1.00  0.00     0.032 A 
HETATM   17  C12 UNL     1      16.589  55.381   4.295  1.00  0.00     0.039 A 
HETATM   18  C13 UNL     1      15.250  55.745   4.401  1.00  0.00     0.076 A 
HETATM   19  C20 UNL     1      14.308  54.810   4.828  1.00  0.00     0.039 A 
HETATM   20  C21 UNL     1      14.720  53.524   5.197  1.00  0.00     0.032 A 
BRANCH  18  21
HETATM   21  O2  UNL     1      14.911  57.013   3.989  1.00  0.00    -0.311 OA
BRANCH  21  22
HETATM   22  C14 UNL     1      14.303  57.837   4.910  1.00  0.00     0.076 A 
HETATM   23  C15 UNL     1      13.383  58.762   4.419  1.00  0.00     0.037 A 
HETATM   24  C16 UNL     1      12.756  59.652   5.292  1.00  0.00     0.003 A 
HETATM   25  C17 UNL     1      13.063  59.625   6.653  1.00  0.00     0.000 A 
HETATM   26  C18 UNL     1      14.001  58.713   7.140  1.00  0.00     0.003 A 
HETATM   27  C19 UNL     1      14.629  57.823   6.269  1.00  0.00     0.037 A 
ENDBRANCH  21  22
ENDBRANCH  18  21
ENDBRANCH  13  15
ENDBRANCH  10  13
BRANCH   1  28
HETATM   28  N1  UNL     1      17.148  46.649   5.004  1.00  0.00    -0.324 N 
HETATM   29  C3  UNL     1      16.138  46.716   4.072  1.00  0.00     0.244 C 
HETATM   30  O1  UNL     1      15.507  47.706   3.724  1.00  0.00    -0.268 OA
HETATM   31  H4  UNL     1      17.521  45.731   5.206  1.00  0.00     0.169 HD
BRANCH  29  32
HETATM   32  C2  UNL     1      15.768  45.400   3.476  1.00  0.00     0.064 C 
HETATM   33  C1  UNL     1      15.900  45.072   2.183  1.00  0.00     0.017 C 
ENDBRANCH  29  32
ENDBRANCH   1  28
TORSDOF 6
ENDMDL
MODEL 6
REMARK minimizedAffinity -7.15847206
REMARK  6 active torsions:
REMARK  status: ('A' for Active; 'I' for Inactive)
REMARK    1  A    between atoms: C2_2  and  C3_3 
REMARK       I    between atoms: C3_3  and  N1_5 
REMARK    2  A    between atoms: N1_5  and  C4_6 
REMARK    3  A    between atoms: C9_15  and  N4_16 
REMARK    4  A    between atoms: N4_16  and  C10_17 
REMARK    5  A    between atoms: C13_20  and  O2_21 
REMARK    6  A    between atoms: O2_21  and  C14_22 
ROOT
HETATM    1  C4  UNL     1       7.336  47.267  -3.706  1.00  0.00     0.036 A 
HETATM    2  C5  UNL     1       7.243  45.938  -4.112  1.00  0.00     0.032 A 
HETATM    3  C6  UNL     1       8.167  44.992  -3.656  1.00  0.00     0.033 A 
HETATM    4  C7  UNL     1       9.201  45.332  -2.796  1.00  0.00     0.047 A 
HETATM    5  N2  UNL     1      10.042  44.373  -2.406  1.00  0.00    -0.352 N 
ATOM      6  H2  UNL     1       9.946  43.411  -2.730  1.00  0.00     0.166 HD
HETATM    7  C8  UNL     1      11.018  44.739  -1.568  1.00  0.00     0.182 A 
HETATM    8  N3  UNL     1      11.232  45.968  -1.095  1.00  0.00    -0.338 N 
ATOM      9  H3  UNL     1      12.001  46.166  -0.455  1.00  0.00     0.168 HD
HETATM   10  C9  UNL     1      10.387  46.935  -1.501  1.00  0.00     0.119 A 
HETATM   11  C22 UNL     1       9.312  46.664  -2.374  1.00  0.00     0.037 A 
HETATM   12  C23 UNL     1       8.364  47.621  -2.833  1.00  0.00     0.047 A 
ENDROOT
BRANCH  10  13
HETATM   13  N4  UNL     1      10.573  48.265  -1.036  1.00  0.00    -0.342 N 
HETATM   14  H8  UNL     1       9.717  48.596  -0.605  1.00  0.00     0.167 HD
BRANCH  13  15
HETATM   15  C10 UNL     1      11.305  49.323  -1.618  1.00  0.00     0.033 A 
HETATM   16  C11 UNL     1      10.612  50.300  -2.352  1.00  0.00     0.032 A 
HETATM   17  C12 UNL     1      11.278  51.400  -2.902  1.00  0.00     0.039 A 
HETATM   18  C13 UNL     1      12.650  51.543  -2.717  1.00  0.00     0.076 A 
HETATM   19  C20 UNL     1      13.346  50.618  -1.941  1.00  0.00     0.039 A 
HETATM   20  C21 UNL     1      12.673  49.520  -1.393  1.00  0.00     0.032 A 
BRANCH  18  21
HETATM   21  O2  UNL     1      13.241  52.663  -3.256  1.00  0.00    -0.311 OA
BRANCH  21  22
HETATM   22  C14 UNL     1      13.569  53.684  -2.392  1.00  0.00     0.076 A 
HETATM   23  C15 UNL     1      12.523  54.486  -1.937  1.00  0.00     0.037 A 
HETATM   24  C16 UNL     1      12.788  55.561  -1.086  1.00  0.00     0.003 A 
HETATM   25  C17 UNL     1      14.101  55.840  -0.706  1.00  0.00     0.000 A 
HETATM   26  C18 UNL     1      15.150  55.050  -1.180  1.00  0.00     0.003 A 
HETATM   27  C19 UNL     1      14.887  53.976  -2.030  1.00  0.00     0.037 A 
ENDBRANCH  21  22
ENDBRANCH  18  21
ENDBRANCH  13  15
ENDBRANCH  10  13
BRANCH   1  28
HETATM   28  N1  UNL     1       6.380  48.170  -4.212  1.00  0.00    -0.324 N 
HETATM   29  C3  UNL     1       6.610  49.285  -4.985  1.00  0.00     0.244 C 
HETATM   30  O1  UNL     1       7.691  49.727  -5.353  1.00  0.00    -0.268 OA
HETATM   31  H4  UNL     1       5.419  47.984  -3.956  1.00  0.00     0.169 HD
BRANCH  29  32
HETATM   32  C2  UNL     1       5.377  50.038  -5.353  1.00  0.00     0.064 C 
HETATM   33  C1  UNL     1       4.480  49.651  -6.270  1.00  0.00     0.017 C 
ENDBRANCH  29  32
ENDBRANCH   1  28
TORSDOF 6
ENDMDL
MODEL 7
REMARK minimizedAffinity -7.14213848
REMARK  6 active torsions:
REMARK  status: ('A' for Active; 'I' for Inactive)
REMARK    1  A    between atoms: C2_2  and  C3_3 
REMARK       I    between atoms: C3_3  and  N1_5 
REMARK    2  A    between atoms: N1_5  and  C4_6 
REMARK    3  A    between atoms: C9_15  and  N4_16 
REMARK    4  A    between atoms: N4_16  and  C10_17 
REMARK    5  A    between atoms: C13_20  and  O2_21 
REMARK    6  A    between atoms: O2_21  and  C14_22 
ROOT
HETATM    1  C4  UNL     1      14.175  57.392   1.924  1.00  0.00     0.036 A 
HETATM    2  C5  UNL     1      13.737  56.993   0.663  1.00  0.00     0.032 A 
HETATM    3  C6  UNL     1      13.046  57.888  -0.161  1.00  0.00     0.033 A 
HETATM    4  C7  UNL     1      12.771  59.188   0.235  1.00  0.00     0.047 A 
HETATM    5  N2  UNL     1      12.107  59.981  -0.608  1.00  0.00    -0.352 N 
ATOM      6  H2  UNL     1      11.795  59.651  -1.522  1.00  0.00     0.166 HD
HETATM    7  C8  UNL     1      11.870  61.229  -0.193  1.00  0.00     0.182 A 
HETATM    8  N3  UNL     1      12.228  61.751   0.981  1.00  0.00    -0.338 N 
ATOM      9  H3  UNL     1      12.011  62.719   1.222  1.00  0.00     0.168 HD
HETATM   10  C9  UNL     1      12.887  60.944   1.834  1.00  0.00     0.119 A 
HETATM   11  C22 UNL     1      13.204  59.610   1.499  1.00  0.00     0.037 A 
HETATM   12  C23 UNL     1      13.914  58.700   2.331  1.00  0.00     0.047 A 
ENDROOT
BRANCH  10  13
HETATM   13  N4  UNL     1      13.284  61.445   3.103  1.00  0.00    -0.342 N 
HETATM   14  H8  UNL     1      14.296  61.418   3.177  1.00  0.00     0.167 HD
BRANCH  13  15
HETATM   15  C10 UNL     1      12.667  61.282   4.363  1.00  0.00     0.033 A 
HETATM   16  C11 UNL     1      12.942  60.121   5.105  1.00  0.00     0.032 A 
HETATM   17  C12 UNL     1      12.404  59.933   6.382  1.00  0.00     0.039 A 
HETATM   18  C13 UNL     1      11.588  60.911   6.941  1.00  0.00     0.076 A 
HETATM   19  C20 UNL     1      11.352  62.098   6.248  1.00  0.00     0.039 A 
HETATM   20  C21 UNL     1      11.894  62.279   4.970  1.00  0.00     0.032 A 
BRANCH  18  21
HETATM   21  O2  UNL     1      11.116  60.683   8.213  1.00  0.00    -0.311 OA
BRANCH  21  22
HETATM   22  C14 UNL     1      11.976  60.092   9.112  1.00  0.00     0.076 A 
HETATM   23  C15 UNL     1      12.918  60.920   9.721  1.00  0.00     0.037 A 
HETATM   24  C16 UNL     1      13.843  60.381  10.616  1.00  0.00     0.003 A 
HETATM   25  C17 UNL     1      13.834  59.012  10.887  1.00  0.00     0.000 A 
HETATM   26  C18 UNL     1      12.905  58.181  10.260  1.00  0.00     0.003 A 
HETATM   27  C19 UNL     1      11.979  58.718   9.365  1.00  0.00     0.037 A 
ENDBRANCH  21  22
ENDBRANCH  18  21
ENDBRANCH  13  15
ENDBRANCH  10  13
BRANCH   1  28
HETATM   28  N1  UNL     1      14.855  56.439   2.708  1.00  0.00    -0.324 N 
HETATM   29  C3  UNL     1      14.332  55.659   3.714  1.00  0.00     0.244 C 
HETATM   30  O1  UNL     1      13.187  55.667   4.146  1.00  0.00    -0.268 OA
HETATM   31  H4  UNL     1      15.843  56.336   2.519  1.00  0.00     0.169 HD
BRANCH  29  32
HETATM   32  C2  UNL     1      15.322  54.748   4.357  1.00  0.00     0.064 C 
HETATM   33  C1  UNL     1      15.017  53.695   5.128  1.00  0.00     0.017 C 
ENDBRANCH  29  32
ENDBRANCH   1  28
TORSDOF 6
ENDMDL
MODEL 8
REMARK minimizedAffinity -7.13388157
REMARK  6 active torsions:
REMARK  status: ('A' for Active; 'I' for Inactive)
REMARK    1  A    between atoms: C2_2  and  C3_3 
REMARK       I    between atoms: C3_3  and  N1_5 
REMARK    2  A    between atoms: N1_5  and  C4_6 
REMARK    3  A    between atoms: C9_15  and  N4_16 
REMARK    4  A    between atoms: N4_16  and  C10_17 
REMARK    5  A    between atoms: C13_20  and  O2_21 
REMARK    6  A    between atoms: O2_21  and  C14_22 
ROOT
HETATM    1  C4  UNL     1       9.211  59.234  -5.835  1.00  0.00     0.036 A 
HETATM    2  C5  UNL     1       9.157  58.563  -7.055  1.00  0.00     0.032 A 
HETATM    3  C6  UNL     1       9.511  57.212  -7.136  1.00  0.00     0.033 A 
HETATM    4  C7  UNL     1       9.925  56.494  -6.023  1.00  0.00     0.047 A 
HETATM    5  N2  UNL     1      10.246  55.209  -6.182  1.00  0.00    -0.352 N 
ATOM      6  H2  UNL     1      10.201  54.753  -7.094  1.00  0.00     0.166 HD
HETATM    7  C8  UNL     1      10.630  54.550  -5.085  1.00  0.00     0.182 A 
HETATM    8  N3  UNL     1      10.729  55.056  -3.855  1.00  0.00    -0.338 N 
ATOM      9  H3  UNL     1      11.028  54.483  -3.065  1.00  0.00     0.168 HD
HETATM   10  C9  UNL     1      10.415  56.356  -3.701  1.00  0.00     0.119 A 
HETATM   11  C22 UNL     1       9.985  57.149  -4.786  1.00  0.00     0.037 A 
HETATM   12  C23 UNL     1       9.615  58.522  -4.706  1.00  0.00     0.047 A 
ENDROOT
BRANCH  10  13
HETATM   13  N4  UNL     1      10.512  56.951  -2.414  1.00  0.00    -0.342 N 
HETATM   14  H8  UNL     1       9.985  57.818  -2.401  1.00  0.00     0.167 HD
BRANCH  13  15
HETATM   15  C10 UNL     1      11.611  56.998  -1.529  1.00  0.00     0.033 A 
HETATM   16  C11 UNL     1      12.110  58.251  -1.138  1.00  0.00     0.032 A 
HETATM   17  C12 UNL     1      13.160  58.358  -0.220  1.00  0.00     0.039 A 
HETATM   18  C13 UNL     1      13.722  57.209   0.328  1.00  0.00     0.076 A 
HETATM   19  C20 UNL     1      13.202  55.958  -0.001  1.00  0.00     0.039 A 
HETATM   20  C21 UNL     1      12.151  55.859  -0.919  1.00  0.00     0.032 A 
BRANCH  18  21
HETATM   21  O2  UNL     1      14.730  57.381   1.249  1.00  0.00    -0.311 OA
BRANCH  21  22
HETATM   22  C14 UNL     1      14.748  56.534   2.334  1.00  0.00     0.076 A 
HETATM   23  C15 UNL     1      13.525  56.267   2.946  1.00  0.00     0.037 A 
HETATM   24  C16 UNL     1      13.474  55.444   4.073  1.00  0.00     0.003 A 
HETATM   25  C17 UNL     1      14.651  54.903   4.592  1.00  0.00     0.000 A 
HETATM   26  C18 UNL     1      15.878  55.189   3.992  1.00  0.00     0.003 A 
HETATM   27  C19 UNL     1      15.930  56.011   2.866  1.00  0.00     0.037 A 
ENDBRANCH  21  22
ENDBRANCH  18  21
ENDBRANCH  13  15
ENDBRANCH  10  13
BRANCH   1  28
HETATM   28  N1  UNL     1       8.852  60.596  -5.826  1.00  0.00    -0.324 N 
HETATM   29  C3  UNL     1       7.606  61.131  -5.590  1.00  0.00     0.244 C 
HETATM   30  O1  UNL     1       6.563  60.527  -5.376  1.00  0.00    -0.268 OA
HETATM   31  H4  UNL     1       9.595  61.249  -6.038  1.00  0.00     0.169 HD
BRANCH  29  32
HETATM   32  C2  UNL     1       7.558  62.620  -5.657  1.00  0.00     0.064 C 
HETATM   33  C1  UNL     1       6.640  63.392  -5.059  1.00  0.00     0.017 C 
ENDBRANCH  29  32
ENDBRANCH   1  28
TORSDOF 6
ENDMDL
MODEL 9
REMARK minimizedAffinity -7.13051462
REMARK  6 active torsions:
REMARK  status: ('A' for Active; 'I' for Inactive)
REMARK    1  A    between atoms: C2_2  and  C3_3 
REMARK       I    between atoms: C3_3  and  N1_5 
REMARK    2  A    between atoms: N1_5  and  C4_6 
REMARK    3  A    between atoms: C9_15  and  N4_16 
REMARK    4  A    between atoms: N4_16  and  C10_17 
REMARK    5  A    between atoms: C13_20  and  O2_21 
REMARK    6  A    between atoms: O2_21  and  C14_22 
ROOT
HETATM    1  C4  UNL     1      17.202  35.167  12.886  1.00  0.00     0.036 A 
HETATM    2  C5  UNL     1      17.632  36.232  12.099  1.00  0.00     0.032 A 
HETATM    3  C6  UNL     1      17.638  37.534  12.612  1.00  0.00     0.033 A 
HETATM    4  C7  UNL     1      17.221  37.815  13.905  1.00  0.00     0.047 A 
HETATM    5  N2  UNL     1      17.256  39.082  14.320  1.00  0.00    -0.352 N 
ATOM      6  H2  UNL     1      17.572  39.838  13.712  1.00  0.00     0.166 HD
HETATM    7  C8  UNL     1      16.856  39.311  15.575  1.00  0.00     0.182 A 
HETATM    8  N3  UNL     1      16.421  38.395  16.443  1.00  0.00    -0.338 N 
ATOM      9  H3  UNL     1      16.135  38.651  17.388  1.00  0.00     0.168 HD
HETATM   10  C9  UNL     1      16.376  37.119  16.015  1.00  0.00     0.119 A 
HETATM   11  C22 UNL     1      16.786  36.758  14.714  1.00  0.00     0.037 A 
HETATM   12  C23 UNL     1      16.789  35.434  14.192  1.00  0.00     0.047 A 
ENDROOT
BRANCH  10  13
HETATM   13  N4  UNL     1      15.911  36.104  16.894  1.00  0.00    -0.342 N 
HETATM   14  H8  UNL     1      16.552  35.318  16.873  1.00  0.00     0.167 HD
BRANCH  13  15
HETATM   15  C10 UNL     1      14.589  35.689  17.164  1.00  0.00     0.033 A 
HETATM   16  C11 UNL     1      14.387  34.516  17.910  1.00  0.00     0.032 A 
HETATM   17  C12 UNL     1      13.101  34.089  18.254  1.00  0.00     0.039 A 
HETATM   18  C13 UNL     1      11.994  34.837  17.864  1.00  0.00     0.076 A 
HETATM   19  C20 UNL     1      12.174  36.036  17.177  1.00  0.00     0.039 A 
HETATM   20  C21 UNL     1      13.465  36.457  16.836  1.00  0.00     0.032 A 
BRANCH  18  21
HETATM   21  O2  UNL     1      10.758  34.382  18.262  1.00  0.00    -0.311 OA
BRANCH  21  22
HETATM   22  C14 UNL     1      10.246  34.883  19.437  1.00  0.00     0.076 A 
HETATM   23  C15 UNL     1      11.024  34.724  20.583  1.00  0.00     0.037 A 
HETATM   24  C16 UNL     1      10.550  35.177  21.816  1.00  0.00     0.003 A 
HETATM   25  C17 UNL     1       9.293  35.775  21.901  1.00  0.00     0.000 A 
HETATM   26  C18 UNL     1       8.505  35.915  20.757  1.00  0.00     0.003 A 
HETATM   27  C19 UNL     1       8.977  35.462  19.524  1.00  0.00     0.037 A 
ENDBRANCH  21  22
ENDBRANCH  18  21
ENDBRANCH  13  15
ENDBRANCH  10  13
BRANCH   1  28
HETATM   28  N1  UNL     1      17.210  33.883  12.305  1.00  0.00    -0.324 N 
HETATM   29  C3  UNL     1      18.166  32.905  12.453  1.00  0.00     0.244 C 
HETATM   30  O1  UNL     1      19.209  32.971  13.090  1.00  0.00    -0.268 OA
HETATM   31  H4  UNL     1      16.433  33.672  11.693  1.00  0.00     0.169 HD
BRANCH  29  32
HETATM   32  C2  UNL     1      17.881  31.652  11.696  1.00  0.00     0.064 C 
HETATM   33  C1  UNL     1      17.099  30.651  12.124  1.00  0.00     0.017 C 
ENDBRANCH  29  32
ENDBRANCH   1  28
TORSDOF 6
ENDMDL
