MODEL 1
REMARK minimizedAffinity -9.28383732
REMARK  7 active torsions:
REMARK  status: ('A' for Active; 'I' for Inactive)
REMARK    1  A    between atoms: C3_3  and  C4_4 
REMARK       I    between atoms: C4_4  and  N1_6 
REMARK    2  A    between atoms: N1_6  and  C5_7 
REMARK    3  A    between atoms: C8_10  and  N2_11 
REMARK    4  A    between atoms: C9_14  and  C10_15 
REMARK    5  A    between atoms: C13_18  and  O2_19 
REMARK    6  A    between atoms: O2_19  and  C14_20 
REMARK    7  A    between atoms: C23_29  and  N4_30 
ROOT
HETATM    1  C1  UNL     1      12.613  -2.729  35.644  1.00  0.00     0.112 C 
HETATM    2  C2  UNL     1      11.702  -3.347  34.682  1.00  0.00    -0.101 C 
HETATM    3  C3  UNL     1      10.962  -3.855  33.884  1.00  0.00    -0.006 C 
ENDROOT
BRANCH   3   4
HETATM    4  C4  UNL     1      10.068  -4.469  32.926  1.00  0.00     0.296 C 
HETATM    5  O1  UNL     1      10.115  -5.675  32.734  1.00  0.00    -0.258 OA
HETATM    6  N1  UNL     1       9.219  -3.597  32.288  1.00  0.00    -0.346 N 
HETATM    7  H4  UNL     1       9.384  -2.609  32.432  1.00  0.00     0.163 HD
BRANCH   6   8
HETATM    8  C5  UNL     1       8.366  -4.023  31.193  1.00  0.00     0.085 C 
HETATM    9  C6  UNL     1       9.209  -4.612  30.051  1.00  0.00     0.027 C 
HETATM   10  C7  UNL     1       8.480  -5.682  29.236  1.00  0.00     0.029 C 
HETATM   11  C8  UNL     1       6.971  -5.417  29.162  1.00  0.00     0.110 C 
HETATM   12  C26 UNL     1       6.327  -5.393  30.559  1.00  0.00     0.029 C 
HETATM   13  C27 UNL     1       7.306  -5.016  31.677  1.00  0.00     0.027 C 
BRANCH  11  14
HETATM   14  N2  UNL     1       6.290  -6.357  28.278  1.00  0.00    -0.270 N 
HETATM   15  N3  UNL     1       5.006  -6.704  28.517  1.00  0.00    -0.295 N 
HETATM   16  C9  UNL     1       4.723  -7.590  27.548  1.00  0.00     0.076 A 
ATOM     17  H3  UNL     1       4.393  -6.371  29.261  1.00  0.00     0.187 HD
HETATM   18  C22 UNL     1       5.823  -7.776  26.665  1.00  0.00     0.082 A 
HETATM   19  C23 UNL     1       6.130  -8.505  25.510  1.00  0.00     0.116 A 
HETATM   20  C25 UNL     1       6.823  -6.966  27.175  1.00  0.00     0.140 A 
HETATM   21  N5  UNL     1       7.369  -8.392  24.988  1.00  0.00    -0.338 N 
HETATM   22  C24 UNL     1       8.250  -7.566  25.586  1.00  0.00     0.183 A 
ATOM     23  H5  UNL     1       7.633  -8.922  24.157  1.00  0.00     0.168 HD
HETATM   24  N6  UNL     1       8.065  -6.815  26.684  1.00  0.00    -0.337 N 
ATOM     25  H6  UNL     1       8.776  -6.209  27.093  1.00  0.00     0.168 HD
BRANCH  16  26
HETATM   26  C10 UNL     1       3.423  -8.239  27.500  1.00  0.00    -0.007 A 
HETATM   27  C11 UNL     1       3.313  -9.563  27.061  1.00  0.00     0.016 A 
HETATM   28  C12 UNL     1       2.064 -10.187  27.032  1.00  0.00     0.038 A 
HETATM   29  C13 UNL     1       0.925  -9.493  27.447  1.00  0.00     0.076 A 
HETATM   30  C20 UNL     1       1.026  -8.160  27.855  1.00  0.00     0.038 A 
HETATM   31  C21 UNL     1       2.275  -7.536  27.888  1.00  0.00     0.016 A 
BRANCH  29  32
HETATM   32  O2  UNL     1      -0.274 -10.165  27.353  1.00  0.00    -0.311 OA
BRANCH  32  33
HETATM   33  C14 UNL     1      -0.286 -11.487  27.734  1.00  0.00     0.076 A 
HETATM   34  C15 UNL     1      -1.438 -12.108  28.225  1.00  0.00     0.037 A 
HETATM   35  C16 UNL     1      -1.383 -13.442  28.632  1.00  0.00     0.003 A 
HETATM   36  C17 UNL     1      -0.179 -14.146  28.560  1.00  0.00     0.000 A 
HETATM   37  C18 UNL     1       0.974 -13.516  28.090  1.00  0.00     0.003 A 
HETATM   38  C19 UNL     1       0.923 -12.181  27.684  1.00  0.00     0.037 A 
ENDBRANCH  32  33
ENDBRANCH  29  32
ENDBRANCH  16  26
BRANCH  19  39
HETATM   39  N4  UNL     1       5.250  -9.343  24.849  1.00  0.00    -0.385 N 
HETATM   40  H20 UNL     1       5.722  -9.975  24.215  1.00  0.00     0.157 HD
HETATM   41  H21 UNL     1       4.460  -9.701  25.366  1.00  0.00     0.157 HD
ENDBRANCH  19  39
ENDBRANCH  11  14
ENDBRANCH   6   8
ENDBRANCH   3   4
TORSDOF 7
ENDMDL
MODEL 2
REMARK minimizedAffinity -9.21144199
REMARK  7 active torsions:
REMARK  status: ('A' for Active; 'I' for Inactive)
REMARK    1  A    between atoms: C3_3  and  C4_4 
REMARK       I    between atoms: C4_4  and  N1_6 
REMARK    2  A    between atoms: N1_6  and  C5_7 
REMARK    3  A    between atoms: C8_10  and  N2_11 
REMARK    4  A    between atoms: C9_14  and  C10_15 
REMARK    5  A    between atoms: C13_18  and  O2_19 
REMARK    6  A    between atoms: O2_19  and  C14_20 
REMARK    7  A    between atoms: C23_29  and  N4_30 
ROOT
HETATM    1  C1  UNL     1      12.932  -2.617  35.738  1.00  0.00     0.112 C 
HETATM    2  C2  UNL     1      11.946  -2.714  34.662  1.00  0.00    -0.101 C 
HETATM    3  C3  UNL     1      11.129  -2.785  33.785  1.00  0.00    -0.006 C 
ENDROOT
BRANCH   3   4
HETATM    4  C4  UNL     1      10.149  -2.873  32.725  1.00  0.00     0.296 C 
HETATM    5  O1  UNL     1       9.262  -2.035  32.643  1.00  0.00    -0.258 OA
HETATM    6  N1  UNL     1      10.308  -3.944  31.879  1.00  0.00    -0.346 N 
HETATM    7  H4  UNL     1      10.991  -4.641  32.145  1.00  0.00     0.163 HD
BRANCH   6   8
HETATM    8  C5  UNL     1       9.327  -4.265  30.857  1.00  0.00     0.085 C 
HETATM    9  C6  UNL     1       9.998  -4.974  29.670  1.00  0.00     0.027 C 
HETATM   10  C7  UNL     1       9.076  -5.947  28.932  1.00  0.00     0.029 C 
HETATM   11  C8  UNL     1       7.614  -5.485  28.961  1.00  0.00     0.110 C 
HETATM   12  C26 UNL     1       7.084  -5.359  30.401  1.00  0.00     0.029 C 
HETATM   13  C27 UNL     1       8.184  -5.103  31.437  1.00  0.00     0.027 C 
BRANCH  11  14
HETATM   14  N2  UNL     1       6.752  -6.336  28.149  1.00  0.00    -0.270 N 
HETATM   15  N3  UNL     1       5.460  -6.524  28.499  1.00  0.00    -0.295 N 
HETATM   16  C9  UNL     1       4.990  -7.370  27.568  1.00  0.00     0.076 A 
ATOM     17  H3  UNL     1       4.957  -6.116  29.288  1.00  0.00     0.187 HD
HETATM   18  C22 UNL     1       5.981  -7.691  26.599  1.00  0.00     0.082 A 
HETATM   19  C23 UNL     1       6.099  -8.454  25.431  1.00  0.00     0.116 A 
HETATM   20  C25 UNL     1       7.112  -7.009  27.014  1.00  0.00     0.140 A 
HETATM   21  N5  UNL     1       7.294  -8.495  24.806  1.00  0.00    -0.338 N 
HETATM   22  C24 UNL     1       8.316  -7.782  25.318  1.00  0.00     0.183 A 
ATOM     23  H5  UNL     1       7.420  -9.054  23.962  1.00  0.00     0.168 HD
HETATM   24  N6  UNL     1       8.317  -7.012  26.419  1.00  0.00    -0.337 N 
ATOM     25  H6  UNL     1       9.129  -6.496  26.759  1.00  0.00     0.168 HD
BRANCH  16  26
HETATM   26  C10 UNL     1       3.622  -7.855  27.637  1.00  0.00    -0.007 A 
HETATM   27  C11 UNL     1       3.330  -9.186  27.320  1.00  0.00     0.016 A 
HETATM   28  C12 UNL     1       2.016  -9.652  27.402  1.00  0.00     0.038 A 
HETATM   29  C13 UNL     1       0.994  -8.792  27.808  1.00  0.00     0.076 A 
HETATM   30  C20 UNL     1       1.275  -7.452  28.094  1.00  0.00     0.038 A 
HETATM   31  C21 UNL     1       2.590  -6.987  28.015  1.00  0.00     0.016 A 
BRANCH  29  32
HETATM   32  O2  UNL     1      -0.280  -9.316  27.828  1.00  0.00    -0.311 OA
BRANCH  32  33
HETATM   33  C14 UNL     1      -1.217  -8.729  27.009  1.00  0.00     0.076 A 
HETATM   34  C15 UNL     1      -2.440  -8.260  27.496  1.00  0.00     0.037 A 
HETATM   35  C16 UNL     1      -3.369  -7.707  26.612  1.00  0.00     0.003 A 
HETATM   36  C17 UNL     1      -3.079  -7.637  25.248  1.00  0.00     0.000 A 
HETATM   37  C18 UNL     1      -1.866  -8.127  24.762  1.00  0.00     0.003 A 
HETATM   38  C19 UNL     1      -0.936  -8.682  25.643  1.00  0.00     0.037 A 
ENDBRANCH  32  33
ENDBRANCH  29  32
ENDBRANCH  16  26
BRANCH  19  39
HETATM   39  N4  UNL     1       5.071  -9.180  24.857  1.00  0.00    -0.385 N 
HETATM   40  H20 UNL     1       5.407  -9.866  24.193  1.00  0.00     0.157 HD
HETATM   41  H21 UNL     1       4.289  -9.437  25.442  1.00  0.00     0.157 HD
ENDBRANCH  19  39
ENDBRANCH  11  14
ENDBRANCH   6   8
ENDBRANCH   3   4
TORSDOF 7
ENDMDL
MODEL 3
REMARK minimizedAffinity -9.09475803
REMARK  7 active torsions:
REMARK  status: ('A' for Active; 'I' for Inactive)
REMARK    1  A    between atoms: C3_3  and  C4_4 
REMARK       I    between atoms: C4_4  and  N1_6 
REMARK    2  A    between atoms: N1_6  and  C5_7 
REMARK    3  A    between atoms: C8_10  and  N2_11 
REMARK    4  A    between atoms: C9_14  and  C10_15 
REMARK    5  A    between atoms: C13_18  and  O2_19 
REMARK    6  A    between atoms: O2_19  and  C14_20 
REMARK    7  A    between atoms: C23_29  and  N4_30 
ROOT
HETATM    1  C1  UNL     1      12.644  -2.465  35.512  1.00  0.00     0.112 C 
HETATM    2  C2  UNL     1      11.758  -3.213  34.622  1.00  0.00    -0.101 C 
HETATM    3  C3  UNL     1      11.020  -3.820  33.892  1.00  0.00    -0.006 C 
ENDROOT
BRANCH   3   4
HETATM    4  C4  UNL     1      10.137  -4.553  33.012  1.00  0.00     0.296 C 
HETATM    5  O1  UNL     1       9.877  -5.724  33.247  1.00  0.00    -0.258 OA
HETATM    6  N1  UNL     1       9.661  -3.834  31.943  1.00  0.00    -0.346 N 
HETATM    7  H4  UNL     1      10.070  -2.921  31.785  1.00  0.00     0.163 HD
BRANCH   6   8
HETATM    8  C5  UNL     1       8.887  -4.458  30.884  1.00  0.00     0.085 C 
HETATM    9  C6  UNL     1       9.649  -5.657  30.296  1.00  0.00     0.027 C 
HETATM   10  C7  UNL     1       8.737  -6.757  29.750  1.00  0.00     0.029 C 
HETATM   11  C8  UNL     1       7.429  -6.191  29.185  1.00  0.00     0.110 C 
HETATM   12  C26 UNL     1       6.629  -5.428  30.256  1.00  0.00     0.029 C 
HETATM   13  C27 UNL     1       7.500  -4.867  31.385  1.00  0.00     0.027 C 
BRANCH  11  14
HETATM   14  N2  UNL     1       6.616  -7.218  28.544  1.00  0.00    -0.270 N 
HETATM   15  N3  UNL     1       5.275  -7.064  28.455  1.00  0.00    -0.295 N 
HETATM   16  C9  UNL     1       4.859  -8.190  27.852  1.00  0.00     0.076 A 
ATOM     17  H3  UNL     1       4.711  -6.276  28.772  1.00  0.00     0.187 HD
HETATM   18  C22 UNL     1       5.946  -9.045  27.522  1.00  0.00     0.082 A 
HETATM   19  C23 UNL     1       6.158 -10.279  26.895  1.00  0.00     0.116 A 
HETATM   20  C25 UNL     1       7.068  -8.386  27.993  1.00  0.00     0.140 A 
HETATM   21  N5  UNL     1       7.419 -10.751  26.811  1.00  0.00    -0.338 N 
HETATM   22  C24 UNL     1       8.423 -10.005  27.314  1.00  0.00     0.183 A 
ATOM     23  H5  UNL     1       7.608 -11.654  26.376  1.00  0.00     0.168 HD
HETATM   24  N6  UNL     1       8.341  -8.811  27.924  1.00  0.00    -0.337 N 
ATOM     25  H6  UNL     1       9.142  -8.295  28.287  1.00  0.00     0.168 HD
BRANCH  16  26
HETATM   26  C10 UNL     1       3.442  -8.420  27.621  1.00  0.00    -0.007 A 
HETATM   27  C11 UNL     1       2.992  -9.679  27.208  1.00  0.00     0.016 A 
HETATM   28  C12 UNL     1       1.628  -9.900  27.003  1.00  0.00     0.038 A 
HETATM   29  C13 UNL     1       0.712  -8.868  27.217  1.00  0.00     0.076 A 
HETATM   30  C20 UNL     1       1.160  -7.600  27.599  1.00  0.00     0.038 A 
HETATM   31  C21 UNL     1       2.524  -7.379  27.808  1.00  0.00     0.016 A 
BRANCH  29  32
HETATM   32  O2  UNL     1      -0.610  -9.154  26.958  1.00  0.00    -0.311 OA
BRANCH  32  33
HETATM   33  C14 UNL     1      -1.161 -10.233  27.611  1.00  0.00     0.076 A 
HETATM   34  C15 UNL     1      -1.544 -11.394  26.935  1.00  0.00     0.037 A 
HETATM   35  C16 UNL     1      -2.134 -12.443  27.643  1.00  0.00     0.003 A 
HETATM   36  C17 UNL     1      -2.350 -12.323  29.018  1.00  0.00     0.000 A 
HETATM   37  C18 UNL     1      -1.987 -11.152  29.685  1.00  0.00     0.003 A 
HETATM   38  C19 UNL     1      -1.399 -10.101  28.979  1.00  0.00     0.037 A 
ENDBRANCH  32  33
ENDBRANCH  29  32
ENDBRANCH  16  26
BRANCH  19  39
HETATM   39  N4  UNL     1       5.162 -11.065  26.343  1.00  0.00    -0.385 N 
HETATM   40  H20 UNL     1       5.464 -12.018  26.186  1.00  0.00     0.157 HD
HETATM   41  H21 UNL     1       4.215 -10.920  26.662  1.00  0.00     0.157 HD
ENDBRANCH  19  39
ENDBRANCH  11  14
ENDBRANCH   6   8
ENDBRANCH   3   4
TORSDOF 7
ENDMDL
MODEL 4
REMARK minimizedAffinity -8.75965214
REMARK  7 active torsions:
REMARK  status: ('A' for Active; 'I' for Inactive)
REMARK    1  A    between atoms: C3_3  and  C4_4 
REMARK       I    between atoms: C4_4  and  N1_6 
REMARK    2  A    between atoms: N1_6  and  C5_7 
REMARK    3  A    between atoms: C8_10  and  N2_11 
REMARK    4  A    between atoms: C9_14  and  C10_15 
REMARK    5  A    between atoms: C13_18  and  O2_19 
REMARK    6  A    between atoms: O2_19  and  C14_20 
REMARK    7  A    between atoms: C23_29  and  N4_30 
ROOT
HETATM    1  C1  UNL     1      13.043  -2.408  36.057  1.00  0.00     0.112 C 
HETATM    2  C2  UNL     1      12.236  -2.527  34.844  1.00  0.00    -0.101 C 
HETATM    3  C3  UNL     1      11.568  -2.613  33.849  1.00  0.00    -0.006 C 
ENDROOT
BRANCH   3   4
HETATM    4  C4  UNL     1      10.768  -2.721  32.649  1.00  0.00     0.296 C 
HETATM    5  O1  UNL     1      10.508  -1.719  31.998  1.00  0.00    -0.258 OA
HETATM    6  N1  UNL     1      10.348  -3.994  32.348  1.00  0.00    -0.346 N 
HETATM    7  H4  UNL     1      10.509  -4.707  33.048  1.00  0.00     0.163 HD
BRANCH   6   8
HETATM    8  C5  UNL     1       9.414  -4.257  31.267  1.00  0.00     0.085 C 
HETATM    9  C6  UNL     1      10.108  -5.027  30.132  1.00  0.00     0.027 C 
HETATM   10  C7  UNL     1       9.167  -5.940  29.343  1.00  0.00     0.029 C 
HETATM   11  C8  UNL     1       7.743  -5.374  29.273  1.00  0.00     0.110 C 
HETATM   12  C26 UNL     1       7.132  -5.193  30.674  1.00  0.00     0.029 C 
HETATM   13  C27 UNL     1       8.179  -5.003  31.777  1.00  0.00     0.027 C 
BRANCH  11  14
HETATM   14  N2  UNL     1       6.876  -6.172  28.414  1.00  0.00    -0.270 N 
HETATM   15  N3  UNL     1       5.576  -6.349  28.739  1.00  0.00    -0.295 N 
HETATM   16  C9  UNL     1       5.102  -7.144  27.765  1.00  0.00     0.076 A 
ATOM     17  H3  UNL     1       5.071  -5.968  29.539  1.00  0.00     0.187 HD
HETATM   18  C22 UNL     1       6.100  -7.440  26.795  1.00  0.00     0.082 A 
HETATM   19  C23 UNL     1       6.218  -8.153  25.596  1.00  0.00     0.116 A 
HETATM   20  C25 UNL     1       7.237  -6.800  27.253  1.00  0.00     0.140 A 
HETATM   21  N5  UNL     1       7.419  -8.189  24.983  1.00  0.00    -0.338 N 
HETATM   22  C24 UNL     1       8.449  -7.519  25.540  1.00  0.00     0.183 A 
ATOM     23  H5  UNL     1       7.546  -8.712  24.117  1.00  0.00     0.168 HD
HETATM   24  N6  UNL     1       8.450  -6.799  26.674  1.00  0.00    -0.337 N 
ATOM     25  H6  UNL     1       9.267  -6.315  27.046  1.00  0.00     0.168 HD
BRANCH  16  26
HETATM   26  C10 UNL     1       3.724  -7.605  27.796  1.00  0.00    -0.007 A 
HETATM   27  C11 UNL     1       2.697  -6.730  28.167  1.00  0.00     0.016 A 
HETATM   28  C12 UNL     1       1.373  -7.174  28.179  1.00  0.00     0.038 A 
HETATM   29  C13 UNL     1       1.072  -8.488  27.816  1.00  0.00     0.076 A 
HETATM   30  C20 UNL     1       2.098  -9.375  27.476  1.00  0.00     0.038 A 
HETATM   31  C21 UNL     1       3.422  -8.931  27.459  1.00  0.00     0.016 A 
BRANCH  29  32
HETATM   32  O2  UNL     1      -0.253  -8.859  27.889  1.00  0.00    -0.311 OA
BRANCH  32  33
HETATM   33  C14 UNL     1      -0.599 -10.071  27.336  1.00  0.00     0.076 A 
HETATM   34  C15 UNL     1      -0.475 -11.271  28.041  1.00  0.00     0.037 A 
HETATM   35  C16 UNL     1      -0.805 -12.476  27.417  1.00  0.00     0.003 A 
HETATM   36  C17 UNL     1      -1.244 -12.479  26.091  1.00  0.00     0.000 A 
HETATM   37  C18 UNL     1      -1.345 -11.280  25.384  1.00  0.00     0.003 A 
HETATM   38  C19 UNL     1      -1.013 -10.074  26.004  1.00  0.00     0.037 A 
ENDBRANCH  32  33
ENDBRANCH  29  32
ENDBRANCH  16  26
BRANCH  19  39
HETATM   39  N4  UNL     1       5.184  -8.832  24.977  1.00  0.00    -0.385 N 
HETATM   40  H20 UNL     1       5.515  -9.495  24.287  1.00  0.00     0.157 HD
HETATM   41  H21 UNL     1       4.390  -9.100  25.541  1.00  0.00     0.157 HD
ENDBRANCH  19  39
ENDBRANCH  11  14
ENDBRANCH   6   8
ENDBRANCH   3   4
TORSDOF 7
ENDMDL
MODEL 5
REMARK minimizedAffinity -8.57705021
REMARK  7 active torsions:
REMARK  status: ('A' for Active; 'I' for Inactive)
REMARK    1  A    between atoms: C3_3  and  C4_4 
REMARK       I    between atoms: C4_4  and  N1_6 
REMARK    2  A    between atoms: N1_6  and  C5_7 
REMARK    3  A    between atoms: C8_10  and  N2_11 
REMARK    4  A    between atoms: C9_14  and  C10_15 
REMARK    5  A    between atoms: C13_18  and  O2_19 
REMARK    6  A    between atoms: O2_19  and  C14_20 
REMARK    7  A    between atoms: C23_29  and  N4_30 
ROOT
HETATM    1  C1  UNL     1      -1.465  -8.893  27.799  1.00  0.00     0.112 C 
HETATM    2  C2  UNL     1      -0.071  -8.470  27.679  1.00  0.00    -0.101 C 
HETATM    3  C3  UNL     1       1.074  -8.117  27.592  1.00  0.00    -0.006 C 
ENDROOT
BRANCH   3   4
HETATM    4  C4  UNL     1       2.453  -7.695  27.483  1.00  0.00     0.296 C 
HETATM    5  O1  UNL     1       3.170  -8.175  26.616  1.00  0.00    -0.258 OA
HETATM    6  N1  UNL     1       2.847  -6.761  28.410  1.00  0.00    -0.346 N 
HETATM    7  H4  UNL     1       2.198  -6.559  29.160  1.00  0.00     0.163 HD
BRANCH   6   8
HETATM    8  C5  UNL     1       4.232  -6.344  28.537  1.00  0.00     0.085 C 
HETATM    9  C6  UNL     1       4.443  -5.571  29.848  1.00  0.00     0.027 C 
HETATM   10  C7  UNL     1       5.855  -5.709  30.423  1.00  0.00     0.029 C 
HETATM   11  C8  UNL     1       6.910  -5.866  29.321  1.00  0.00     0.110 C 
HETATM   12  C26 UNL     1       6.649  -7.112  28.456  1.00  0.00     0.029 C 
HETATM   13  C27 UNL     1       5.178  -7.543  28.434  1.00  0.00     0.027 C 
BRANCH  11  14
HETATM   14  N2  UNL     1       8.267  -5.865  29.855  1.00  0.00    -0.270 N 
HETATM   15  N3  UNL     1       9.144  -6.824  29.483  1.00  0.00    -0.295 N 
HETATM   16  C9  UNL     1      10.256  -6.537  30.179  1.00  0.00     0.076 A 
ATOM     17  H3  UNL     1       8.995  -7.590  28.826  1.00  0.00     0.187 HD
HETATM   18  C22 UNL     1      10.096  -5.364  30.968  1.00  0.00     0.082 A 
HETATM   19  C23 UNL     1      10.853  -4.577  31.844  1.00  0.00     0.116 A 
HETATM   20  C25 UNL     1       8.792  -4.961  30.739  1.00  0.00     0.140 A 
HETATM   21  N5  UNL     1      10.267  -3.505  32.418  1.00  0.00    -0.338 N 
HETATM   22  C24 UNL     1       8.986  -3.225  32.106  1.00  0.00     0.183 A 
ATOM     23  H5  UNL     1      10.784  -2.919  33.073  1.00  0.00     0.168 HD
HETATM   24  N6  UNL     1       8.170  -3.899  31.278  1.00  0.00    -0.337 N 
ATOM     25  H6  UNL     1       7.204  -3.637  31.085  1.00  0.00     0.168 HD
BRANCH  16  26
HETATM   26  C10 UNL     1      11.427  -7.391  30.081  1.00  0.00    -0.007 A 
HETATM   27  C11 UNL     1      12.709  -6.830  30.075  1.00  0.00     0.016 A 
HETATM   28  C12 UNL     1      13.833  -7.657  29.997  1.00  0.00     0.038 A 
HETATM   29  C13 UNL     1      13.678  -9.043  29.932  1.00  0.00     0.076 A 
HETATM   30  C20 UNL     1      12.399  -9.606  29.905  1.00  0.00     0.038 A 
HETATM   31  C21 UNL     1      11.275  -8.781  29.987  1.00  0.00     0.016 A 
BRANCH  29  32
HETATM   32  O2  UNL     1      14.832  -9.787  29.820  1.00  0.00    -0.311 OA
BRANCH  32  33
HETATM   33  C14 UNL     1      15.630  -9.884  30.936  1.00  0.00     0.076 A 
HETATM   34  C15 UNL     1      15.203 -10.526  32.101  1.00  0.00     0.037 A 
HETATM   35  C16 UNL     1      16.041 -10.562  33.217  1.00  0.00     0.003 A 
HETATM   36  C17 UNL     1      17.293  -9.945  33.171  1.00  0.00     0.000 A 
HETATM   37  C18 UNL     1      17.707  -9.285  32.013  1.00  0.00     0.003 A 
HETATM   38  C19 UNL     1      16.871  -9.246  30.896  1.00  0.00     0.037 A 
ENDBRANCH  32  33
ENDBRANCH  29  32
ENDBRANCH  16  26
BRANCH  19  39
HETATM   39  N4  UNL     1      12.176  -4.812  32.171  1.00  0.00    -0.385 N 
HETATM   40  H20 UNL     1      12.462  -4.313  33.005  1.00  0.00     0.157 HD
HETATM   41  H21 UNL     1      12.538  -5.745  32.036  1.00  0.00     0.157 HD
ENDBRANCH  19  39
ENDBRANCH  11  14
ENDBRANCH   6   8
ENDBRANCH   3   4
TORSDOF 7
ENDMDL
MODEL 6
REMARK minimizedAffinity -8.56420517
REMARK  7 active torsions:
REMARK  status: ('A' for Active; 'I' for Inactive)
REMARK    1  A    between atoms: C3_3  and  C4_4 
REMARK       I    between atoms: C4_4  and  N1_6 
REMARK    2  A    between atoms: N1_6  and  C5_7 
REMARK    3  A    between atoms: C8_10  and  N2_11 
REMARK    4  A    between atoms: C9_14  and  C10_15 
REMARK    5  A    between atoms: C13_18  and  O2_19 
REMARK    6  A    between atoms: O2_19  and  C14_20 
REMARK    7  A    between atoms: C23_29  and  N4_30 
ROOT
HETATM    1  C1  UNL     1      12.837  -2.437  35.730  1.00  0.00     0.112 C 
HETATM    2  C2  UNL     1      11.712  -2.826  34.882  1.00  0.00    -0.101 C 
HETATM    3  C3  UNL     1      10.787  -3.135  34.180  1.00  0.00    -0.006 C 
ENDROOT
BRANCH   3   4
HETATM    4  C4  UNL     1       9.674  -3.512  33.336  1.00  0.00     0.296 C 
HETATM    5  O1  UNL     1       8.551  -3.602  33.812  1.00  0.00    -0.258 OA
HETATM    6  N1  UNL     1      10.001  -3.753  32.024  1.00  0.00    -0.346 N 
HETATM    7  H4  UNL     1      10.986  -3.786  31.796  1.00  0.00     0.163 HD
BRANCH   6   8
HETATM    8  C5  UNL     1       9.034  -4.286  31.080  1.00  0.00     0.085 C 
HETATM    9  C6  UNL     1       9.751  -4.988  29.915  1.00  0.00     0.027 C 
HETATM   10  C7  UNL     1       8.946  -6.133  29.298  1.00  0.00     0.029 C 
HETATM   11  C8  UNL     1       7.435  -5.876  29.368  1.00  0.00     0.110 C 
HETATM   12  C26 UNL     1       6.952  -5.711  30.819  1.00  0.00     0.029 C 
HETATM   13  C27 UNL     1       8.046  -5.225  31.776  1.00  0.00     0.027 C 
BRANCH  11  14
HETATM   14  N2  UNL     1       6.670  -6.900  28.665  1.00  0.00    -0.270 N 
HETATM   15  N3  UNL     1       5.390  -6.660  28.303  1.00  0.00    -0.295 N 
HETATM   16  C9  UNL     1       4.997  -7.805  27.722  1.00  0.00     0.076 A 
ATOM     17  H3  UNL     1       4.848  -5.807  28.439  1.00  0.00     0.187 HD
HETATM   18  C22 UNL     1       6.047  -8.764  27.680  1.00  0.00     0.082 A 
HETATM   19  C23 UNL     1       6.264 -10.064  27.208  1.00  0.00     0.116 A 
HETATM   20  C25 UNL     1       7.113  -8.144  28.308  1.00  0.00     0.140 A 
HETATM   21  N5  UNL     1       7.471 -10.630  27.411  1.00  0.00    -0.338 N 
HETATM   22  C24 UNL     1       8.424  -9.913  28.039  1.00  0.00     0.183 A 
ATOM     23  H5  UNL     1       7.659 -11.582  27.095  1.00  0.00     0.168 HD
HETATM   24  N6  UNL     1       8.334  -8.664  28.523  1.00  0.00    -0.337 N 
ATOM     25  H6  UNL     1       9.094  -8.173  28.994  1.00  0.00     0.168 HD
BRANCH  16  26
HETATM   26  C10 UNL     1       3.635  -7.956  27.238  1.00  0.00    -0.007 A 
HETATM   27  C11 UNL     1       2.555  -7.598  28.052  1.00  0.00     0.016 A 
HETATM   28  C12 UNL     1       1.248  -7.730  27.576  1.00  0.00     0.038 A 
HETATM   29  C13 UNL     1       1.018  -8.211  26.286  1.00  0.00     0.076 A 
HETATM   30  C20 UNL     1       2.093  -8.600  25.480  1.00  0.00     0.038 A 
HETATM   31  C21 UNL     1       3.400  -8.466  25.954  1.00  0.00     0.016 A 
BRANCH  29  32
HETATM   32  O2  UNL     1      -0.298  -8.347  25.904  1.00  0.00    -0.311 OA
BRANCH  32  33
HETATM   33  C14 UNL     1      -0.583  -8.212  24.565  1.00  0.00     0.076 A 
HETATM   34  C15 UNL     1      -1.854  -7.855  24.108  1.00  0.00     0.037 A 
HETATM   35  C16 UNL     1      -2.097  -7.770  22.736  1.00  0.00     0.003 A 
HETATM   36  C17 UNL     1      -1.075  -8.055  21.827  1.00  0.00     0.000 A 
HETATM   37  C18 UNL     1       0.187  -8.434  22.287  1.00  0.00     0.003 A 
HETATM   38  C19 UNL     1       0.432  -8.521  23.659  1.00  0.00     0.037 A 
ENDBRANCH  32  33
ENDBRANCH  29  32
ENDBRANCH  16  26
BRANCH  19  39
HETATM   39  N4  UNL     1       5.324 -10.826  26.537  1.00  0.00    -0.385 N 
HETATM   40  H20 UNL     1       5.566 -11.809  26.518  1.00  0.00     0.157 HD
HETATM   41  H21 UNL     1       4.350 -10.584  26.651  1.00  0.00     0.157 HD
ENDBRANCH  19  39
ENDBRANCH  11  14
ENDBRANCH   6   8
ENDBRANCH   3   4
TORSDOF 7
ENDMDL
MODEL 7
REMARK minimizedAffinity -8.330369
REMARK  7 active torsions:
REMARK  status: ('A' for Active; 'I' for Inactive)
REMARK    1  A    between atoms: C3_3  and  C4_4 
REMARK       I    between atoms: C4_4  and  N1_6 
REMARK    2  A    between atoms: N1_6  and  C5_7 
REMARK    3  A    between atoms: C8_10  and  N2_11 
REMARK    4  A    between atoms: C9_14  and  C10_15 
REMARK    5  A    between atoms: C13_18  and  O2_19 
REMARK    6  A    between atoms: O2_19  and  C14_20 
REMARK    7  A    between atoms: C23_29  and  N4_30 
ROOT
HETATM    1  C1  UNL     1      12.151  -2.407  34.681  1.00  0.00     0.112 C 
HETATM    2  C2  UNL     1      11.032  -2.713  33.791  1.00  0.00    -0.101 C 
HETATM    3  C3  UNL     1      10.108  -2.954  33.061  1.00  0.00    -0.006 C 
ENDROOT
BRANCH   3   4
HETATM    4  C4  UNL     1       8.998  -3.247  32.181  1.00  0.00     0.296 C 
HETATM    5  O1  UNL     1       7.940  -2.650  32.315  1.00  0.00    -0.258 OA
HETATM    6  N1  UNL     1       9.247  -4.219  31.243  1.00  0.00    -0.346 N 
HETATM    7  H4  UNL     1      10.113  -4.735  31.336  1.00  0.00     0.163 HD
BRANCH   6   8
HETATM    8  C5  UNL     1       8.199  -4.740  30.383  1.00  0.00     0.085 C 
HETATM    9  C6  UNL     1       8.803  -5.358  29.112  1.00  0.00     0.027 C 
HETATM   10  C7  UNL     1       7.970  -6.501  28.528  1.00  0.00     0.029 C 
HETATM   11  C8  UNL     1       6.469  -6.301  28.775  1.00  0.00     0.110 C 
HETATM   12  C26 UNL     1       6.144  -6.224  30.277  1.00  0.00     0.029 C 
HETATM   13  C27 UNL     1       7.322  -5.746  31.133  1.00  0.00     0.027 C 
BRANCH  11  14
HETATM   14  N2  UNL     1       5.663  -7.316  28.107  1.00  0.00    -0.270 N 
HETATM   15  N3  UNL     1       4.343  -7.107  27.903  1.00  0.00    -0.295 N 
HETATM   16  C9  UNL     1       3.923  -8.236  27.308  1.00  0.00     0.076 A 
ATOM     17  H3  UNL     1       3.792  -6.283  28.145  1.00  0.00     0.187 HD
HETATM   18  C22 UNL     1       4.992  -9.151  27.099  1.00  0.00     0.082 A 
HETATM   19  C23 UNL     1       5.194 -10.416  26.535  1.00  0.00     0.116 A 
HETATM   20  C25 UNL     1       6.102  -8.523  27.636  1.00  0.00     0.140 A 
HETATM   21  N5  UNL     1       6.434 -10.947  26.572  1.00  0.00    -0.338 N 
HETATM   22  C24 UNL     1       7.429 -10.226  27.127  1.00  0.00     0.183 A 
ATOM     23  H5  UNL     1       6.615 -11.873  26.186  1.00  0.00     0.168 HD
HETATM   24  N6  UNL     1       7.355  -9.007  27.686  1.00  0.00    -0.337 N 
ATOM     25  H6  UNL     1       8.147  -8.513  28.095  1.00  0.00     0.168 HD
BRANCH  16  26
HETATM   26  C10 UNL     1       2.520  -8.412  26.971  1.00  0.00    -0.007 A 
HETATM   27  C11 UNL     1       2.148  -8.777  25.672  1.00  0.00     0.016 A 
HETATM   28  C12 UNL     1       0.800  -8.961  25.358  1.00  0.00     0.038 A 
HETATM   29  C13 UNL     1      -0.178  -8.788  26.340  1.00  0.00     0.076 A 
HETATM   30  C20 UNL     1       0.186  -8.393  27.631  1.00  0.00     0.038 A 
HETATM   31  C21 UNL     1       1.535  -8.212  27.947  1.00  0.00     0.016 A 
BRANCH  29  32
HETATM   32  O2  UNL     1      -1.486  -8.952  25.942  1.00  0.00    -0.311 OA
BRANCH  32  33
HETATM   33  C14 UNL     1      -1.897  -8.258  24.827  1.00  0.00     0.076 A 
HETATM   34  C15 UNL     1      -3.234  -8.229  24.421  1.00  0.00     0.037 A 
HETATM   35  C16 UNL     1      -3.589  -7.540  23.260  1.00  0.00     0.003 A 
HETATM   36  C17 UNL     1      -2.608  -6.896  22.502  1.00  0.00     0.000 A 
HETATM   37  C18 UNL     1      -1.270  -6.947  22.898  1.00  0.00     0.003 A 
HETATM   38  C19 UNL     1      -0.912  -7.636  24.058  1.00  0.00     0.037 A 
ENDBRANCH  32  33
ENDBRANCH  29  32
ENDBRANCH  16  26
BRANCH  19  39
HETATM   39  N4  UNL     1       4.209 -11.178  25.932  1.00  0.00    -0.385 N 
HETATM   40  H20 UNL     1       4.478 -12.149  25.834  1.00  0.00     0.157 HD
HETATM   41  H21 UNL     1       3.248 -10.979  26.168  1.00  0.00     0.157 HD
ENDBRANCH  19  39
ENDBRANCH  11  14
ENDBRANCH   6   8
ENDBRANCH   3   4
TORSDOF 7
ENDMDL
MODEL 8
REMARK minimizedAffinity -8.23846054
REMARK  7 active torsions:
REMARK  status: ('A' for Active; 'I' for Inactive)
REMARK    1  A    between atoms: C3_3  and  C4_4 
REMARK       I    between atoms: C4_4  and  N1_6 
REMARK    2  A    between atoms: N1_6  and  C5_7 
REMARK    3  A    between atoms: C8_10  and  N2_11 
REMARK    4  A    between atoms: C9_14  and  C10_15 
REMARK    5  A    between atoms: C13_18  and  O2_19 
REMARK    6  A    between atoms: O2_19  and  C14_20 
REMARK    7  A    between atoms: C23_29  and  N4_30 
ROOT
HETATM    1  C1  UNL     1      -5.885 -12.153  23.742  1.00  0.00     0.112 C 
HETATM    2  C2  UNL     1      -4.591 -11.640  24.187  1.00  0.00    -0.101 C 
HETATM    3  C3  UNL     1      -3.529 -11.207  24.548  1.00  0.00    -0.006 C 
ENDROOT
BRANCH   3   4
HETATM    4  C4  UNL     1      -2.252 -10.690  24.986  1.00  0.00     0.296 C 
HETATM    5  O1  UNL     1      -1.327 -11.459  25.208  1.00  0.00    -0.258 OA
HETATM    6  N1  UNL     1      -2.198  -9.325  25.126  1.00  0.00    -0.346 N 
HETATM    7  H4  UNL     1      -3.073  -8.822  25.052  1.00  0.00     0.163 HD
BRANCH   6   8
HETATM    8  C5  UNL     1      -1.042  -8.659  25.700  1.00  0.00     0.085 C 
HETATM    9  C6  UNL     1      -0.840  -9.093  27.160  1.00  0.00     0.027 C 
HETATM   10  C7  UNL     1       0.620  -9.061  27.616  1.00  0.00     0.029 C 
HETATM   11  C8  UNL     1       1.415  -7.952  26.916  1.00  0.00     0.110 C 
HETATM   12  C26 UNL     1       1.419  -8.131  25.387  1.00  0.00     0.029 C 
HETATM   13  C27 UNL     1       0.212  -8.915  24.861  1.00  0.00     0.027 C 
BRANCH  11  14
HETATM   14  N2  UNL     1       2.770  -7.830  27.441  1.00  0.00    -0.270 N 
HETATM   15  N3  UNL     1       3.103  -6.778  28.222  1.00  0.00    -0.295 N 
HETATM   16  C9  UNL     1       4.405  -6.970  28.489  1.00  0.00     0.076 A 
ATOM     17  H3  UNL     1       2.504  -6.014  28.536  1.00  0.00     0.187 HD
HETATM   18  C22 UNL     1       4.891  -8.174  27.906  1.00  0.00     0.082 A 
HETATM   19  C23 UNL     1       6.085  -8.903  27.845  1.00  0.00     0.116 A 
HETATM   20  C25 UNL     1       3.805  -8.699  27.228  1.00  0.00     0.140 A 
HETATM   21  N5  UNL     1       6.107 -10.042  27.124  1.00  0.00    -0.338 N 
HETATM   22  C24 UNL     1       4.975 -10.442  26.511  1.00  0.00     0.183 A 
ATOM     23  H5  UNL     1       6.964 -10.590  27.044  1.00  0.00     0.168 HD
HETATM   24  N6  UNL     1       3.778  -9.833  26.507  1.00  0.00    -0.337 N 
ATOM     25  H6  UNL     1       2.955 -10.185  26.018  1.00  0.00     0.168 HD
BRANCH  16  26
HETATM   26  C10 UNL     1       5.146  -6.000  29.277  1.00  0.00    -0.007 A 
HETATM   27  C11 UNL     1       4.468  -5.105  30.112  1.00  0.00     0.016 A 
HETATM   28  C12 UNL     1       5.186  -4.185  30.879  1.00  0.00     0.038 A 
HETATM   29  C13 UNL     1       6.580  -4.161  30.819  1.00  0.00     0.076 A 
HETATM   30  C20 UNL     1       7.261  -5.030  29.962  1.00  0.00     0.038 A 
HETATM   31  C21 UNL     1       6.544  -5.954  29.197  1.00  0.00     0.016 A 
BRANCH  29  32
HETATM   32  O2  UNL     1       7.213  -3.200  31.576  1.00  0.00    -0.311 OA
BRANCH  32  33
HETATM   33  C14 UNL     1       8.415  -3.543  32.153  1.00  0.00     0.076 A 
HETATM   34  C15 UNL     1       9.573  -2.785  31.963  1.00  0.00     0.037 A 
HETATM   35  C16 UNL     1      10.774  -3.200  32.541  1.00  0.00     0.003 A 
HETATM   36  C17 UNL     1      10.816  -4.376  33.294  1.00  0.00     0.000 A 
HETATM   37  C18 UNL     1       9.662  -5.143  33.463  1.00  0.00     0.003 A 
HETATM   38  C19 UNL     1       8.460  -4.730  32.884  1.00  0.00     0.037 A 
ENDBRANCH  32  33
ENDBRANCH  29  32
ENDBRANCH  16  26
BRANCH  19  39
HETATM   39  N4  UNL     1       7.261  -8.544  28.479  1.00  0.00    -0.385 N 
HETATM   40  H20 UNL     1       8.065  -9.033  28.106  1.00  0.00     0.157 HD
HETATM   41  H21 UNL     1       7.381  -7.576  28.741  1.00  0.00     0.157 HD
ENDBRANCH  19  39
ENDBRANCH  11  14
ENDBRANCH   6   8
ENDBRANCH   3   4
TORSDOF 7
ENDMDL
MODEL 9
REMARK minimizedAffinity -8.21339798
REMARK  7 active torsions:
REMARK  status: ('A' for Active; 'I' for Inactive)
REMARK    1  A    between atoms: C3_3  and  C4_4 
REMARK       I    between atoms: C4_4  and  N1_6 
REMARK    2  A    between atoms: N1_6  and  C5_7 
REMARK    3  A    between atoms: C8_10  and  N2_11 
REMARK    4  A    between atoms: C9_14  and  C10_15 
REMARK    5  A    between atoms: C13_18  and  O2_19 
REMARK    6  A    between atoms: O2_19  and  C14_20 
REMARK    7  A    between atoms: C23_29  and  N4_30 
ROOT
HETATM    1  C1  UNL     1      13.397  -1.631  36.475  1.00  0.00     0.112 C 
HETATM    2  C2  UNL     1      12.694  -2.334  35.402  1.00  0.00    -0.101 C 
HETATM    3  C3  UNL     1      12.117  -2.901  34.514  1.00  0.00    -0.006 C 
ENDROOT
BRANCH   3   4
HETATM    4  C4  UNL     1      11.423  -3.589  33.447  1.00  0.00     0.296 C 
HETATM    5  O1  UNL     1      10.294  -4.019  33.632  1.00  0.00    -0.258 OA
HETATM    6  N1  UNL     1      12.135  -3.707  32.278  1.00  0.00    -0.346 N 
HETATM    7  H4  UNL     1      13.110  -3.438  32.306  1.00  0.00     0.163 HD
BRANCH   6   8
HETATM    8  C5  UNL     1      11.648  -4.498  31.162  1.00  0.00     0.085 C 
HETATM    9  C6  UNL     1      10.907  -5.746  31.669  1.00  0.00     0.027 C 
HETATM   10  C7  UNL     1       9.801  -6.230  30.729  1.00  0.00     0.029 C 
HETATM   11  C8  UNL     1      10.134  -5.948  29.258  1.00  0.00     0.110 C 
HETATM   12  C26 UNL     1      10.328  -4.444  28.996  1.00  0.00     0.029 C 
HETATM   13  C27 UNL     1      10.762  -3.658  30.238  1.00  0.00     0.027 C 
BRANCH  11  14
HETATM   14  N2  UNL     1       9.148  -6.524  28.351  1.00  0.00    -0.270 N 
HETATM   15  N3  UNL     1       7.860  -6.651  28.742  1.00  0.00    -0.295 N 
HETATM   16  C9  UNL     1       7.258  -7.236  27.693  1.00  0.00     0.076 A 
ATOM     17  H3  UNL     1       7.441  -6.368  29.628  1.00  0.00     0.187 HD
HETATM   18  C22 UNL     1       8.163  -7.445  26.615  1.00  0.00     0.082 A 
HETATM   19  C23 UNL     1       8.142  -7.958  25.313  1.00  0.00     0.116 A 
HETATM   20  C25 UNL     1       9.379  -6.979  27.082  1.00  0.00     0.140 A 
HETATM   21  N5  UNL     1       9.296  -7.986  24.614  1.00  0.00    -0.338 N 
HETATM   22  C24 UNL     1      10.413  -7.499  25.189  1.00  0.00     0.183 A 
ATOM     23  H5  UNL     1       9.321  -8.369  23.668  1.00  0.00     0.168 HD
HETATM   24  N6  UNL     1      10.549  -6.977  26.420  1.00  0.00    -0.337 N 
ATOM     25  H6  UNL     1      11.427  -6.626  26.802  1.00  0.00     0.168 HD
BRANCH  16  26
HETATM   26  C10 UNL     1       5.849  -7.587  27.755  1.00  0.00    -0.007 A 
HETATM   27  C11 UNL     1       4.904  -6.641  28.166  1.00  0.00     0.016 A 
HETATM   28  C12 UNL     1       3.550  -6.979  28.209  1.00  0.00     0.038 A 
HETATM   29  C13 UNL     1       3.136  -8.259  27.834  1.00  0.00     0.076 A 
HETATM   30  C20 UNL     1       4.080  -9.218  27.452  1.00  0.00     0.038 A 
HETATM   31  C21 UNL     1       5.434  -8.879  27.406  1.00  0.00     0.016 A 
BRANCH  29  32
HETATM   32  O2  UNL     1       1.789  -8.526  27.938  1.00  0.00    -0.311 OA
BRANCH  32  33
HETATM   33  C14 UNL     1       1.047  -8.484  26.780  1.00  0.00     0.076 A 
HETATM   34  C15 UNL     1      -0.350  -8.491  26.793  1.00  0.00     0.037 A 
HETATM   35  C16 UNL     1      -1.052  -8.485  25.586  1.00  0.00     0.003 A 
HETATM   36  C17 UNL     1      -0.359  -8.486  24.374  1.00  0.00     0.000 A 
HETATM   37  C18 UNL     1       1.037  -8.502  24.365  1.00  0.00     0.003 A 
HETATM   38  C19 UNL     1       1.742  -8.510  25.571  1.00  0.00     0.037 A 
ENDBRANCH  32  33
ENDBRANCH  29  32
ENDBRANCH  16  26
BRANCH  19  39
HETATM   39  N4  UNL     1       7.016  -8.444  24.674  1.00  0.00    -0.385 N 
HETATM   40  H20 UNL     1       7.244  -9.008  23.865  1.00  0.00     0.157 HD
HETATM   41  H21 UNL     1       6.238  -8.739  25.247  1.00  0.00     0.157 HD
ENDBRANCH  19  39
ENDBRANCH  11  14
ENDBRANCH   6   8
ENDBRANCH   3   4
TORSDOF 7
ENDMDL
