MODEL 1
REMARK minimizedAffinity -7.38813972
REMARK  2 active torsions:
REMARK  status: ('A' for Active; 'I' for Inactive)
REMARK    1  A    between atoms: C5_6  and  N1_7 
REMARK    2  A    between atoms: N1_7  and  C6_8 
ROOT
HETATM    1  C6  UNL     1      10.877  35.140  17.794  1.00  0.00     0.126 A 
HETATM    2  N2  UNL     1       9.999  35.748  16.964  1.00  0.00    -0.337 N 
ATOM      3  H2  UNL     1      10.248  35.920  15.990  1.00  0.00     0.168 HD
HETATM    4  C7  UNL     1       8.801  36.122  17.432  1.00  0.00     0.182 A 
HETATM    5  N3  UNL     1       8.331  35.970  18.670  1.00  0.00    -0.350 N 
ATOM      6  H3  UNL     1       7.403  36.283  18.954  1.00  0.00     0.166 HD
HETATM    7  C8  UNL     1       9.197  35.361  19.520  1.00  0.00     0.067 A 
HETATM    8  C9  UNL     1      10.461  34.939  19.120  1.00  0.00     0.078 A 
HETATM    9  S1  UNL     1      11.309  34.209  20.427  1.00  0.00    -0.066 SA
HETATM   10  C10 UNL     1      10.014  34.453  21.499  1.00  0.00     0.087 A 
HETATM   11  N4  UNL     1      10.104  34.050  22.784  1.00  0.00    -0.360 N 
ATOM     12  H4  UNL     1      10.931  33.591  23.165  1.00  0.00     0.166 HD
HETATM   13  C11 UNL     1       9.002  34.307  23.519  1.00  0.00     0.089 A 
HETATM   14  C12 UNL     1       7.854  34.925  23.056  1.00  0.00     0.018 A 
HETATM   15  C13 UNL     1       7.805  35.325  21.723  1.00  0.00     0.018 A 
HETATM   16  C14 UNL     1       8.929  35.082  20.902  1.00  0.00     0.026 A 
ENDROOT
BRANCH   1  17
HETATM   17  N1  UNL     1      12.148  34.723  17.369  1.00  0.00    -0.341 N 
HETATM   18  H4  UNL     1      12.222  33.715  17.302  1.00  0.00     0.167 HD
BRANCH  17  19
HETATM   19  C5  UNL     1      13.320  35.417  17.024  1.00  0.00     0.034 A 
HETATM   20  C4  UNL     1      13.334  36.682  16.425  1.00  0.00     0.029 A 
HETATM   21  C3  UNL     1      14.536  37.323  16.106  1.00  0.00     0.004 A 
HETATM   22  C2  UNL     1      15.753  36.708  16.380  1.00  0.00     0.019 A 
HETATM   23  C1  UNL     1      15.759  35.452  16.974  1.00  0.00     0.013 A 
HETATM   24 BR1  UNL     1      17.405  34.602  17.354  1.00  0.00    -0.051 Br
HETATM   25  C15 UNL     1      14.559  34.811  17.294  1.00  0.00     0.048 A 
ENDBRANCH  17  19
ENDBRANCH   1  17
TORSDOF 2
ENDMDL
MODEL 2
REMARK minimizedAffinity -7.14691544
REMARK  2 active torsions:
REMARK  status: ('A' for Active; 'I' for Inactive)
REMARK    1  A    between atoms: C5_6  and  N1_7 
REMARK    2  A    between atoms: N1_7  and  C6_8 
ROOT
HETATM    1  C6  UNL     1      12.045  34.521  18.265  1.00  0.00     0.126 A 
HETATM    2  N2  UNL     1      11.573  35.237  17.219  1.00  0.00    -0.337 N 
ATOM      3  H2  UNL     1      12.118  35.309  16.359  1.00  0.00     0.168 HD
HETATM    4  C7  UNL     1      10.386  35.849  17.321  1.00  0.00     0.182 A 
HETATM    5  N3  UNL     1       9.562  35.850  18.369  1.00  0.00    -0.350 N 
ATOM      6  H3  UNL     1       8.669  36.343  18.372  1.00  0.00     0.166 HD
HETATM    7  C8  UNL     1      10.017  35.137  19.431  1.00  0.00     0.067 A 
HETATM    8  C9  UNL     1      11.237  34.469  19.413  1.00  0.00     0.078 A 
HETATM    9  S1  UNL     1      11.520  33.664  20.907  1.00  0.00    -0.066 SA
HETATM   10  C10 UNL     1      10.045  34.198  21.558  1.00  0.00     0.087 A 
HETATM   11  N4  UNL     1       9.685  33.851  22.812  1.00  0.00    -0.360 N 
ATOM     12  H4  UNL     1      10.266  33.269  23.415  1.00  0.00     0.166 HD
HETATM   13  C11 UNL     1       8.490  34.345  23.197  1.00  0.00     0.089 A 
HETATM   14  C12 UNL     1       7.662  35.139  22.424  1.00  0.00     0.018 A 
HETATM   15  C13 UNL     1       8.074  35.472  21.136  1.00  0.00     0.018 A 
HETATM   16  C14 UNL     1       9.317  34.983  20.675  1.00  0.00     0.026 A 
ENDROOT
BRANCH   1  17
HETATM   17  N1  UNL     1      13.280  33.855  18.226  1.00  0.00    -0.341 N 
HETATM   18  H4  UNL     1      13.193  32.899  17.903  1.00  0.00     0.167 HD
BRANCH  17  19
HETATM   19  C5  UNL     1      14.591  34.247  18.540  1.00  0.00     0.034 A 
HETATM   20  C4  UNL     1      15.093  34.328  19.844  1.00  0.00     0.029 A 
HETATM   21  C3  UNL     1      16.413  34.725  20.093  1.00  0.00     0.004 A 
HETATM   22  C2  UNL     1      17.258  35.050  19.038  1.00  0.00     0.019 A 
HETATM   23  C1  UNL     1      16.777  34.975  17.736  1.00  0.00     0.013 A 
HETATM   24 BR1  UNL     1      17.913  35.415  16.289  1.00  0.00    -0.051 Br
HETATM   25  C15 UNL     1      15.460  34.579  17.486  1.00  0.00     0.048 A 
ENDBRANCH  17  19
ENDBRANCH   1  17
TORSDOF 2
ENDMDL
MODEL 3
REMARK minimizedAffinity -7.07879114
REMARK  2 active torsions:
REMARK  status: ('A' for Active; 'I' for Inactive)
REMARK    1  A    between atoms: C5_6  and  N1_7 
REMARK    2  A    between atoms: N1_7  and  C6_8 
ROOT
HETATM    1  C6  UNL     1      12.392  35.471  17.227  1.00  0.00     0.126 A 
HETATM    2  N2  UNL     1      12.043  36.199  16.143  1.00  0.00    -0.337 N 
ATOM      3  H2  UNL     1      11.058  36.337  15.912  1.00  0.00     0.168 HD
HETATM    4  C7  UNL     1      12.998  36.737  15.374  1.00  0.00     0.182 A 
HETATM    5  N3  UNL     1      14.318  36.648  15.541  1.00  0.00    -0.350 N 
ATOM      6  H3  UNL     1      14.988  37.088  14.909  1.00  0.00     0.166 HD
HETATM    7  C8  UNL     1      14.691  35.921  16.625  1.00  0.00     0.067 A 
HETATM    8  C9  UNL     1      13.767  35.327  17.477  1.00  0.00     0.078 A 
HETATM    9  S1  UNL     1      14.558  34.480  18.750  1.00  0.00    -0.066 SA
HETATM   10  C10 UNL     1      16.098  34.901  18.169  1.00  0.00     0.087 A 
HETATM   11  N4  UNL     1      17.209  34.485  18.814  1.00  0.00    -0.360 N 
ATOM     12  H4  UNL     1      17.180  33.912  19.658  1.00  0.00     0.166 HD
HETATM   13  C11 UNL     1      18.361  34.893  18.243  1.00  0.00     0.089 A 
HETATM   14  C12 UNL     1      18.461  35.668  17.101  1.00  0.00     0.018 A 
HETATM   15  C13 UNL     1      17.289  36.075  16.469  1.00  0.00     0.018 A 
HETATM   16  C14 UNL     1      16.049  35.678  17.021  1.00  0.00     0.026 A 
ENDROOT
BRANCH   1  17
HETATM   17  N1  UNL     1      11.442  34.879  18.075  1.00  0.00    -0.341 N 
HETATM   18  H4  UNL     1      11.723  33.957  18.386  1.00  0.00     0.167 HD
BRANCH  17  19
HETATM   19  C5  UNL     1      10.199  35.308  18.569  1.00  0.00     0.034 A 
HETATM   20  C4  UNL     1       9.333  36.161  17.876  1.00  0.00     0.029 A 
HETATM   21  C3  UNL     1       8.104  36.551  18.422  1.00  0.00     0.004 A 
HETATM   22  C2  UNL     1       7.718  36.094  19.677  1.00  0.00     0.019 A 
HETATM   23  C1  UNL     1       8.566  35.245  20.379  1.00  0.00     0.013 A 
HETATM   24 BR1  UNL     1       8.056  34.614  22.088  1.00  0.00    -0.051 Br
HETATM   25  C15 UNL     1       9.792  34.854  19.836  1.00  0.00     0.048 A 
ENDBRANCH  17  19
ENDBRANCH   1  17
TORSDOF 2
ENDMDL
MODEL 4
REMARK minimizedAffinity -7.01875687
REMARK  2 active torsions:
REMARK  status: ('A' for Active; 'I' for Inactive)
REMARK    1  A    between atoms: C5_6  and  N1_7 
REMARK    2  A    between atoms: N1_7  and  C6_8 
ROOT
HETATM    1  C6  UNL     1      12.219  35.656  18.705  1.00  0.00     0.126 A 
HETATM    2  N2  UNL     1      12.418  34.928  19.827  1.00  0.00    -0.337 N 
ATOM      3  H2  UNL     1      11.688  34.869  20.538  1.00  0.00     0.168 HD
HETATM    4  C7  UNL     1      13.581  34.287  20.000  1.00  0.00     0.182 A 
HETATM    5  N3  UNL     1      14.626  34.266  19.172  1.00  0.00    -0.350 N 
ATOM      6  H3  UNL     1      15.483  33.752  19.373  1.00  0.00     0.166 HD
HETATM    7  C8  UNL     1      14.447  34.990  18.037  1.00  0.00     0.067 A 
HETATM    8  C9  UNL     1      13.272  35.687  17.776  1.00  0.00     0.078 A 
HETATM    9  S1  UNL     1      13.363  36.501  16.262  1.00  0.00    -0.066 SA
HETATM   10  C10 UNL     1      14.936  35.931  15.968  1.00  0.00     0.087 A 
HETATM   11  N4  UNL     1      15.584  36.268  14.833  1.00  0.00    -0.360 N 
ATOM     12  H4  UNL     1      15.174  36.867  14.116  1.00  0.00     0.166 HD
HETATM   13  C11 UNL     1      16.824  35.745  14.732  1.00  0.00     0.089 A 
HETATM   14  C12 UNL     1      17.430  34.930  15.672  1.00  0.00     0.018 A 
HETATM   15  C13 UNL     1      16.724  34.608  16.828  1.00  0.00     0.018 A 
HETATM   16  C14 UNL     1      15.419  35.127  16.990  1.00  0.00     0.026 A 
ENDROOT
BRANCH   1  17
HETATM   17  N1  UNL     1      11.025  36.352  18.461  1.00  0.00    -0.341 N 
HETATM   18  H4  UNL     1      11.130  37.060  17.744  1.00  0.00     0.167 HD
BRANCH  17  19
HETATM   19  C5  UNL     1       9.734  36.262  19.006  1.00  0.00     0.034 A 
HETATM   20  C4  UNL     1       8.560  36.503  18.283  1.00  0.00     0.029 A 
HETATM   21  C3  UNL     1       7.300  36.395  18.882  1.00  0.00     0.004 A 
HETATM   22  C2  UNL     1       7.189  36.042  20.223  1.00  0.00     0.019 A 
HETATM   23  C1  UNL     1       8.344  35.799  20.957  1.00  0.00     0.013 A 
HETATM   24 BR1  UNL     1       8.212  35.319  22.781  1.00  0.00    -0.051 Br
HETATM   25  C15 UNL     1       9.603  35.906  20.360  1.00  0.00     0.048 A 
ENDBRANCH  17  19
ENDBRANCH   1  17
TORSDOF 2
ENDMDL
MODEL 5
REMARK minimizedAffinity -6.64354038
REMARK  2 active torsions:
REMARK  status: ('A' for Active; 'I' for Inactive)
REMARK    1  A    between atoms: C5_6  and  N1_7 
REMARK    2  A    between atoms: N1_7  and  C6_8 
ROOT
HETATM    1  C6  UNL     1      12.986  34.880  19.842  1.00  0.00     0.126 A 
HETATM    2  N2  UNL     1      13.617  34.242  20.854  1.00  0.00    -0.337 N 
ATOM      3  H2  UNL     1      13.135  34.078  21.738  1.00  0.00     0.168 HD
HETATM    4  C7  UNL     1      14.880  33.828  20.686  1.00  0.00     0.182 A 
HETATM    5  N3  UNL     1      15.641  33.965  19.600  1.00  0.00    -0.350 N 
ATOM      6  H3  UNL     1      16.600  33.622  19.547  1.00  0.00     0.166 HD
HETATM    7  C8  UNL     1      15.026  34.603  18.571  1.00  0.00     0.067 A 
HETATM    8  C9  UNL     1      13.717  35.067  18.657  1.00  0.00     0.078 A 
HETATM    9  S1  UNL     1      13.236  35.827  17.190  1.00  0.00    -0.066 SA
HETATM   10  C10 UNL     1      14.743  35.540  16.462  1.00  0.00     0.087 A 
HETATM   11  N4  UNL     1      14.980  35.947  15.197  1.00  0.00    -0.360 N 
ATOM     12  H4  UNL     1      14.285  36.435  14.631  1.00  0.00     0.166 HD
HETATM   13  C11 UNL     1      16.218  35.653  14.747  1.00  0.00     0.089 A 
HETATM   14  C12 UNL     1      17.199  34.996  15.469  1.00  0.00     0.018 A 
HETATM   15  C13 UNL     1      16.911  34.595  16.771  1.00  0.00     0.018 A 
HETATM   16  C14 UNL     1      15.630  34.874  17.297  1.00  0.00     0.026 A 
ENDROOT
BRANCH   1  17
HETATM   17  N1  UNL     1      11.665  35.340  19.950  1.00  0.00    -0.341 N 
HETATM   18  H4  UNL     1      11.465  36.098  19.309  1.00  0.00     0.167 HD
BRANCH  17  19
HETATM   19  C5  UNL     1      10.581  34.962  20.759  1.00  0.00     0.034 A 
HETATM   20  C4  UNL     1      10.687  34.667  22.124  1.00  0.00     0.029 A 
HETATM   21  C3  UNL     1       9.567  34.297  22.878  1.00  0.00     0.004 A 
HETATM   22  C2  UNL     1       8.315  34.213  22.279  1.00  0.00     0.019 A 
HETATM   23  C1  UNL     1       8.191  34.502  20.925  1.00  0.00     0.013 A 
HETATM   24 BR1  UNL     1       6.495  34.392  20.095  1.00  0.00    -0.051 Br
HETATM   25  C15 UNL     1       9.307  34.872  20.171  1.00  0.00     0.048 A 
ENDBRANCH  17  19
ENDBRANCH   1  17
TORSDOF 2
ENDMDL
MODEL 6
REMARK minimizedAffinity -6.58734894
REMARK  2 active torsions:
REMARK  status: ('A' for Active; 'I' for Inactive)
REMARK    1  A    between atoms: C5_6  and  N1_7 
REMARK    2  A    between atoms: N1_7  and  C6_8 
ROOT
HETATM    1  C6  UNL     1      12.587  34.525  18.345  1.00  0.00     0.126 A 
HETATM    2  N2  UNL     1      13.244  33.883  19.338  1.00  0.00    -0.337 N 
ATOM      3  H2  UNL     1      14.200  33.557  19.194  1.00  0.00     0.168 HD
HETATM    4  C7  UNL     1      12.630  33.680  20.511  1.00  0.00     0.182 A 
HETATM    5  N3  UNL     1      11.393  34.042  20.852  1.00  0.00    -0.350 N 
ATOM      6  H3  UNL     1      10.993  33.851  21.770  1.00  0.00     0.166 HD
HETATM    7  C8  UNL     1      10.715  34.689  19.869  1.00  0.00     0.067 A 
HETATM    8  C9  UNL     1      11.275  34.943  18.621  1.00  0.00     0.078 A 
HETATM    9  S1  UNL     1      10.162  35.774  17.605  1.00  0.00    -0.066 SA
HETATM   10  C10 UNL     1       8.964  35.792  18.810  1.00  0.00     0.087 A 
HETATM   11  N4  UNL     1       7.763  36.361  18.573  1.00  0.00    -0.360 N 
ATOM     12  H4  UNL     1       7.522  36.797  17.682  1.00  0.00     0.166 HD
HETATM   13  C11 UNL     1       6.911  36.303  19.617  1.00  0.00     0.089 A 
HETATM   14  C12 UNL     1       7.183  35.725  20.844  1.00  0.00     0.018 A 
HETATM   15  C13 UNL     1       8.435  35.149  21.045  1.00  0.00     0.018 A 
HETATM   16  C14 UNL     1       9.372  35.179  19.987  1.00  0.00     0.026 A 
ENDROOT
BRANCH   1  17
HETATM   17  N1  UNL     1      13.170  34.771  17.092  1.00  0.00    -0.341 N 
HETATM   18  H4  UNL     1      12.528  34.602  16.327  1.00  0.00     0.167 HD
BRANCH  17  19
HETATM   19  C5  UNL     1      14.448  35.199  16.697  1.00  0.00     0.034 A 
HETATM   20  C4  UNL     1      14.729  35.782  15.456  1.00  0.00     0.029 A 
HETATM   21  C3  UNL     1      16.026  36.190  15.120  1.00  0.00     0.004 A 
HETATM   22  C2  UNL     1      17.070  36.022  16.024  1.00  0.00     0.019 A 
HETATM   23  C1  UNL     1      16.809  35.446  17.261  1.00  0.00     0.013 A 
HETATM   24 BR1  UNL     1      18.217  35.209  18.501  1.00  0.00    -0.051 Br
HETATM   25  C15 UNL     1      15.515  35.038  17.598  1.00  0.00     0.048 A 
ENDBRANCH  17  19
ENDBRANCH   1  17
TORSDOF 2
ENDMDL
MODEL 7
REMARK minimizedAffinity -6.48466587
REMARK  2 active torsions:
REMARK  status: ('A' for Active; 'I' for Inactive)
REMARK    1  A    between atoms: C5_6  and  N1_7 
REMARK    2  A    between atoms: N1_7  and  C6_8 
ROOT
HETATM    1  C6  UNL     1      17.621  50.225   6.462  1.00  0.00     0.126 A 
HETATM    2  N2  UNL     1      18.621  50.692   7.243  1.00  0.00    -0.337 N 
ATOM      3  H2  UNL     1      18.709  51.693   7.421  1.00  0.00     0.168 HD
HETATM    4  C7  UNL     1      19.495  49.831   7.780  1.00  0.00     0.182 A 
HETATM    5  N3  UNL     1      19.515  48.505   7.643  1.00  0.00    -0.350 N 
ATOM      6  H3  UNL     1      20.217  47.912   8.085  1.00  0.00     0.166 HD
HETATM    7  C8  UNL     1      18.518  48.014   6.862  1.00  0.00     0.067 A 
HETATM    8  C9  UNL     1      17.567  48.835   6.265  1.00  0.00     0.078 A 
HETATM    9  S1  UNL     1      16.446  47.910   5.343  1.00  0.00    -0.066 SA
HETATM   10  C10 UNL     1      17.218  46.449   5.737  1.00  0.00     0.087 A 
HETATM   11  N4  UNL     1      16.748  45.277   5.261  1.00  0.00    -0.360 N 
ATOM     12  H4  UNL     1      15.928  45.212   4.657  1.00  0.00     0.166 HD
HETATM   13  C11 UNL     1      17.457  44.199   5.654  1.00  0.00     0.089 A 
HETATM   14  C12 UNL     1      18.575  44.227   6.470  1.00  0.00     0.018 A 
HETATM   15  C13 UNL     1      19.025  45.459   6.938  1.00  0.00     0.018 A 
HETATM   16  C14 UNL     1      18.322  46.625   6.560  1.00  0.00     0.026 A 
ENDROOT
BRANCH   1  17
HETATM   17  N1  UNL     1      16.672  51.071   5.868  1.00  0.00    -0.341 N 
HETATM   18  H4  UNL     1      15.753  50.648   5.819  1.00  0.00     0.167 HD
BRANCH  17  19
HETATM   19  C5  UNL     1      16.743  52.370   5.338  1.00  0.00     0.034 A 
HETATM   20  C4  UNL     1      17.940  53.015   5.005  1.00  0.00     0.029 A 
HETATM   21  C3  UNL     1      17.946  54.312   4.478  1.00  0.00     0.004 A 
HETATM   22  C2  UNL     1      16.749  54.992   4.274  1.00  0.00     0.019 A 
HETATM   23  C1  UNL     1      15.551  54.366   4.599  1.00  0.00     0.013 A 
HETATM   24 BR1  UNL     1      13.916  55.276   4.328  1.00  0.00    -0.051 Br
HETATM   25  C15 UNL     1      15.544  53.072   5.125  1.00  0.00     0.048 A 
ENDBRANCH  17  19
ENDBRANCH   1  17
TORSDOF 2
ENDMDL
MODEL 8
REMARK minimizedAffinity -6.47607565
REMARK  2 active torsions:
REMARK  status: ('A' for Active; 'I' for Inactive)
REMARK    1  A    between atoms: C5_6  and  N1_7 
REMARK    2  A    between atoms: N1_7  and  C6_8 
ROOT
HETATM    1  C6  UNL     1      11.399  34.585  19.420  1.00  0.00     0.126 A 
HETATM    2  N2  UNL     1      10.424  35.110  18.644  1.00  0.00    -0.337 N 
ATOM      3  H2  UNL     1       9.459  35.128  18.974  1.00  0.00     0.168 HD
HETATM    4  C7  UNL     1      10.735  35.605  17.438  1.00  0.00     0.182 A 
HETATM    5  N3  UNL     1      11.939  35.654  16.868  1.00  0.00    -0.350 N 
ATOM      6  H3  UNL     1      12.098  36.048  15.941  1.00  0.00     0.166 HD
HETATM    7  C8  UNL     1      12.934  35.132  17.631  1.00  0.00     0.067 A 
HETATM    8  C9  UNL     1      12.702  34.597  18.894  1.00  0.00     0.078 A 
HETATM    9  S1  UNL     1      14.163  34.020  19.596  1.00  0.00    -0.066 SA
HETATM   10  C10 UNL     1      15.080  34.477  18.241  1.00  0.00     0.087 A 
HETATM   11  N4  UNL     1      16.411  34.258  18.210  1.00  0.00    -0.360 N 
ATOM     12  H4  UNL     1      16.920  33.818  18.977  1.00  0.00     0.166 HD
HETATM   13  C11 UNL     1      17.011  34.671  17.074  1.00  0.00     0.089 A 
HETATM   14  C12 UNL     1      16.373  35.272  16.002  1.00  0.00     0.018 A 
HETATM   15  C13 UNL     1      14.998  35.478  16.078  1.00  0.00     0.018 A 
HETATM   16  C14 UNL     1      14.314  35.066  17.244  1.00  0.00     0.026 A 
ENDROOT
BRANCH   1  17
HETATM   17  N1  UNL     1      11.143  34.050  20.691  1.00  0.00    -0.341 N 
HETATM   18  H4  UNL     1      11.342  33.058  20.741  1.00  0.00     0.167 HD
BRANCH  17  19
HETATM   19  C5  UNL     1      10.674  34.610  21.891  1.00  0.00     0.034 A 
HETATM   20  C4  UNL     1       9.732  33.998  22.726  1.00  0.00     0.029 A 
HETATM   21  C3  UNL     1       9.304  34.607  23.911  1.00  0.00     0.004 A 
HETATM   22  C2  UNL     1       9.813  35.846  24.286  1.00  0.00     0.019 A 
HETATM   23  C1  UNL     1      10.750  36.469  23.469  1.00  0.00     0.013 A 
HETATM   24 BR1  UNL     1      11.451  38.154  23.963  1.00  0.00    -0.051 Br
HETATM   25  C15 UNL     1      11.178  35.862  22.286  1.00  0.00     0.048 A 
ENDBRANCH  17  19
ENDBRANCH   1  17
TORSDOF 2
ENDMDL
MODEL 9
REMARK minimizedAffinity -6.43897104
REMARK  2 active torsions:
REMARK  status: ('A' for Active; 'I' for Inactive)
REMARK    1  A    between atoms: C5_6  and  N1_7 
REMARK    2  A    between atoms: N1_7  and  C6_8 
ROOT
HETATM    1  C6  UNL     1      12.756  34.861  17.938  1.00  0.00     0.126 A 
HETATM    2  N2  UNL     1      12.068  35.600  17.038  1.00  0.00    -0.337 N 
ATOM      3  H2  UNL     1      11.048  35.589  17.037  1.00  0.00     0.168 HD
HETATM    4  C7  UNL     1      12.736  36.345  16.148  1.00  0.00     0.182 A 
HETATM    5  N3  UNL     1      14.058  36.465  16.022  1.00  0.00    -0.350 N 
ATOM      6  H3  UNL     1      14.497  37.056  15.315  1.00  0.00     0.166 HD
HETATM    7  C8  UNL     1      14.769  35.732  16.917  1.00  0.00     0.067 A 
HETATM    8  C9  UNL     1      14.157  34.930  17.875  1.00  0.00     0.078 A 
HETATM    9  S1  UNL     1      15.330  34.134  18.851  1.00  0.00    -0.066 SA
HETATM   10  C10 UNL     1      16.621  34.847  18.009  1.00  0.00     0.087 A 
HETATM   11  N4  UNL     1      17.897  34.575  18.355  1.00  0.00    -0.360 N 
ATOM     12  H4  UNL     1      18.143  33.944  19.118  1.00  0.00     0.166 HD
HETATM   13  C11 UNL     1      18.819  35.211  17.602  1.00  0.00     0.089 A 
HETATM   14  C12 UNL     1      18.544  36.075  16.556  1.00  0.00     0.018 A 
HETATM   15  C13 UNL     1      17.212  36.326  16.234  1.00  0.00     0.018 A 
HETATM   16  C14 UNL     1      16.201  35.689  16.988  1.00  0.00     0.026 A 
ENDROOT
BRANCH   1  17
HETATM   17  N1  UNL     1      12.119  34.059  18.897  1.00  0.00    -0.341 N 
HETATM   18  H4  UNL     1      12.502  33.122  18.934  1.00  0.00     0.167 HD
BRANCH  17  19
HETATM   19  C5  UNL     1      11.070  34.294  19.802  1.00  0.00     0.034 A 
HETATM   20  C4  UNL     1      11.089  33.894  21.143  1.00  0.00     0.029 A 
HETATM   21  C3  UNL     1      10.012  34.160  21.997  1.00  0.00     0.004 A 
HETATM   22  C2  UNL     1       8.892  34.835  21.524  1.00  0.00     0.019 A 
HETATM   23  C1  UNL     1       8.856  35.240  20.195  1.00  0.00     0.013 A 
HETATM   24 BR1  UNL     1       7.340  36.157  19.535  1.00  0.00    -0.051 Br
HETATM   25  C15 UNL     1       9.930  34.975  19.341  1.00  0.00     0.048 A 
ENDBRANCH  17  19
ENDBRANCH   1  17
TORSDOF 2
ENDMDL
