MODEL 1
REMARK minimizedAffinity -6.38196707
REMARK CNNscore 0.370899349
REMARK CNNaffinity 6.08773851
REMARK  1 active torsions:
REMARK  status: ('A' for Active; 'I' for Inactive)
REMARK    1  A    between atoms: C2_2  and  C3_3 
REMARK       I    between atoms: C3_3  and  N1_5 
ROOT
HETATM    1  C3  UNL     1     -19.356  -4.985  25.287  1.00  0.00     0.247 C 
HETATM    2  O1  UNL     1     -19.771  -3.909  25.717  1.00  0.00    -0.268 OA
HETATM    3  N1  UNL     1     -18.065  -5.471  25.527  1.00  0.00    -0.315 N 
HETATM    4  C4  UNL     1     -17.092  -4.489  26.021  1.00  0.00     0.132 C 
HETATM    5  C5  UNL     1     -16.938  -4.519  27.545  1.00  0.00     0.020 C 
HETATM    6  C6  UNL     1     -16.145  -3.307  28.044  1.00  0.00     0.002 C 
HETATM    7  C7  UNL     1     -15.721  -3.426  29.512  1.00  0.00     0.000 C 
HETATM    8  C8  UNL     1     -14.546  -4.391  29.683  1.00  0.00     0.002 C 
HETATM    9  C9  UNL     1     -14.079  -4.503  31.137  1.00  0.00     0.020 C 
HETATM   10  C10 UNL     1     -12.788  -5.319  31.277  1.00  0.00     0.128 C 
HETATM   11  N2  UNL     1     -12.939  -6.716  30.905  1.00  0.00    -0.355 N 
HETATM   12  C11 UNL     1     -12.781  -7.184  29.626  1.00  0.00     0.106 A 
HETATM   13  C12 UNL     1     -13.088  -8.528  29.615  1.00  0.00     0.019 A 
HETATM   14  C13 UNL     1     -13.374  -8.908  30.962  1.00  0.00     0.005 A 
HETATM   15  C14 UNL     1     -13.743 -10.121  31.584  1.00  0.00     0.014 A 
HETATM   16  C15 UNL     1     -13.974 -10.154  32.962  1.00  0.00     0.001 A 
HETATM   17  C16 UNL     1     -13.855  -8.998  33.726  1.00  0.00     0.002 A 
HETATM   18  C17 UNL     1     -13.507  -7.779  33.137  1.00  0.00     0.030 A 
HETATM   19  C18 UNL     1     -13.269  -7.755  31.753  1.00  0.00     0.045 A 
HETATM   20  C19 UNL     1     -13.107  -9.303  28.390  1.00  0.00     0.048 A 
HETATM   21  C20 UNL     1     -12.372 -10.459  28.276  1.00  0.00     0.047 A 
HETATM   22  C21 UNL     1     -12.471 -11.093  27.064  1.00  0.00     0.093 A 
HETATM   23  N3  UNL     1     -13.239 -10.648  26.051  1.00  0.00    -0.342 N 
ATOM     24  H3  UNL     1     -13.292 -11.148  25.164  1.00  0.00     0.167 HD
HETATM   25  C22 UNL     1     -13.930  -9.516  26.262  1.00  0.00     0.162 A 
HETATM   26  N4  UNL     1     -13.880  -8.813  27.400  1.00  0.00    -0.332 N 
ATOM     27  H4  UNL     1     -14.403  -7.945  27.514  1.00  0.00     0.168 HD
HETATM   28  N5  UNL     1     -14.769  -9.109  25.206  1.00  0.00    -0.230 NA
HETATM   29  C23 UNL     1     -16.097  -8.685  25.448  1.00  0.00     0.017 A 
HETATM   30  C24 UNL     1     -17.083  -9.605  25.819  1.00  0.00     0.024 A 
HETATM   31  C25 UNL     1     -18.375  -9.172  26.093  1.00  0.00     0.004 A 
HETATM   32  C26 UNL     1     -18.693  -7.816  25.995  1.00  0.00     0.030 A 
HETATM   33  C27 UNL     1     -17.729  -6.868  25.615  1.00  0.00     0.039 A 
HETATM   34  C28 UNL     1     -16.423  -7.321  25.373  1.00  0.00     0.053 A 
HETATM   35  H25 UNL     1     -14.762  -9.938  24.618  1.00  0.00     0.136 HD
ENDROOT
BRANCH   1  36
HETATM   36  C2  UNL     1     -20.193  -5.779  24.336  1.00  0.00     0.064 C 
HETATM   37  C1  UNL     1     -21.058  -5.172  23.512  1.00  0.00     0.017 C 
ENDBRANCH   1  36
TORSDOF 1
ENDMDL
MODEL 2
REMARK minimizedAffinity -6.98553753
REMARK CNNscore 0.288832426
REMARK CNNaffinity 6.09653711
REMARK  1 active torsions:
REMARK  status: ('A' for Active; 'I' for Inactive)
REMARK    1  A    between atoms: C2_2  and  C3_3 
REMARK       I    between atoms: C3_3  and  N1_5 
ROOT
HETATM    1  C3  UNL     1     -15.267   3.632  32.299  1.00  0.00     0.247 C 
HETATM    2  O1  UNL     1     -15.748   4.459  33.073  1.00  0.00    -0.268 OA
HETATM    3  N1  UNL     1     -15.453   3.668  30.912  1.00  0.00    -0.315 N 
HETATM    4  C4  UNL     1     -16.539   4.531  30.433  1.00  0.00     0.132 C 
HETATM    5  C5  UNL     1     -16.049   5.911  29.984  1.00  0.00     0.020 C 
HETATM    6  C6  UNL     1     -17.223   6.871  29.766  1.00  0.00     0.002 C 
HETATM    7  C7  UNL     1     -16.820   8.167  29.055  1.00  0.00     0.000 C 
HETATM    8  C8  UNL     1     -16.596   7.941  27.558  1.00  0.00     0.002 C 
HETATM    9  C9  UNL     1     -16.224   9.228  26.816  1.00  0.00     0.020 C 
HETATM   10  C10 UNL     1     -16.187   9.037  25.295  1.00  0.00     0.128 C 
HETATM   11  N2  UNL     1     -15.147   8.125  24.847  1.00  0.00    -0.355 N 
HETATM   12  C11 UNL     1     -15.317   6.769  24.746  1.00  0.00     0.106 A 
HETATM   13  C12 UNL     1     -14.110   6.206  24.387  1.00  0.00     0.019 A 
HETATM   14  C13 UNL     1     -13.186   7.278  24.190  1.00  0.00     0.005 A 
HETATM   15  C14 UNL     1     -11.824   7.345  23.820  1.00  0.00     0.014 A 
HETATM   16  C15 UNL     1     -11.189   8.587  23.732  1.00  0.00     0.001 A 
HETATM   17  C16 UNL     1     -11.883   9.758  24.017  1.00  0.00     0.002 A 
HETATM   18  C17 UNL     1     -13.227   9.722  24.400  1.00  0.00     0.030 A 
HETATM   19  C18 UNL     1     -13.861   8.471  24.480  1.00  0.00     0.045 A 
HETATM   20  C19 UNL     1     -13.930   4.772  24.285  1.00  0.00     0.048 A 
HETATM   21  C20 UNL     1     -13.435   4.203  23.135  1.00  0.00     0.047 A 
HETATM   22  C21 UNL     1     -13.321   2.838  23.165  1.00  0.00     0.093 A 
HETATM   23  N3  UNL     1     -13.644   2.086  24.234  1.00  0.00    -0.342 N 
ATOM     24  H3  UNL     1     -13.541   1.071  24.224  1.00  0.00     0.167 HD
HETATM   25  C22 UNL     1     -14.107   2.733  25.317  1.00  0.00     0.162 A 
HETATM   26  N4  UNL     1     -14.277   4.059  25.375  1.00  0.00    -0.332 N 
ATOM     27  H4  UNL     1     -14.653   4.512  26.209  1.00  0.00     0.168 HD
HETATM   28  N5  UNL     1     -14.380   1.926  26.438  1.00  0.00    -0.230 NA
HETATM   29  C23 UNL     1     -13.954   2.305  27.734  1.00  0.00     0.017 A 
HETATM   30  C24 UNL     1     -12.601   2.257  28.082  1.00  0.00     0.024 A 
HETATM   31  C25 UNL     1     -12.188   2.670  29.344  1.00  0.00     0.004 A 
HETATM   32  C26 UNL     1     -13.128   3.130  30.269  1.00  0.00     0.030 A 
HETATM   33  C27 UNL     1     -14.495   3.181  29.955  1.00  0.00     0.039 A 
HETATM   34  C28 UNL     1     -14.887   2.790  28.665  1.00  0.00     0.053 A 
HETATM   35  H25 UNL     1     -13.943   1.051  26.163  1.00  0.00     0.136 HD
ENDROOT
BRANCH   1  36
HETATM   36  C2  UNL     1     -14.561   2.431  32.840  1.00  0.00     0.064 C 
HETATM   37  C1  UNL     1     -15.221   1.508  33.551  1.00  0.00     0.017 C 
ENDBRANCH   1  36
TORSDOF 1
ENDMDL
MODEL 3
REMARK minimizedAffinity -6.70582056
REMARK CNNscore 0.183768138
REMARK CNNaffinity 5.75260782
REMARK  1 active torsions:
REMARK  status: ('A' for Active; 'I' for Inactive)
REMARK    1  A    between atoms: C2_2  and  C3_3 
REMARK       I    between atoms: C3_3  and  N1_5 
ROOT
HETATM    1  C3  UNL     1     -13.225   9.129  20.620  1.00  0.00     0.247 C 
HETATM    2  O1  UNL     1     -12.769   8.487  19.675  1.00  0.00    -0.268 OA
HETATM    3  N1  UNL     1     -14.033   8.573  21.618  1.00  0.00    -0.315 N 
HETATM    4  C4  UNL     1     -14.618   7.261  21.313  1.00  0.00     0.132 C 
HETATM    5  C5  UNL     1     -13.811   6.099  21.900  1.00  0.00     0.020 C 
HETATM    6  C6  UNL     1     -14.279   4.757  21.329  1.00  0.00     0.002 C 
HETATM    7  C7  UNL     1     -13.707   3.549  22.079  1.00  0.00     0.000 C 
HETATM    8  C8  UNL     1     -14.409   3.335  23.421  1.00  0.00     0.002 C 
HETATM    9  C9  UNL     1     -13.879   2.113  24.178  1.00  0.00     0.020 C 
HETATM   10  C10 UNL     1     -14.710   1.793  25.427  1.00  0.00     0.128 C 
HETATM   11  N2  UNL     1     -14.646   2.824  26.449  1.00  0.00    -0.355 N 
HETATM   12  C11 UNL     1     -15.489   3.905  26.492  1.00  0.00     0.106 A 
HETATM   13  C12 UNL     1     -15.090   4.725  27.526  1.00  0.00     0.019 A 
HETATM   14  C13 UNL     1     -14.003   4.075  28.186  1.00  0.00     0.005 A 
HETATM   15  C14 UNL     1     -13.188   4.403  29.292  1.00  0.00     0.014 A 
HETATM   16  C15 UNL     1     -12.166   3.533  29.684  1.00  0.00     0.001 A 
HETATM   17  C16 UNL     1     -11.937   2.352  28.986  1.00  0.00     0.002 A 
HETATM   18  C17 UNL     1     -12.717   2.008  27.879  1.00  0.00     0.030 A 
HETATM   19  C18 UNL     1     -13.746   2.883  27.494  1.00  0.00     0.045 A 
HETATM   20  C19 UNL     1     -15.724   6.003  27.783  1.00  0.00     0.048 A 
HETATM   21  C20 UNL     1     -16.230   6.303  29.025  1.00  0.00     0.047 A 
HETATM   22  C21 UNL     1     -16.810   7.540  29.134  1.00  0.00     0.093 A 
HETATM   23  N3  UNL     1     -16.876   8.424  28.120  1.00  0.00    -0.342 N 
ATOM     24  H3  UNL     1     -17.311   9.339  28.237  1.00  0.00     0.167 HD
HETATM   25  C22 UNL     1     -16.343   8.045  26.946  1.00  0.00     0.162 A 
HETATM   26  N4  UNL     1     -15.777   6.850  26.736  1.00  0.00    -0.332 N 
ATOM     27  H4  UNL     1     -15.403   6.592  25.823  1.00  0.00     0.168 HD
HETATM   28  N5  UNL     1     -16.374   9.012  25.923  1.00  0.00    -0.230 NA
HETATM   29  C23 UNL     1     -15.235   9.268  25.122  1.00  0.00     0.017 A 
HETATM   30  C24 UNL     1     -14.124   9.929  25.655  1.00  0.00     0.024 A 
HETATM   31  C25 UNL     1     -12.995  10.140  24.871  1.00  0.00     0.004 A 
HETATM   32  C26 UNL     1     -12.971   9.695  23.548  1.00  0.00     0.030 A 
HETATM   33  C27 UNL     1     -14.074   9.037  22.980  1.00  0.00     0.039 A 
HETATM   34  C28 UNL     1     -15.191   8.806  23.797  1.00  0.00     0.053 A 
HETATM   35  H25 UNL     1     -16.635   9.844  26.446  1.00  0.00     0.136 HD
ENDROOT
BRANCH   1  36
HETATM   36  C2  UNL     1     -13.047  10.612  20.666  1.00  0.00     0.064 C 
HETATM   37  C1  UNL     1     -13.950  11.429  20.109  1.00  0.00     0.017 C 
ENDBRANCH   1  36
TORSDOF 1
ENDMDL
MODEL 4
REMARK minimizedAffinity -5.87316942
REMARK CNNscore 0.167273313
REMARK CNNaffinity 4.78637838
REMARK  1 active torsions:
REMARK  status: ('A' for Active; 'I' for Inactive)
REMARK    1  A    between atoms: C2_2  and  C3_3 
REMARK       I    between atoms: C3_3  and  N1_5 
ROOT
HETATM    1  C3  UNL     1       0.001  14.322  15.548  1.00  0.00     0.247 C 
HETATM    2  O1  UNL     1      -0.151  13.219  15.023  1.00  0.00    -0.268 OA
HETATM    3  N1  UNL     1       0.143  14.512  16.927  1.00  0.00    -0.315 N 
HETATM    4  C4  UNL     1      -0.250  13.380  17.774  1.00  0.00     0.132 C 
HETATM    5  C5  UNL     1       0.939  12.509  18.193  1.00  0.00     0.020 C 
HETATM    6  C6  UNL     1       0.467  11.196  18.824  1.00  0.00     0.002 C 
HETATM    7  C7  UNL     1       1.594  10.416  19.511  1.00  0.00     0.000 C 
HETATM    8  C8  UNL     1       1.974  11.042  20.854  1.00  0.00     0.002 C 
HETATM    9  C9  UNL     1       3.077  10.262  21.578  1.00  0.00     0.020 C 
HETATM   10  C10 UNL     1       3.321  10.779  23.001  1.00  0.00     0.128 C 
HETATM   11  N2  UNL     1       3.838  12.137  23.047  1.00  0.00    -0.355 N 
HETATM   12  C11 UNL     1       3.043  13.253  23.064  1.00  0.00     0.106 A 
HETATM   13  C12 UNL     1       3.856  14.366  23.011  1.00  0.00     0.019 A 
HETATM   14  C13 UNL     1       5.207  13.903  23.038  1.00  0.00     0.005 A 
HETATM   15  C14 UNL     1       6.465  14.544  23.011  1.00  0.00     0.014 A 
HETATM   16  C15 UNL     1       7.636  13.780  23.031  1.00  0.00     0.001 A 
HETATM   17  C16 UNL     1       7.572  12.391  23.067  1.00  0.00     0.002 A 
HETATM   18  C17 UNL     1       6.342  11.728  23.079  1.00  0.00     0.030 A 
HETATM   19  C18 UNL     1       5.170  12.502  23.065  1.00  0.00     0.045 A 
HETATM   20  C19 UNL     1       3.318  15.709  22.923  1.00  0.00     0.048 A 
HETATM   21  C20 UNL     1       3.686  16.677  23.826  1.00  0.00     0.047 A 
HETATM   22  C21 UNL     1       3.100  17.901  23.638  1.00  0.00     0.093 A 
HETATM   23  N3  UNL     1       2.239  18.169  22.638  1.00  0.00    -0.342 N 
ATOM     24  H3  UNL     1       1.824  19.094  22.524  1.00  0.00     0.167 HD
HETATM   25  C22 UNL     1       1.949  17.161  21.797  1.00  0.00     0.162 A 
HETATM   26  N4  UNL     1       2.451  15.926  21.914  1.00  0.00    -0.332 N 
ATOM     27  H4  UNL     1       2.189  15.182  21.268  1.00  0.00     0.168 HD
HETATM   28  N5  UNL     1       1.092  17.487  20.728  1.00  0.00    -0.230 NA
HETATM   29  C23 UNL     1       1.377  17.068  19.407  1.00  0.00     0.017 A 
HETATM   30  C24 UNL     1       2.426  17.648  18.686  1.00  0.00     0.024 A 
HETATM   31  C25 UNL     1       2.723  17.201  17.404  1.00  0.00     0.004 A 
HETATM   32  C26 UNL     1       1.971  16.174  16.831  1.00  0.00     0.030 A 
HETATM   33  C27 UNL     1       0.905  15.578  17.523  1.00  0.00     0.039 A 
HETATM   34  C28 UNL     1       0.641  16.022  18.829  1.00  0.00     0.053 A 
HETATM   35  H25 UNL     1       1.083  18.503  20.785  1.00  0.00     0.136 HD
ENDROOT
BRANCH   1  36
HETATM   36  C2  UNL     1      -0.106  15.561  14.718  1.00  0.00     0.064 C 
HETATM   37  C1  UNL     1       0.329  15.579  13.452  1.00  0.00     0.017 C 
ENDBRANCH   1  36
TORSDOF 1
ENDMDL
MODEL 5
REMARK minimizedAffinity -6.34723759
REMARK CNNscore 0.166342869
REMARK CNNaffinity 5.23922157
REMARK  1 active torsions:
REMARK  status: ('A' for Active; 'I' for Inactive)
REMARK    1  A    between atoms: C2_2  and  C3_3 
REMARK       I    between atoms: C3_3  and  N1_5 
ROOT
HETATM    1  C3  UNL     1     -12.373   9.738  22.093  1.00  0.00     0.247 C 
HETATM    2  O1  UNL     1     -12.133   9.553  23.286  1.00  0.00    -0.268 OA
HETATM    3  N1  UNL     1     -11.840  10.798  21.350  1.00  0.00    -0.315 N 
HETATM    4  C4  UNL     1     -11.257  11.898  22.128  1.00  0.00     0.132 C 
HETATM    5  C5  UNL     1      -9.736  11.782  22.273  1.00  0.00     0.020 C 
HETATM    6  C6  UNL     1      -9.204  12.770  23.317  1.00  0.00     0.002 C 
HETATM    7  C7  UNL     1      -7.677  12.897  23.304  1.00  0.00     0.000 C 
HETATM    8  C8  UNL     1      -7.191  13.733  22.119  1.00  0.00     0.002 C 
HETATM    9  C9  UNL     1      -5.669  13.905  22.100  1.00  0.00     0.020 C 
HETATM   10  C10 UNL     1      -5.205  14.896  21.026  1.00  0.00     0.128 C 
HETATM   11  N2  UNL     1      -5.469  14.450  19.668  1.00  0.00    -0.355 N 
HETATM   12  C11 UNL     1      -6.644  14.691  19.004  1.00  0.00     0.106 A 
HETATM   13  C12 UNL     1      -6.592  14.049  17.784  1.00  0.00     0.019 A 
HETATM   14  C13 UNL     1      -5.298  13.454  17.675  1.00  0.00     0.005 A 
HETATM   15  C14 UNL     1      -4.652  12.682  16.683  1.00  0.00     0.014 A 
HETATM   16  C15 UNL     1      -3.349  12.223  16.898  1.00  0.00     0.001 A 
HETATM   17  C16 UNL     1      -2.686  12.511  18.086  1.00  0.00     0.002 A 
HETATM   18  C17 UNL     1      -3.304  13.259  19.092  1.00  0.00     0.030 A 
HETATM   19  C18 UNL     1      -4.611  13.723  18.867  1.00  0.00     0.045 A 
HETATM   20  C19 UNL     1      -7.720  14.033  16.874  1.00  0.00     0.048 A 
HETATM   21  C20 UNL     1      -7.582  14.448  15.572  1.00  0.00     0.047 A 
HETATM   22  C21 UNL     1      -8.726  14.391  14.819  1.00  0.00     0.093 A 
HETATM   23  N3  UNL     1      -9.906  13.946  15.290  1.00  0.00    -0.342 N 
ATOM     24  H3  UNL     1     -10.737  13.912  14.699  1.00  0.00     0.167 HD
HETATM   25  C22 UNL     1      -9.940  13.550  16.573  1.00  0.00     0.162 A 
HETATM   26  N4  UNL     1      -8.883  13.591  17.393  1.00  0.00    -0.332 N 
ATOM     27  H4  UNL     1      -8.955  13.302  18.369  1.00  0.00     0.168 HD
HETATM   28  N5  UNL     1     -11.173  13.035  17.019  1.00  0.00    -0.230 NA
HETATM   29  C23 UNL     1     -11.236  11.842  17.779  1.00  0.00     0.017 A 
HETATM   30  C24 UNL     1     -10.983  10.603  17.182  1.00  0.00     0.024 A 
HETATM   31  C25 UNL     1     -11.009   9.441  17.946  1.00  0.00     0.004 A 
HETATM   32  C26 UNL     1     -11.292   9.511  19.312  1.00  0.00     0.030 A 
HETATM   33  C27 UNL     1     -11.561  10.738  19.939  1.00  0.00     0.039 A 
HETATM   34  C28 UNL     1     -11.499  11.902  19.157  1.00  0.00     0.053 A 
HETATM   35  H25 UNL     1     -11.670  12.923  16.139  1.00  0.00     0.136 HD
ENDROOT
BRANCH   1  36
HETATM   36  C2  UNL     1     -13.393   8.894  21.400  1.00  0.00     0.064 C 
HETATM   37  C1  UNL     1     -13.467   7.577  21.634  1.00  0.00     0.017 C 
ENDBRANCH   1  36
TORSDOF 1
ENDMDL
MODEL 6
REMARK minimizedAffinity -5.94810057
REMARK CNNscore 0.159958735
REMARK CNNaffinity 4.81662178
REMARK  1 active torsions:
REMARK  status: ('A' for Active; 'I' for Inactive)
REMARK    1  A    between atoms: C2_2  and  C3_3 
REMARK       I    between atoms: C3_3  and  N1_5 
ROOT
HETATM    1  C3  UNL     1     -11.760   8.733  22.825  1.00  0.00     0.247 C 
HETATM    2  O1  UNL     1     -10.864   9.382  22.285  1.00  0.00    -0.268 OA
HETATM    3  N1  UNL     1     -13.027   8.541  22.262  1.00  0.00    -0.315 N 
HETATM    4  C4  UNL     1     -13.378   9.438  21.154  1.00  0.00     0.132 C 
HETATM    5  C5  UNL     1     -13.130   8.810  19.779  1.00  0.00     0.020 C 
HETATM    6  C6  UNL     1     -13.232   9.859  18.667  1.00  0.00     0.002 C 
HETATM    7  C7  UNL     1     -13.271   9.247  17.262  1.00  0.00     0.000 C 
HETATM    8  C8  UNL     1     -14.640   8.638  16.951  1.00  0.00     0.002 C 
HETATM    9  C9  UNL     1     -14.717   8.048  15.539  1.00  0.00     0.020 C 
HETATM   10  C10 UNL     1     -16.139   7.612  15.164  1.00  0.00     0.128 C 
HETATM   11  N2  UNL     1     -16.644   6.515  15.972  1.00  0.00    -0.355 N 
HETATM   12  C11 UNL     1     -17.297   6.686  17.165  1.00  0.00     0.106 A 
HETATM   13  C12 UNL     1     -17.549   5.442  17.704  1.00  0.00     0.019 A 
HETATM   14  C13 UNL     1     -17.093   4.472  16.760  1.00  0.00     0.005 A 
HETATM   15  C14 UNL     1     -17.075   3.060  16.734  1.00  0.00     0.014 A 
HETATM   16  C15 UNL     1     -16.524   2.392  15.636  1.00  0.00     0.001 A 
HETATM   17  C16 UNL     1     -15.983   3.107  14.573  1.00  0.00     0.002 A 
HETATM   18  C17 UNL     1     -15.972   4.504  14.578  1.00  0.00     0.030 A 
HETATM   19  C18 UNL     1     -16.533   5.169  15.681  1.00  0.00     0.045 A 
HETATM   20  C19 UNL     1     -18.151   5.278  19.013  1.00  0.00     0.048 A 
HETATM   21  C20 UNL     1     -19.279   4.510  19.179  1.00  0.00     0.047 A 
HETATM   22  C21 UNL     1     -19.752   4.443  20.463  1.00  0.00     0.093 A 
HETATM   23  N3  UNL     1     -19.165   5.059  21.507  1.00  0.00    -0.342 N 
ATOM     24  H3  UNL     1     -19.542   4.983  22.452  1.00  0.00     0.167 HD
HETATM   25  C22 UNL     1     -18.059   5.777  21.248  1.00  0.00     0.162 A 
HETATM   26  N4  UNL     1     -17.536   5.922  20.025  1.00  0.00    -0.332 N 
ATOM     27  H4  UNL     1     -16.707   6.495  19.865  1.00  0.00     0.168 HD
HETATM   28  N5  UNL     1     -17.435   6.360  22.367  1.00  0.00    -0.230 NA
HETATM   29  C23 UNL     1     -16.033   6.285  22.545  1.00  0.00     0.017 A 
HETATM   30  C24 UNL     1     -15.421   5.075  22.887  1.00  0.00     0.024 A 
HETATM   31  C25 UNL     1     -14.039   5.003  23.020  1.00  0.00     0.004 A 
HETATM   32  C26 UNL     1     -13.258   6.143  22.815  1.00  0.00     0.030 A 
HETATM   33  C27 UNL     1     -13.842   7.376  22.481  1.00  0.00     0.039 A 
HETATM   34  C28 UNL     1     -15.236   7.419  22.321  1.00  0.00     0.053 A 
HETATM   35  H25 UNL     1     -17.915   5.887  23.129  1.00  0.00     0.136 HD
ENDROOT
BRANCH   1  36
HETATM   36  C2  UNL     1     -11.574   8.228  24.219  1.00  0.00     0.064 C 
HETATM   37  C1  UNL     1     -11.677   9.053  25.269  1.00  0.00     0.017 C 
ENDBRANCH   1  36
TORSDOF 1
ENDMDL
MODEL 7
REMARK minimizedAffinity -7.18171358
REMARK CNNscore 0.151190341
REMARK CNNaffinity 5.62504768
REMARK  1 active torsions:
REMARK  status: ('A' for Active; 'I' for Inactive)
REMARK    1  A    between atoms: C2_2  and  C3_3 
REMARK       I    between atoms: C3_3  and  N1_5 
ROOT
HETATM    1  C3  UNL     1     -15.975   3.835  32.537  1.00  0.00     0.247 C 
HETATM    2  O1  UNL     1     -16.998   4.408  32.912  1.00  0.00    -0.268 OA
HETATM    3  N1  UNL     1     -15.782   3.369  31.231  1.00  0.00    -0.315 N 
HETATM    4  C4  UNL     1     -16.989   3.270  30.401  1.00  0.00     0.132 C 
HETATM    5  C5  UNL     1     -17.187   4.487  29.492  1.00  0.00     0.020 C 
HETATM    6  C6  UNL     1     -18.583   4.485  28.862  1.00  0.00     0.002 C 
HETATM    7  C7  UNL     1     -18.740   5.514  27.737  1.00  0.00     0.000 C 
HETATM    8  C8  UNL     1     -18.050   5.054  26.452  1.00  0.00     0.002 C 
HETATM    9  C9  UNL     1     -18.219   6.050  25.301  1.00  0.00     0.020 C 
HETATM   10  C10 UNL     1     -17.693   5.501  23.969  1.00  0.00     0.128 C 
HETATM   11  N2  UNL     1     -16.257   5.277  23.959  1.00  0.00    -0.355 N 
HETATM   12  C11 UNL     1     -15.666   4.110  24.368  1.00  0.00     0.106 A 
HETATM   13  C12 UNL     1     -14.298   4.275  24.317  1.00  0.00     0.019 A 
HETATM   14  C13 UNL     1     -14.049   5.576  23.782  1.00  0.00     0.005 A 
HETATM   15  C14 UNL     1     -12.878   6.310  23.491  1.00  0.00     0.014 A 
HETATM   16  C15 UNL     1     -12.980   7.606  22.976  1.00  0.00     0.001 A 
HETATM   17  C16 UNL     1     -14.227   8.183  22.758  1.00  0.00     0.002 A 
HETATM   18  C17 UNL     1     -15.403   7.486  23.051  1.00  0.00     0.030 A 
HETATM   19  C18 UNL     1     -15.293   6.182  23.561  1.00  0.00     0.045 A 
HETATM   20  C19 UNL     1     -13.381   3.249  24.775  1.00  0.00     0.048 A 
HETATM   21  C20 UNL     1     -12.384   2.778  23.955  1.00  0.00     0.047 A 
HETATM   22  C21 UNL     1     -11.591   1.804  24.504  1.00  0.00     0.093 A 
HETATM   23  N3  UNL     1     -11.744   1.339  25.759  1.00  0.00    -0.342 N 
ATOM     24  H3  UNL     1     -11.132   0.616  26.138  1.00  0.00     0.167 HD
HETATM   25  C22 UNL     1     -12.740   1.869  26.488  1.00  0.00     0.162 A 
HETATM   26  N4  UNL     1     -13.580   2.805  26.032  1.00  0.00    -0.332 N 
ATOM     27  H4  UNL     1     -14.339   3.167  26.610  1.00  0.00     0.168 HD
HETATM   28  N5  UNL     1     -12.837   1.405  27.814  1.00  0.00    -0.230 NA
HETATM   29  C23 UNL     1     -13.025   2.303  28.893  1.00  0.00     0.017 A 
HETATM   30  C24 UNL     1     -11.988   3.144  29.308  1.00  0.00     0.024 A 
HETATM   31  C25 UNL     1     -12.196   4.051  30.342  1.00  0.00     0.004 A 
HETATM   32  C26 UNL     1     -13.441   4.119  30.970  1.00  0.00     0.030 A 
HETATM   33  C27 UNL     1     -14.500   3.281  30.584  1.00  0.00     0.039 A 
HETATM   34  C28 UNL     1     -14.279   2.396  29.517  1.00  0.00     0.053 A 
HETATM   35  H25 UNL     1     -11.955   0.909  27.915  1.00  0.00     0.136 HD
ENDROOT
BRANCH   1  36
HETATM   36  C2  UNL     1     -14.919   3.472  33.530  1.00  0.00     0.064 C 
HETATM   37  C1  UNL     1     -14.799   2.214  33.975  1.00  0.00     0.017 C 
ENDBRANCH   1  36
TORSDOF 1
ENDMDL
MODEL 8
REMARK minimizedAffinity -6.93882704
REMARK CNNscore 0.139748931
REMARK CNNaffinity 5.16657495
REMARK  1 active torsions:
REMARK  status: ('A' for Active; 'I' for Inactive)
REMARK    1  A    between atoms: C2_2  and  C3_3 
REMARK       I    between atoms: C3_3  and  N1_5 
ROOT
HETATM    1  C3  UNL     1       4.192  11.135  21.709  1.00  0.00     0.247 C 
HETATM    2  O1  UNL     1       4.146   9.997  21.244  1.00  0.00    -0.268 OA
HETATM    3  N1  UNL     1       3.379  12.187  21.269  1.00  0.00    -0.315 N 
HETATM    4  C4  UNL     1       2.705  11.980  19.981  1.00  0.00     0.132 C 
HETATM    5  C5  UNL     1       1.264  11.484  20.137  1.00  0.00     0.020 C 
HETATM    6  C6  UNL     1       0.695  11.010  18.796  1.00  0.00     0.002 C 
HETATM    7  C7  UNL     1      -0.818  10.768  18.834  1.00  0.00     0.000 C 
HETATM    8  C8  UNL     1      -1.599  12.083  18.814  1.00  0.00     0.002 C 
HETATM    9  C9  UNL     1      -3.116  11.870  18.818  1.00  0.00     0.020 C 
HETATM   10  C10 UNL     1      -3.891  13.176  18.607  1.00  0.00     0.128 C 
HETATM   11  N2  UNL     1      -3.724  14.134  19.688  1.00  0.00    -0.355 N 
HETATM   12  C11 UNL     1      -2.711  15.055  19.737  1.00  0.00     0.106 A 
HETATM   13  C12 UNL     1      -2.797  15.731  20.936  1.00  0.00     0.019 A 
HETATM   14  C13 UNL     1      -3.960  15.248  21.611  1.00  0.00     0.005 A 
HETATM   15  C14 UNL     1      -4.571  15.545  22.849  1.00  0.00     0.014 A 
HETATM   16  C15 UNL     1      -5.728  14.860  23.235  1.00  0.00     0.001 A 
HETATM   17  C16 UNL     1      -6.275  13.880  22.414  1.00  0.00     0.002 A 
HETATM   18  C17 UNL     1      -5.684  13.554  21.191  1.00  0.00     0.030 A 
HETATM   19  C18 UNL     1      -4.527  14.251  20.806  1.00  0.00     0.045 A 
HETATM   20  C19 UNL     1      -1.812  16.716  21.338  1.00  0.00     0.048 A 
HETATM   21  C20 UNL     1      -2.191  17.985  21.702  1.00  0.00     0.047 A 
HETATM   22  C21 UNL     1      -1.163  18.821  22.052  1.00  0.00     0.093 A 
HETATM   23  N3  UNL     1       0.131  18.447  22.065  1.00  0.00    -0.342 N 
ATOM     24  H3  UNL     1       0.871  19.094  22.336  1.00  0.00     0.167 HD
HETATM   25  C22 UNL     1       0.402  17.181  21.704  1.00  0.00     0.162 A 
HETATM   26  N4  UNL     1      -0.530  16.299  21.323  1.00  0.00    -0.332 N 
ATOM     27  H4  UNL     1      -0.281  15.353  21.035  1.00  0.00     0.168 HD
HETATM   28  N5  UNL     1       1.756  16.802  21.785  1.00  0.00    -0.230 NA
HETATM   29  C23 UNL     1       2.139  15.571  22.370  1.00  0.00     0.017 A 
HETATM   30  C24 UNL     1       2.047  15.381  23.752  1.00  0.00     0.024 A 
HETATM   31  C25 UNL     1       2.388  14.154  24.312  1.00  0.00     0.004 A 
HETATM   32  C26 UNL     1       2.825  13.111  23.494  1.00  0.00     0.030 A 
HETATM   33  C27 UNL     1       2.938  13.273  22.103  1.00  0.00     0.039 A 
HETATM   34  C28 UNL     1       2.559  14.508  21.555  1.00  0.00     0.053 A 
HETATM   35  H25 UNL     1       2.148  17.581  22.307  1.00  0.00     0.136 HD
ENDROOT
BRANCH   1  36
HETATM   36  C2  UNL     1       5.254  11.492  22.698  1.00  0.00     0.064 C 
HETATM   37  C1  UNL     1       6.367  12.127  22.311  1.00  0.00     0.017 C 
ENDBRANCH   1  36
TORSDOF 1
ENDMDL
MODEL 9
REMARK minimizedAffinity -5.90623379
REMARK CNNscore 0.134651586
REMARK CNNaffinity 4.79738474
REMARK  1 active torsions:
REMARK  status: ('A' for Active; 'I' for Inactive)
REMARK    1  A    between atoms: C2_2  and  C3_3 
REMARK       I    between atoms: C3_3  and  N1_5 
ROOT
HETATM    1  C3  UNL     1      -6.033  17.102  24.145  1.00  0.00     0.247 C 
HETATM    2  O1  UNL     1      -5.598  17.861  25.010  1.00  0.00    -0.268 OA
HETATM    3  N1  UNL     1      -5.333  16.772  22.978  1.00  0.00    -0.315 N 
HETATM    4  C4  UNL     1      -4.198  17.642  22.644  1.00  0.00     0.132 C 
HETATM    5  C5  UNL     1      -2.855  17.074  23.114  1.00  0.00     0.020 C 
HETATM    6  C6  UNL     1      -1.744  18.124  23.009  1.00  0.00     0.002 C 
HETATM    7  C7  UNL     1      -0.340  17.538  23.196  1.00  0.00     0.000 C 
HETATM    8  C8  UNL     1       0.123  16.778  21.952  1.00  0.00     0.002 C 
HETATM    9  C9  UNL     1       1.538  16.210  22.099  1.00  0.00     0.020 C 
HETATM   10  C10 UNL     1       2.070  15.616  20.789  1.00  0.00     0.128 C 
HETATM   11  N2  UNL     1       1.328  14.451  20.334  1.00  0.00    -0.355 N 
HETATM   12  C11 UNL     1       0.214  14.522  19.539  1.00  0.00     0.106 A 
HETATM   13  C12 UNL     1      -0.287  13.247  19.381  1.00  0.00     0.019 A 
HETATM   14  C13 UNL     1       0.606  12.355  20.049  1.00  0.00     0.005 A 
HETATM   15  C14 UNL     1       0.638  10.956  20.238  1.00  0.00     0.014 A 
HETATM   16  C15 UNL     1       1.673  10.379  20.981  1.00  0.00     0.001 A 
HETATM   17  C16 UNL     1       2.666  11.173  21.545  1.00  0.00     0.002 A 
HETATM   18  C17 UNL     1       2.652  12.561  21.388  1.00  0.00     0.030 A 
HETATM   19  C18 UNL     1       1.614  13.134  20.635  1.00  0.00     0.045 A 
HETATM   20  C19 UNL     1      -1.521  12.989  18.664  1.00  0.00     0.048 A 
HETATM   21  C20 UNL     1      -1.557  12.090  17.625  1.00  0.00     0.047 A 
HETATM   22  C21 UNL     1      -2.781  11.943  17.026  1.00  0.00     0.093 A 
HETATM   23  N3  UNL     1      -3.887  12.604  17.419  1.00  0.00    -0.342 N 
ATOM     24  H3  UNL     1      -4.784  12.467  16.953  1.00  0.00     0.167 HD
HETATM   25  C22 UNL     1      -3.755  13.452  18.452  1.00  0.00     0.162 A 
HETATM   26  N4  UNL     1      -2.598  13.682  19.085  1.00  0.00    -0.332 N 
ATOM     27  H4  UNL     1      -2.533  14.351  19.851  1.00  0.00     0.168 HD
HETATM   28  N5  UNL     1      -4.940  14.084  18.877  1.00  0.00    -0.230 NA
HETATM   29  C23 UNL     1      -5.270  14.172  20.251  1.00  0.00     0.017 A 
HETATM   30  C24 UNL     1      -5.671  13.036  20.961  1.00  0.00     0.024 A 
HETATM   31  C25 UNL     1      -5.954  13.126  22.320  1.00  0.00     0.004 A 
HETATM   32  C26 UNL     1      -5.843  14.353  22.976  1.00  0.00     0.030 A 
HETATM   33  C27 UNL     1      -5.454  15.515  22.289  1.00  0.00     0.039 A 
HETATM   34  C28 UNL     1      -5.142  15.396  20.926  1.00  0.00     0.053 A 
HETATM   35  H25 UNL     1      -5.641  13.544  18.377  1.00  0.00     0.136 HD
ENDROOT
BRANCH   1  36
HETATM   36  C2  UNL     1      -7.436  16.595  24.237  1.00  0.00     0.064 C 
HETATM   37  C1  UNL     1      -7.947  16.198  25.410  1.00  0.00     0.017 C 
ENDBRANCH   1  36
TORSDOF 1
ENDMDL
