MODEL 1
REMARK minimizedAffinity -7.79129219
REMARK  4 active torsions:
REMARK  status: ('A' for Active; 'I' for Inactive)
REMARK    1  A    between atoms: N1_1  and  C1_2 
REMARK    2  A    between atoms: C1_2  and  N2_4 
REMARK    3  A    between atoms: C2_7  and  C3_8 
REMARK    4  A    between atoms: C10_16  and  C11_17 
ROOT
HETATM    1  N2  UNL     1      10.464  35.458  18.365  1.00  0.00    -0.258 N 
HETATM    2  N3  UNL     1      11.611  35.638  17.611  1.00  0.00    -0.299 N 
ATOM      3  H3  UNL     1      11.704  36.207  16.769  1.00  0.00     0.187 HD
HETATM    4  C2  UNL     1      12.547  34.940  18.184  1.00  0.00     0.038 C 
HETATM    5  C9  UNL     1      12.105  34.118  19.366  1.00  0.00     0.091 C 
HETATM    6  C10 UNL     1      10.717  34.703  19.605  1.00  0.00     0.150 C 
ENDROOT
BRANCH   6   7
HETATM    7  C11 UNL     1      10.703  35.543  20.883  1.00  0.00    -0.022 A 
HETATM    8  C12 UNL     1      11.569  36.649  21.003  1.00  0.00     0.010 A 
HETATM    9  C13 UNL     1      11.599  37.417  22.162  1.00  0.00     0.002 A 
HETATM   10  C14 UNL     1      10.774  37.088  23.231  1.00  0.00     0.012 A 
HETATM   11  C15 UNL     1       9.911  35.988  23.161  1.00  0.00    -0.025 A 
HETATM   12  C16 UNL     1       9.098  35.673  24.263  1.00  0.00     0.012 A 
HETATM   13  C20 UNL     1       9.863  35.192  21.985  1.00  0.00    -0.018 A 
HETATM   14  C17 UNL     1       8.234  34.582  24.232  1.00  0.00     0.001 A 
HETATM   15  C18 UNL     1       8.173  33.789  23.096  1.00  0.00     0.001 A 
HETATM   16  C19 UNL     1       8.976  34.089  21.991  1.00  0.00     0.013 A 
ENDBRANCH   6   7
BRANCH   1  17
HETATM   17  C1  UNL     1       9.247  35.927  17.901  1.00  0.00     0.187 C 
HETATM   18  S1  UNL     1       8.027  36.620  18.799  1.00  0.00    -0.040 SA
BRANCH  17  19
HETATM   19  N1  UNL     1       9.080  35.777  16.555  1.00  0.00    -0.375 N 
HETATM   20  H1  UNL     1       9.780  35.224  16.077  1.00  0.00     0.158 HD
HETATM   21  H2  UNL     1       8.194  35.982  16.119  1.00  0.00     0.158 HD
ENDBRANCH  17  19
ENDBRANCH   1  17
BRANCH   4  22
HETATM   22  C3  UNL     1      13.944  34.907  17.689  1.00  0.00    -0.012 A 
HETATM   23  C4  UNL     1      14.910  34.209  18.428  1.00  0.00     0.015 A 
HETATM   24  C5  UNL     1      16.235  34.158  17.988  1.00  0.00     0.024 A 
HETATM   25  C6  UNL     1      16.597  34.807  16.810  1.00  0.00     0.034 A 
HETATM   26 CL1  UNL     1      18.228  34.746  16.267  1.00  0.00    -0.084 Cl
HETATM   27  C7  UNL     1      15.646  35.505  16.069  1.00  0.00     0.024 A 
HETATM   28  C8  UNL     1      14.318  35.556  16.507  1.00  0.00     0.015 A 
ENDBRANCH   4  22
TORSDOF 4
ENDMDL
MODEL 2
REMARK minimizedAffinity -7.05657196
REMARK  4 active torsions:
REMARK  status: ('A' for Active; 'I' for Inactive)
REMARK    1  A    between atoms: N1_1  and  C1_2 
REMARK    2  A    between atoms: C1_2  and  N2_4 
REMARK    3  A    between atoms: C2_7  and  C3_8 
REMARK    4  A    between atoms: C10_16  and  C11_17 
ROOT
HETATM    1  N2  UNL     1       1.559  64.633  -3.728  1.00  0.00    -0.258 N 
HETATM    2  N3  UNL     1       1.892  64.698  -5.070  1.00  0.00    -0.299 N 
ATOM      3  H3  UNL     1       1.341  64.345  -5.852  1.00  0.00     0.187 HD
HETATM    4  C2  UNL     1       3.045  65.297  -5.140  1.00  0.00     0.038 C 
HETATM    5  C9  UNL     1       3.678  65.631  -3.815  1.00  0.00     0.091 C 
HETATM    6  C10 UNL     1       2.502  65.380  -2.877  1.00  0.00     0.150 C 
ENDROOT
BRANCH   6   7
HETATM    7  C11 UNL     1       1.963  66.702  -2.328  1.00  0.00    -0.022 A 
HETATM    8  C12 UNL     1       1.309  66.727  -1.080  1.00  0.00     0.010 A 
HETATM    9  C13 UNL     1       0.784  67.908  -0.565  1.00  0.00     0.002 A 
HETATM   10  C14 UNL     1       0.890  69.086  -1.293  1.00  0.00     0.012 A 
HETATM   11  C15 UNL     1       1.516  69.104  -2.546  1.00  0.00    -0.025 A 
HETATM   12  C16 UNL     1       1.596  70.309  -3.264  1.00  0.00     0.012 A 
HETATM   13  C20 UNL     1       2.061  67.909  -3.088  1.00  0.00    -0.018 A 
HETATM   14  C17 UNL     1       2.204  70.362  -4.515  1.00  0.00     0.001 A 
HETATM   15  C18 UNL     1       2.740  69.208  -5.066  1.00  0.00     0.001 A 
HETATM   16  C19 UNL     1       2.668  68.001  -4.364  1.00  0.00     0.013 A 
ENDBRANCH   6   7
BRANCH   1  17
HETATM   17  C1  UNL     1       0.472  63.882  -3.317  1.00  0.00     0.187 C 
HETATM   18  S1  UNL     1      -1.140  64.269  -3.485  1.00  0.00    -0.040 SA
BRANCH  17  19
HETATM   19  N1  UNL     1       0.815  62.708  -2.712  1.00  0.00    -0.375 N 
HETATM   20  H1  UNL     1       1.797  62.583  -2.503  1.00  0.00     0.158 HD
HETATM   21  H2  UNL     1       0.114  62.129  -2.275  1.00  0.00     0.158 HD
ENDBRANCH  17  19
ENDBRANCH   1  17
BRANCH   4  22
HETATM   22  C3  UNL     1       3.722  65.592  -6.425  1.00  0.00    -0.012 A 
HETATM   23  C4  UNL     1       2.948  65.738  -7.584  1.00  0.00     0.015 A 
HETATM   24  C5  UNL     1       3.557  66.018  -8.810  1.00  0.00     0.024 A 
HETATM   25  C6  UNL     1       4.942  66.149  -8.879  1.00  0.00     0.034 A 
HETATM   26 CL1  UNL     1       5.694  66.493 -10.387  1.00  0.00    -0.084 Cl
HETATM   27  C7  UNL     1       5.722  66.004  -7.734  1.00  0.00     0.024 A 
HETATM   28  C8  UNL     1       5.114  65.725  -6.505  1.00  0.00     0.015 A 
ENDBRANCH   4  22
TORSDOF 4
ENDMDL
MODEL 3
REMARK minimizedAffinity -7.02240324
REMARK  4 active torsions:
REMARK  status: ('A' for Active; 'I' for Inactive)
REMARK    1  A    between atoms: N1_1  and  C1_2 
REMARK    2  A    between atoms: C1_2  and  N2_4 
REMARK    3  A    between atoms: C2_7  and  C3_8 
REMARK    4  A    between atoms: C10_16  and  C11_17 
ROOT
HETATM    1  N2  UNL     1      15.139  36.339  15.193  1.00  0.00    -0.258 N 
HETATM    2  N3  UNL     1      15.328  35.450  14.148  1.00  0.00    -0.299 N 
ATOM      3  H3  UNL     1      14.607  34.908  13.672  1.00  0.00     0.187 HD
HETATM    4  C2  UNL     1      16.603  35.440  13.892  1.00  0.00     0.038 C 
HETATM    5  C9  UNL     1      17.451  36.273  14.817  1.00  0.00     0.091 C 
HETATM    6  C10 UNL     1      16.371  37.070  15.539  1.00  0.00     0.150 C 
ENDROOT
BRANCH   6   7
HETATM    7  C11 UNL     1      16.396  38.533  15.093  1.00  0.00    -0.022 A 
HETATM    8  C12 UNL     1      16.798  38.858  13.781  1.00  0.00     0.010 A 
HETATM    9  C13 UNL     1      16.857  40.179  13.353  1.00  0.00     0.002 A 
HETATM   10  C14 UNL     1      16.529  41.206  14.230  1.00  0.00     0.012 A 
HETATM   11  C15 UNL     1      16.142  40.929  15.547  1.00  0.00    -0.025 A 
HETATM   12  C16 UNL     1      15.828  41.990  16.414  1.00  0.00     0.012 A 
HETATM   13  C20 UNL     1      16.072  39.586  16.004  1.00  0.00    -0.018 A 
HETATM   14  C17 UNL     1      15.447  41.753  17.732  1.00  0.00     0.001 A 
HETATM   15  C18 UNL     1      15.375  40.450  18.201  1.00  0.00     0.001 A 
HETATM   16  C19 UNL     1      15.684  39.384  17.351  1.00  0.00     0.013 A 
ENDBRANCH   6   7
BRANCH   1  17
HETATM   17  C1  UNL     1      13.907  36.426  15.817  1.00  0.00     0.187 C 
HETATM   18  S1  UNL     1      13.591  36.284  17.447  1.00  0.00    -0.040 SA
BRANCH  17  19
HETATM   19  N1  UNL     1      12.872  36.651  14.956  1.00  0.00    -0.375 N 
HETATM   20  H1  UNL     1      13.090  36.585  13.969  1.00  0.00     0.158 HD
HETATM   21  H2  UNL     1      11.917  36.626  15.279  1.00  0.00     0.158 HD
ENDBRANCH  17  19
ENDBRANCH   1  17
BRANCH   4  22
HETATM   22  C3  UNL     1      17.199  34.633  12.802  1.00  0.00    -0.012 A 
HETATM   23  C4  UNL     1      16.952  33.254  12.764  1.00  0.00     0.015 A 
HETATM   24  C5  UNL     1      17.499  32.465  11.748  1.00  0.00     0.024 A 
HETATM   25  C6  UNL     1      18.297  33.054  10.770  1.00  0.00     0.034 A 
HETATM   26 CL1  UNL     1      18.972  32.086   9.520  1.00  0.00    -0.084 Cl
HETATM   27  C7  UNL     1      18.551  34.424  10.799  1.00  0.00     0.024 A 
HETATM   28  C8  UNL     1      18.003  35.215  11.815  1.00  0.00     0.015 A 
ENDBRANCH   4  22
TORSDOF 4
ENDMDL
MODEL 4
REMARK minimizedAffinity -6.92087078
REMARK  4 active torsions:
REMARK  status: ('A' for Active; 'I' for Inactive)
REMARK    1  A    between atoms: N1_1  and  C1_2 
REMARK    2  A    between atoms: C1_2  and  N2_4 
REMARK    3  A    between atoms: C2_7  and  C3_8 
REMARK    4  A    between atoms: C10_16  and  C11_17 
ROOT
HETATM    1  N2  UNL     1       1.939  65.321  -4.969  1.00  0.00    -0.258 N 
HETATM    2  N3  UNL     1       2.953  65.016  -5.860  1.00  0.00    -0.299 N 
ATOM      3  H3  UNL     1       2.843  64.690  -6.820  1.00  0.00     0.187 HD
HETATM    4  C2  UNL     1       4.075  65.225  -5.235  1.00  0.00     0.038 C 
HETATM    5  C9  UNL     1       3.941  65.618  -3.787  1.00  0.00     0.091 C 
HETATM    6  C10 UNL     1       2.447  65.916  -3.720  1.00  0.00     0.150 C 
ENDROOT
BRANCH   6   7
HETATM    7  C11 UNL     1       2.206  67.420  -3.579  1.00  0.00    -0.022 A 
HETATM    8  C12 UNL     1       2.575  68.288  -4.627  1.00  0.00     0.010 A 
HETATM    9  C13 UNL     1       2.393  69.663  -4.520  1.00  0.00     0.002 A 
HETATM   10  C14 UNL     1       1.852  70.200  -3.359  1.00  0.00     0.012 A 
HETATM   11  C15 UNL     1       1.488  69.376  -2.286  1.00  0.00    -0.025 A 
HETATM   12  C16 UNL     1       0.954  69.951  -1.120  1.00  0.00     0.012 A 
HETATM   13  C20 UNL     1       1.662  67.969  -2.377  1.00  0.00    -0.018 A 
HETATM   14  C17 UNL     1       0.589  69.163  -0.032  1.00  0.00     0.001 A 
HETATM   15  C18 UNL     1       0.754  67.787  -0.096  1.00  0.00     0.001 A 
HETATM   16  C19 UNL     1       1.283  67.200  -1.250  1.00  0.00     0.013 A 
ENDBRANCH   6   7
BRANCH   1  17
HETATM   17  C1  UNL     1       0.625  65.019  -5.282  1.00  0.00     0.187 C 
HETATM   18  S1  UNL     1      -0.679  65.003  -4.244  1.00  0.00    -0.040 SA
BRANCH  17  19
HETATM   19  N1  UNL     1       0.434  64.705  -6.596  1.00  0.00    -0.375 N 
HETATM   20  H1  UNL     1       1.271  64.587  -7.153  1.00  0.00     0.158 HD
HETATM   21  H2  UNL     1      -0.458  64.363  -6.920  1.00  0.00     0.158 HD
ENDBRANCH  17  19
ENDBRANCH   1  17
BRANCH   4  22
HETATM   22  C3  UNL     1       5.399  65.045  -5.875  1.00  0.00    -0.012 A 
HETATM   23  C4  UNL     1       6.316  64.155  -5.300  1.00  0.00     0.015 A 
HETATM   24  C5  UNL     1       7.573  63.962  -5.880  1.00  0.00     0.024 A 
HETATM   25  C6  UNL     1       7.916  64.662  -7.034  1.00  0.00     0.034 A 
HETATM   26 CL1  UNL     1       9.462  64.427  -7.749  1.00  0.00    -0.084 Cl
HETATM   27  C7  UNL     1       7.013  65.552  -7.613  1.00  0.00     0.024 A 
HETATM   28  C8  UNL     1       5.753  65.745  -7.035  1.00  0.00     0.015 A 
ENDBRANCH   4  22
TORSDOF 4
ENDMDL
MODEL 5
REMARK minimizedAffinity -6.91424751
REMARK  4 active torsions:
REMARK  status: ('A' for Active; 'I' for Inactive)
REMARK    1  A    between atoms: N1_1  and  C1_2 
REMARK    2  A    between atoms: C1_2  and  N2_4 
REMARK    3  A    between atoms: C2_7  and  C3_8 
REMARK    4  A    between atoms: C10_16  and  C11_17 
ROOT
HETATM    1  N2  UNL     1      14.631  35.273  19.126  1.00  0.00    -0.258 N 
HETATM    2  N3  UNL     1      13.352  35.333  19.654  1.00  0.00    -0.299 N 
ATOM      3  H3  UNL     1      13.103  35.379  20.642  1.00  0.00     0.187 HD
HETATM    4  C2  UNL     1      12.531  35.320  18.645  1.00  0.00     0.038 C 
HETATM    5  C9  UNL     1      13.175  35.154  17.293  1.00  0.00     0.091 C 
HETATM    6  C10 UNL     1      14.638  35.379  17.656  1.00  0.00     0.150 C 
ENDROOT
BRANCH   6   7
HETATM    7  C11 UNL     1      15.125  36.723  17.111  1.00  0.00    -0.022 A 
HETATM    8  C12 UNL     1      14.789  37.914  17.786  1.00  0.00     0.010 A 
HETATM    9  C13 UNL     1      15.194  39.154  17.302  1.00  0.00     0.002 A 
HETATM   10  C14 UNL     1      15.930  39.230  16.126  1.00  0.00     0.012 A 
HETATM   11  C15 UNL     1      16.270  38.073  15.414  1.00  0.00    -0.025 A 
HETATM   12  C16 UNL     1      17.005  38.184  14.222  1.00  0.00     0.012 A 
HETATM   13  C20 UNL     1      15.870  36.797  15.893  1.00  0.00    -0.018 A 
HETATM   14  C17 UNL     1      17.354  37.056  13.484  1.00  0.00     0.001 A 
HETATM   15  C18 UNL     1      16.970  35.800  13.930  1.00  0.00     0.001 A 
HETATM   16  C19 UNL     1      16.239  35.673  15.115  1.00  0.00     0.013 A 
ENDBRANCH   6   7
BRANCH   1  17
HETATM   17  C1  UNL     1      15.719  35.083  19.960  1.00  0.00     0.187 C 
HETATM   18  S1  UNL     1      15.983  35.786  21.447  1.00  0.00    -0.040 SA
BRANCH  17  19
HETATM   19  N1  UNL     1      16.647  34.217  19.458  1.00  0.00    -0.375 N 
HETATM   20  H1  UNL     1      16.516  33.930  18.497  1.00  0.00     0.158 HD
HETATM   21  H2  UNL     1      17.532  34.083  19.925  1.00  0.00     0.158 HD
ENDBRANCH  17  19
ENDBRANCH   1  17
BRANCH   4  22
HETATM   22  C3  UNL     1      11.060  35.410  18.803  1.00  0.00    -0.012 A 
HETATM   23  C4  UNL     1      10.294  35.922  17.747  1.00  0.00     0.015 A 
HETATM   24  C5  UNL     1       8.905  36.019  17.864  1.00  0.00     0.024 A 
HETATM   25  C6  UNL     1       8.280  35.608  19.039  1.00  0.00     0.034 A 
HETATM   26 CL1  UNL     1       6.571  35.726  19.186  1.00  0.00    -0.084 Cl
HETATM   27  C7  UNL     1       9.033  35.099  20.097  1.00  0.00     0.024 A 
HETATM   28  C8  UNL     1      10.423  35.000  19.980  1.00  0.00     0.015 A 
ENDBRANCH   4  22
TORSDOF 4
ENDMDL
MODEL 6
REMARK minimizedAffinity -6.88550615
REMARK  4 active torsions:
REMARK  status: ('A' for Active; 'I' for Inactive)
REMARK    1  A    between atoms: N1_1  and  C1_2 
REMARK    2  A    between atoms: C1_2  and  N2_4 
REMARK    3  A    between atoms: C2_7  and  C3_8 
REMARK    4  A    between atoms: C10_16  and  C11_17 
ROOT
HETATM    1  N2  UNL     1      17.768  50.669   5.973  1.00  0.00    -0.258 N 
HETATM    2  N3  UNL     1      16.668  51.410   5.577  1.00  0.00    -0.299 N 
ATOM      3  H3  UNL     1      15.706  51.078   5.497  1.00  0.00     0.187 HD
HETATM    4  C2  UNL     1      17.097  52.611   5.324  1.00  0.00     0.038 C 
HETATM    5  C9  UNL     1      18.588  52.799   5.437  1.00  0.00     0.091 C 
HETATM    6  C10 UNL     1      18.977  51.498   6.131  1.00  0.00     0.150 C 
ENDROOT
BRANCH   6   7
HETATM    7  C11 UNL     1      19.388  51.765   7.579  1.00  0.00    -0.022 A 
HETATM    8  C12 UNL     1      19.769  50.691   8.409  1.00  0.00     0.010 A 
HETATM    9  C13 UNL     1      20.123  50.897   9.737  1.00  0.00     0.002 A 
HETATM   10  C14 UNL     1      20.091  52.180  10.270  1.00  0.00     0.012 A 
HETATM   11  C15 UNL     1      19.701  53.274   9.488  1.00  0.00    -0.025 A 
HETATM   12  C16 UNL     1      19.666  54.557  10.059  1.00  0.00     0.012 A 
HETATM   13  C20 UNL     1      19.339  53.085   8.127  1.00  0.00    -0.018 A 
HETATM   14  C17 UNL     1      19.276  55.666   9.313  1.00  0.00     0.001 A 
HETATM   15  C18 UNL     1      18.914  55.506   7.984  1.00  0.00     0.001 A 
HETATM   16  C19 UNL     1      18.944  54.235   7.401  1.00  0.00     0.013 A 
ENDBRANCH   6   7
BRANCH   1  17
HETATM   17  C1  UNL     1      17.663  49.299   6.131  1.00  0.00     0.187 C 
HETATM   18  S1  UNL     1      18.910  48.195   6.205  1.00  0.00    -0.040 SA
BRANCH  17  19
HETATM   19  N1  UNL     1      16.376  48.856   6.228  1.00  0.00    -0.375 N 
HETATM   20  H1  UNL     1      15.653  49.537   6.033  1.00  0.00     0.158 HD
HETATM   21  H2  UNL     1      16.169  47.868   6.237  1.00  0.00     0.158 HD
ENDBRANCH  17  19
ENDBRANCH   1  17
BRANCH   4  22
HETATM   22  C3  UNL     1      16.202  53.715   4.905  1.00  0.00    -0.012 A 
HETATM   23  C4  UNL     1      14.827  53.610   5.160  1.00  0.00     0.015 A 
HETATM   24  C5  UNL     1      13.958  54.634   4.778  1.00  0.00     0.024 A 
HETATM   25  C6  UNL     1      14.460  55.765   4.139  1.00  0.00     0.034 A 
HETATM   26 CL1  UNL     1      13.391  57.027   3.667  1.00  0.00    -0.084 Cl
HETATM   27  C7  UNL     1      15.824  55.880   3.878  1.00  0.00     0.024 A 
HETATM   28  C8  UNL     1      16.697  54.856   4.261  1.00  0.00     0.015 A 
ENDBRANCH   4  22
TORSDOF 4
ENDMDL
MODEL 7
REMARK minimizedAffinity -6.81560946
REMARK  4 active torsions:
REMARK  status: ('A' for Active; 'I' for Inactive)
REMARK    1  A    between atoms: N1_1  and  C1_2 
REMARK    2  A    between atoms: C1_2  and  N2_4 
REMARK    3  A    between atoms: C2_7  and  C3_8 
REMARK    4  A    between atoms: C10_16  and  C11_17 
ROOT
HETATM    1  N2  UNL     1      12.857  59.529   7.546  1.00  0.00    -0.258 N 
HETATM    2  N3  UNL     1      13.071  58.893   8.757  1.00  0.00    -0.299 N 
ATOM      3  H3  UNL     1      12.373  58.699   9.475  1.00  0.00     0.187 HD
HETATM    4  C2  UNL     1      14.335  58.590   8.801  1.00  0.00     0.038 C 
HETATM    5  C9  UNL     1      15.156  59.080   7.636  1.00  0.00     0.091 C 
HETATM    6  C10 UNL     1      14.048  59.502   6.678  1.00  0.00     0.150 C 
ENDROOT
BRANCH   6   7
HETATM    7  C11 UNL     1      13.961  58.531   5.499  1.00  0.00    -0.022 A 
HETATM    8  C12 UNL     1      14.271  57.169   5.690  1.00  0.00     0.010 A 
HETATM    9  C13 UNL     1      14.227  56.266   4.633  1.00  0.00     0.002 A 
HETATM   10  C14 UNL     1      13.887  56.707   3.360  1.00  0.00     0.012 A 
HETATM   11  C15 UNL     1      13.591  58.055   3.122  1.00  0.00    -0.025 A 
HETATM   12  C16 UNL     1      13.262  58.472   1.821  1.00  0.00     0.012 A 
HETATM   13  C20 UNL     1      13.626  58.993   4.188  1.00  0.00    -0.018 A 
HETATM   14  C17 UNL     1      12.969  59.805   1.545  1.00  0.00     0.001 A 
HETATM   15  C18 UNL     1      13.001  60.740   2.570  1.00  0.00     0.001 A 
HETATM   16  C19 UNL     1      13.326  60.339   3.870  1.00  0.00     0.013 A 
ENDBRANCH   6   7
BRANCH   1  17
HETATM   17  C1  UNL     1      11.643  60.139   7.286  1.00  0.00     0.187 C 
HETATM   18  S1  UNL     1      11.394  61.667   6.671  1.00  0.00    -0.040 SA
BRANCH  17  19
HETATM   19  N1  UNL     1      10.563  59.360   7.588  1.00  0.00    -0.375 N 
HETATM   20  H1  UNL     1      10.758  58.503   8.091  1.00  0.00     0.158 HD
HETATM   21  H2  UNL     1       9.628  59.735   7.544  1.00  0.00     0.158 HD
ENDBRANCH  17  19
ENDBRANCH   1  17
BRANCH   4  22
HETATM   22  C3  UNL     1      14.949  57.859   9.935  1.00  0.00    -0.012 A 
HETATM   23  C4  UNL     1      16.341  57.894  10.092  1.00  0.00     0.015 A 
HETATM   24  C5  UNL     1      16.950  57.216  11.151  1.00  0.00     0.024 A 
HETATM   25  C6  UNL     1      16.168  56.499  12.053  1.00  0.00     0.034 A 
HETATM   26 CL1  UNL     1      16.915  55.664  13.358  1.00  0.00    -0.084 Cl
HETATM   27  C7  UNL     1      14.783  56.456  11.906  1.00  0.00     0.024 A 
HETATM   28  C8  UNL     1      14.171  57.135  10.847  1.00  0.00     0.015 A 
ENDBRANCH   4  22
TORSDOF 4
ENDMDL
MODEL 8
REMARK minimizedAffinity -6.79801416
REMARK  4 active torsions:
REMARK  status: ('A' for Active; 'I' for Inactive)
REMARK    1  A    between atoms: N1_1  and  C1_2 
REMARK    2  A    between atoms: C1_2  and  N2_4 
REMARK    3  A    between atoms: C2_7  and  C3_8 
REMARK    4  A    between atoms: C10_16  and  C11_17 
ROOT
HETATM    1  N2  UNL     1      17.555  50.178   4.921  1.00  0.00    -0.258 N 
HETATM    2  N3  UNL     1      16.575  51.156   4.937  1.00  0.00    -0.299 N 
ATOM      3  H3  UNL     1      15.571  51.015   4.828  1.00  0.00     0.187 HD
HETATM    4  C2  UNL     1      17.184  52.291   5.117  1.00  0.00     0.038 C 
HETATM    5  C9  UNL     1      18.689  52.216   5.154  1.00  0.00     0.091 C 
HETATM    6  C10 UNL     1      18.886  50.708   5.266  1.00  0.00     0.150 C 
ENDROOT
BRANCH   6   7
HETATM    7  C11 UNL     1      19.383  50.336   6.664  1.00  0.00    -0.022 A 
HETATM    8  C12 UNL     1      19.673  48.990   6.968  1.00  0.00     0.010 A 
HETATM    9  C13 UNL     1      20.102  48.615   8.236  1.00  0.00     0.002 A 
HETATM   10  C14 UNL     1      20.237  49.574   9.232  1.00  0.00     0.012 A 
HETATM   11  C15 UNL     1      19.942  50.920   8.979  1.00  0.00    -0.025 A 
HETATM   12  C16 UNL     1      20.077  51.864  10.010  1.00  0.00     0.012 A 
HETATM   13  C20 UNL     1      19.506  51.324   7.689  1.00  0.00    -0.018 A 
HETATM   14  C17 UNL     1      19.785  53.209   9.797  1.00  0.00     0.001 A 
HETATM   15  C18 UNL     1      19.354  53.627   8.547  1.00  0.00     0.001 A 
HETATM   16  C19 UNL     1      19.215  52.699   7.510  1.00  0.00     0.013 A 
ENDBRANCH   6   7
BRANCH   1  17
HETATM   17  C1  UNL     1      17.236  48.881   4.559  1.00  0.00     0.187 C 
HETATM   18  S1  UNL     1      18.251  47.560   4.549  1.00  0.00    -0.040 SA
BRANCH  17  19
HETATM   19  N1  UNL     1      15.936  48.724   4.174  1.00  0.00    -0.375 N 
HETATM   20  H1  UNL     1      15.399  49.575   4.058  1.00  0.00     0.158 HD
HETATM   21  H2  UNL     1      15.614  47.851   3.786  1.00  0.00     0.158 HD
ENDBRANCH  17  19
ENDBRANCH   1  17
BRANCH   4  22
HETATM   22  C3  UNL     1      16.465  53.582   5.231  1.00  0.00    -0.012 A 
HETATM   23  C4  UNL     1      15.080  53.609   5.022  1.00  0.00     0.015 A 
HETATM   24  C5  UNL     1      14.373  54.810   5.124  1.00  0.00     0.024 A 
HETATM   25  C6  UNL     1      15.051  55.987   5.431  1.00  0.00     0.034 A 
HETATM   26 CL1  UNL     1      14.184  57.467   5.555  1.00  0.00    -0.084 Cl
HETATM   27  C7  UNL     1      16.429  55.973   5.638  1.00  0.00     0.024 A 
HETATM   28  C8  UNL     1      17.138  54.771   5.539  1.00  0.00     0.015 A 
ENDBRANCH   4  22
TORSDOF 4
ENDMDL
MODEL 9
REMARK minimizedAffinity -6.75319672
REMARK  4 active torsions:
REMARK  status: ('A' for Active; 'I' for Inactive)
REMARK    1  A    between atoms: N1_1  and  C1_2 
REMARK    2  A    between atoms: C1_2  and  N2_4 
REMARK    3  A    between atoms: C2_7  and  C3_8 
REMARK    4  A    between atoms: C10_16  and  C11_17 
ROOT
HETATM    1  N2  UNL     1      13.005  59.621  -0.019  1.00  0.00    -0.258 N 
HETATM    2  N3  UNL     1      13.236  59.055   1.223  1.00  0.00    -0.299 N 
ATOM      3  H3  UNL     1      13.026  59.470   2.131  1.00  0.00     0.187 HD
HETATM    4  C2  UNL     1      13.772  57.890   1.008  1.00  0.00     0.038 C 
HETATM    5  C9  UNL     1      14.054  57.568  -0.437  1.00  0.00     0.091 C 
HETATM    6  C10 UNL     1      13.278  58.686  -1.124  1.00  0.00     0.150 C 
ENDROOT
BRANCH   6   7
HETATM    7  C11 UNL     1      12.033  58.127  -1.815  1.00  0.00    -0.022 A 
HETATM    8  C12 UNL     1      11.441  56.940  -1.338  1.00  0.00     0.010 A 
HETATM    9  C13 UNL     1      10.325  56.392  -1.960  1.00  0.00     0.002 A 
HETATM   10  C14 UNL     1       9.784  57.011  -3.081  1.00  0.00     0.012 A 
HETATM   11  C15 UNL     1      10.352  58.181  -3.600  1.00  0.00    -0.025 A 
HETATM   12  C16 UNL     1       9.790  58.776  -4.742  1.00  0.00     0.012 A 
HETATM   13  C20 UNL     1      11.490  58.759  -2.977  1.00  0.00    -0.018 A 
HETATM   14  C17 UNL     1      10.332  59.935  -5.290  1.00  0.00     0.001 A 
HETATM   15  C18 UNL     1      11.446  60.515  -4.701  1.00  0.00     0.001 A 
HETATM   16  C19 UNL     1      12.017  59.935  -3.564  1.00  0.00     0.013 A 
ENDBRANCH   6   7
BRANCH   1  17
HETATM   17  C1  UNL     1      12.611  60.944  -0.116  1.00  0.00     0.187 C 
HETATM   18  S1  UNL     1      13.495  62.215  -0.734  1.00  0.00    -0.040 SA
BRANCH  17  19
HETATM   19  N1  UNL     1      11.355  61.178   0.363  1.00  0.00    -0.375 N 
HETATM   20  H1  UNL     1      10.915  60.412   0.857  1.00  0.00     0.158 HD
HETATM   21  H2  UNL     1      11.001  62.119   0.444  1.00  0.00     0.158 HD
ENDBRANCH  17  19
ENDBRANCH   1  17
BRANCH   4  22
HETATM   22  C3  UNL     1      14.132  56.954   2.100  1.00  0.00    -0.012 A 
HETATM   23  C4  UNL     1      15.484  56.672   2.335  1.00  0.00     0.015 A 
HETATM   24  C5  UNL     1      15.856  55.796   3.358  1.00  0.00     0.024 A 
HETATM   25  C6  UNL     1      14.875  55.197   4.145  1.00  0.00     0.034 A 
HETATM   26 CL1  UNL     1      15.330  54.117   5.404  1.00  0.00    -0.084 Cl
HETATM   27  C7  UNL     1      13.527  55.468   3.918  1.00  0.00     0.024 A 
HETATM   28  C8  UNL     1      13.153  56.347   2.896  1.00  0.00     0.015 A 
ENDBRANCH   4  22
TORSDOF 4
ENDMDL
