MODEL 1
REMARK minimizedAffinity -9.07801437
REMARK  7 active torsions:
REMARK  status: ('A' for Active; 'I' for Inactive)
REMARK    1  A    between atoms: O1_2  and  C2_3 
REMARK    2  A    between atoms: C5_6  and  C6_7 
REMARK    3  A    between atoms: N1_8  and  C7_10 
REMARK    4  A    between atoms: C15_24  and  N5_25 
REMARK    5  A    between atoms: N5_25  and  C16_26 
REMARK    6  A    between atoms: C22_32  and  N6_33 
REMARK    7  A    between atoms: C24_36  and  O2_37 
ROOT
HETATM    1  C7  UNL     1      11.032  35.247  17.547  1.00  0.00     0.707 A 
HETATM    2  N2  UNL     1       9.988  35.690  16.861  1.00  0.00    -0.130 N 
ATOM      3  H2  UNL     1       9.959  35.825  15.851  1.00  0.00     0.205 HD
HETATM    4  N3  UNL     1       8.952  35.937  17.728  1.00  0.00    -0.269 N 
ATOM      5  H3  UNL     1       8.026  36.286  17.480  1.00  0.00     0.189 HD
HETATM    6  C8  UNL     1       9.376  35.642  18.934  1.00  0.00     0.159 A 
HETATM    7  C9  UNL     1       8.697  35.699  20.209  1.00  0.00     0.037 A 
HETATM    8  C10 UNL     1       7.378  36.137  20.345  1.00  0.00     0.017 A 
HETATM    9  C11 UNL     1       6.792  36.170  21.611  1.00  0.00     0.001 A 
HETATM   10  C12 UNL     1       7.520  35.766  22.730  1.00  0.00     0.002 A 
HETATM   11  C13 UNL     1       8.840  35.326  22.588  1.00  0.00     0.030 A 
HETATM   12  C14 UNL     1       9.439  35.287  21.329  1.00  0.00     0.048 A 
HETATM   13  N4  UNL     1      10.779  34.845  21.221  1.00  0.00    -0.331 N 
ATOM     14  H4  UNL     1      11.278  34.527  22.052  1.00  0.00     0.168 HD
HETATM   15  C15 UNL     1      11.382  34.842  20.053  1.00  0.00     0.187 A 
HETATM   16  N7  UNL     1      10.682  35.218  18.889  1.00  0.00    -0.103 N 
ENDROOT
BRANCH   1  17
HETATM   17  N1  UNL     1      12.264  34.879  17.118  1.00  0.00    -0.199 N 
HETATM   18  C6  UNL     1      13.123  35.835  16.974  1.00  0.00     0.117 C 
ATOM     19  H1  UNL     1      12.499  33.907  16.920  1.00  0.00     0.183 HD
BRANCH  18  20
HETATM   20  C5  UNL     1      14.511  35.556  16.553  1.00  0.00    -0.017 A 
HETATM   21  C4  UNL     1      14.931  35.822  15.247  1.00  0.00     0.016 A 
HETATM   22  C3  UNL     1      16.246  35.542  14.854  1.00  0.00     0.040 A 
HETATM   23  C2  UNL     1      17.143  34.988  15.771  1.00  0.00     0.101 A 
HETATM   24  C24 UNL     1      16.700  34.727  17.073  1.00  0.00     0.099 A 
HETATM   25  C23 UNL     1      15.398  35.003  17.476  1.00  0.00     0.052 A 
BRANCH  23  26
HETATM   26  O1  UNL     1      18.453  34.661  15.527  1.00  0.00    -0.353 OA
HETATM   27  C1  UNL     1      18.745  34.141  14.234  1.00  0.00     0.210 C 
ENDBRANCH  23  26
BRANCH  24  28
HETATM   28  O2  UNL     1      17.555  34.180  17.991  1.00  0.00    -0.358 OA
HETATM   29  H21 UNL     1      18.405  34.076  17.519  1.00  0.00     0.217 HD
ENDBRANCH  24  28
ENDBRANCH  18  20
ENDBRANCH   1  17
BRANCH  15  30
HETATM   30  N5  UNL     1      12.686  34.408  19.976  1.00  0.00    -0.228 NA
HETATM   31  H11 UNL     1      12.766  33.434  20.277  1.00  0.00     0.136 HD
BRANCH  30  32
HETATM   32  C16 UNL     1      13.742  35.062  20.690  1.00  0.00     0.036 A 
HETATM   33  C17 UNL     1      14.799  34.376  21.297  1.00  0.00     0.026 A 
HETATM   34  C18 UNL     1      15.756  35.067  22.049  1.00  0.00     0.009 A 
HETATM   35  C19 UNL     1      15.671  36.452  22.213  1.00  0.00    -0.060 A 
HETATM   36  C20 UNL     1      16.727  37.198  22.977  1.00  0.00     0.048 C 
HETATM   37  C21 UNL     1      14.618  37.147  21.602  1.00  0.00     0.032 A 
HETATM   38  C22 UNL     1      13.629  36.457  20.887  1.00  0.00     0.028 A 
BRANCH  38  39
HETATM   39  N6  UNL     1      12.663  37.182  20.133  1.00  0.00    -0.301 NA
HETATM   40  H18 UNL     1      13.051  37.391  19.213  1.00  0.00     0.124 HD
HETATM   41  H19 UNL     1      12.443  38.065  20.591  1.00  0.00     0.124 HD
ENDBRANCH  38  39
ENDBRANCH  30  32
ENDBRANCH  15  30
TORSDOF 7
ENDMDL
MODEL 2
REMARK minimizedAffinity -8.90746117
REMARK  7 active torsions:
REMARK  status: ('A' for Active; 'I' for Inactive)
REMARK    1  A    between atoms: O1_2  and  C2_3 
REMARK    2  A    between atoms: C5_6  and  C6_7 
REMARK    3  A    between atoms: N1_8  and  C7_10 
REMARK    4  A    between atoms: C15_24  and  N5_25 
REMARK    5  A    between atoms: N5_25  and  C16_26 
REMARK    6  A    between atoms: C22_32  and  N6_33 
REMARK    7  A    between atoms: C24_36  and  O2_37 
ROOT
HETATM    1  C7  UNL     1      12.661  36.116  16.805  1.00  0.00     0.707 A 
HETATM    2  N2  UNL     1      12.539  36.509  15.546  1.00  0.00    -0.130 N 
ATOM      3  H2  UNL     1      11.698  36.906  15.129  1.00  0.00     0.205 HD
HETATM    4  N3  UNL     1      13.728  36.297  14.891  1.00  0.00    -0.269 N 
ATOM      5  H3  UNL     1      13.926  36.505  13.912  1.00  0.00     0.189 HD
HETATM    6  C8  UNL     1      14.562  35.776  15.760  1.00  0.00     0.159 A 
HETATM    7  C9  UNL     1      15.943  35.376  15.613  1.00  0.00     0.037 A 
HETATM    8  C10 UNL     1      16.638  35.479  14.405  1.00  0.00     0.017 A 
HETATM    9  C11 UNL     1      17.969  35.066  14.340  1.00  0.00     0.001 A 
HETATM   10  C12 UNL     1      18.598  34.554  15.474  1.00  0.00     0.002 A 
HETATM   11  C13 UNL     1      17.900  34.453  16.681  1.00  0.00     0.030 A 
HETATM   12  C14 UNL     1      16.568  34.863  16.762  1.00  0.00     0.048 A 
HETATM   13  N4  UNL     1      15.888  34.740  17.996  1.00  0.00    -0.331 N 
ATOM     14  H4  UNL     1      16.382  34.390  18.817  1.00  0.00     0.168 HD
HETATM   15  C15 UNL     1      14.620  35.076  18.088  1.00  0.00     0.187 A 
HETATM   16  N7  UNL     1      13.945  35.621  16.978  1.00  0.00    -0.103 N 
ENDROOT
BRANCH   1  17
HETATM   17  N1  UNL     1      11.756  36.132  17.814  1.00  0.00    -0.199 N 
HETATM   18  C6  UNL     1      10.554  35.771  17.504  1.00  0.00     0.117 C 
ATOM     19  H1  UNL     1      12.009  36.413  18.761  1.00  0.00     0.183 HD
BRANCH  18  20
HETATM   20  C5  UNL     1       9.489  35.707  18.526  1.00  0.00    -0.017 A 
HETATM   21  C4  UNL     1       8.273  36.369  18.336  1.00  0.00     0.016 A 
HETATM   22  C3  UNL     1       7.275  36.313  19.317  1.00  0.00     0.040 A 
HETATM   23  C2  UNL     1       7.496  35.596  20.495  1.00  0.00     0.101 A 
HETATM   24  C24 UNL     1       8.723  34.943  20.666  1.00  0.00     0.099 A 
HETATM   25  C23 UNL     1       9.721  34.989  19.698  1.00  0.00     0.052 A 
BRANCH  23  26
HETATM   26  O1  UNL     1       6.615  35.457  21.537  1.00  0.00    -0.353 OA
HETATM   27  C1  UNL     1       6.602  36.508  22.498  1.00  0.00     0.210 C 
ENDBRANCH  23  26
BRANCH  24  28
HETATM   28  O2  UNL     1       8.970  34.238  21.812  1.00  0.00    -0.358 OA
HETATM   29  H21 UNL     1       8.155  34.321  22.344  1.00  0.00     0.217 HD
ENDBRANCH  24  28
ENDBRANCH  18  20
ENDBRANCH   1  17
BRANCH  15  30
HETATM   30  N5  UNL     1      13.981  34.946  19.300  1.00  0.00    -0.228 NA
HETATM   31  H11 UNL     1      13.030  35.319  19.256  1.00  0.00     0.136 HD
BRANCH  30  32
HETATM   32  C16 UNL     1      14.508  35.532  20.498  1.00  0.00     0.036 A 
HETATM   33  C17 UNL     1      15.604  35.008  21.192  1.00  0.00     0.026 A 
HETATM   34  C18 UNL     1      16.019  35.580  22.400  1.00  0.00     0.009 A 
HETATM   35  C19 UNL     1      15.344  36.680  22.938  1.00  0.00    -0.060 A 
HETATM   36  C20 UNL     1      15.824  37.323  24.208  1.00  0.00     0.048 C 
HETATM   37  C21 UNL     1      14.250  37.213  22.245  1.00  0.00     0.032 A 
HETATM   38  C22 UNL     1      13.798  36.618  21.059  1.00  0.00     0.028 A 
BRANCH  38  39
HETATM   39  N6  UNL     1      12.798  37.262  20.278  1.00  0.00    -0.301 NA
HETATM   40  H18 UNL     1      13.246  37.937  19.658  1.00  0.00     0.124 HD
HETATM   41  H19 UNL     1      12.148  37.768  20.878  1.00  0.00     0.124 HD
ENDBRANCH  38  39
ENDBRANCH  30  32
ENDBRANCH  15  30
TORSDOF 7
ENDMDL
MODEL 3
REMARK minimizedAffinity -8.76746178
REMARK  7 active torsions:
REMARK  status: ('A' for Active; 'I' for Inactive)
REMARK    1  A    between atoms: O1_2  and  C2_3 
REMARK    2  A    between atoms: C5_6  and  C6_7 
REMARK    3  A    between atoms: N1_8  and  C7_10 
REMARK    4  A    between atoms: C15_24  and  N5_25 
REMARK    5  A    between atoms: N5_25  and  C16_26 
REMARK    6  A    between atoms: C22_32  and  N6_33 
REMARK    7  A    between atoms: C24_36  and  O2_37 
ROOT
HETATM    1  C7  UNL     1      11.016  35.405  17.458  1.00  0.00     0.707 A 
HETATM    2  N2  UNL     1       9.940  35.833  16.814  1.00  0.00    -0.130 N 
ATOM      3  H2  UNL     1       9.881  36.007  15.811  1.00  0.00     0.205 HD
HETATM    4  N3  UNL     1       8.916  36.003  17.714  1.00  0.00    -0.269 N 
ATOM      5  H3  UNL     1       7.971  36.323  17.501  1.00  0.00     0.189 HD
HETATM    6  C8  UNL     1       9.380  35.677  18.897  1.00  0.00     0.159 A 
HETATM    7  C9  UNL     1       8.730  35.654  20.187  1.00  0.00     0.037 A 
HETATM    8  C10 UNL     1       7.398  36.033  20.371  1.00  0.00     0.017 A 
HETATM    9  C11 UNL     1       6.842  35.991  21.650  1.00  0.00     0.001 A 
HETATM   10  C12 UNL     1       7.613  35.572  22.734  1.00  0.00     0.002 A 
HETATM   11  C13 UNL     1       8.945  35.192  22.545  1.00  0.00     0.030 A 
HETATM   12  C14 UNL     1       9.515  35.229  21.272  1.00  0.00     0.048 A 
HETATM   13  N4  UNL     1      10.868  34.846  21.116  1.00  0.00    -0.331 N 
ATOM     14  H4  UNL     1      11.399  34.516  21.922  1.00  0.00     0.168 HD
HETATM   15  C15 UNL     1      11.443  34.915  19.936  1.00  0.00     0.187 A 
HETATM   16  N7  UNL     1      10.701  35.309  18.804  1.00  0.00    -0.103 N 
ENDROOT
BRANCH   1  17
HETATM   17  N1  UNL     1      12.252  35.106  16.986  1.00  0.00    -0.199 N 
HETATM   18  C6  UNL     1      13.082  36.094  16.903  1.00  0.00     0.117 C 
ATOM     19  H1  UNL     1      12.511  34.158  16.713  1.00  0.00     0.183 HD
BRANCH  18  20
HETATM   20  C5  UNL     1      14.471  35.887  16.445  1.00  0.00    -0.017 A 
HETATM   21  C4  UNL     1      15.523  35.803  17.361  1.00  0.00     0.016 A 
HETATM   22  C3  UNL     1      16.838  35.621  16.916  1.00  0.00     0.040 A 
HETATM   23  C2  UNL     1      17.103  35.526  15.547  1.00  0.00     0.101 A 
HETATM   24  C24 UNL     1      16.034  35.616  14.647  1.00  0.00     0.099 A 
HETATM   25  C23 UNL     1      14.724  35.794  15.076  1.00  0.00     0.052 A 
BRANCH  23  26
HETATM   26  O1  UNL     1      18.335  35.350  14.970  1.00  0.00    -0.353 OA
HETATM   27  C1  UNL     1      19.427  35.142  15.860  1.00  0.00     0.210 C 
ENDBRANCH  23  26
BRANCH  24  28
HETATM   28  O2  UNL     1      16.264  35.532  13.301  1.00  0.00    -0.358 OA
HETATM   29  H21 UNL     1      17.228  35.399  13.213  1.00  0.00     0.217 HD
ENDBRANCH  24  28
ENDBRANCH  18  20
ENDBRANCH   1  17
BRANCH  15  30
HETATM   30  N5  UNL     1      12.761  34.538  19.812  1.00  0.00    -0.228 NA
HETATM   31  H11 UNL     1      12.877  33.541  20.009  1.00  0.00     0.136 HD
BRANCH  30  32
HETATM   32  C16 UNL     1      13.797  35.150  20.590  1.00  0.00     0.036 A 
HETATM   33  C17 UNL     1      14.815  34.426  21.220  1.00  0.00     0.026 A 
HETATM   34  C18 UNL     1      15.751  35.076  22.032  1.00  0.00     0.009 A 
HETATM   35  C19 UNL     1      15.683  36.458  22.235  1.00  0.00    -0.060 A 
HETATM   36  C20 UNL     1      16.719  37.160  23.066  1.00  0.00     0.048 C 
HETATM   37  C21 UNL     1      14.670  37.190  21.602  1.00  0.00     0.032 A 
HETATM   38  C22 UNL     1      13.700  36.541  20.825  1.00  0.00     0.028 A 
BRANCH  38  39
HETATM   39  N6  UNL     1      12.780  37.306  20.053  1.00  0.00    -0.301 NA
HETATM   40  H18 UNL     1      13.211  37.535  19.157  1.00  0.00     0.124 HD
HETATM   41  H19 UNL     1      12.557  38.179  20.528  1.00  0.00     0.124 HD
ENDBRANCH  38  39
ENDBRANCH  30  32
ENDBRANCH  15  30
TORSDOF 7
ENDMDL
MODEL 4
REMARK minimizedAffinity -8.45447636
REMARK  7 active torsions:
REMARK  status: ('A' for Active; 'I' for Inactive)
REMARK    1  A    between atoms: O1_2  and  C2_3 
REMARK    2  A    between atoms: C5_6  and  C6_7 
REMARK    3  A    between atoms: N1_8  and  C7_10 
REMARK    4  A    between atoms: C15_24  and  N5_25 
REMARK    5  A    between atoms: N5_25  and  C16_26 
REMARK    6  A    between atoms: C22_32  and  N6_33 
REMARK    7  A    between atoms: C24_36  and  O2_37 
ROOT
HETATM    1  C7  UNL     1      12.489  57.356  -0.456  1.00  0.00     0.707 A 
HETATM    2  N2  UNL     1      12.375  58.676  -0.448  1.00  0.00    -0.130 N 
ATOM      3  H2  UNL     1      12.733  59.296   0.278  1.00  0.00     0.205 HD
HETATM    4  N3  UNL     1      11.697  59.076  -1.574  1.00  0.00    -0.269 N 
ATOM      5  H3  UNL     1      11.465  60.035  -1.831  1.00  0.00     0.189 HD
HETATM    6  C8  UNL     1      11.406  57.994  -2.257  1.00  0.00     0.159 A 
HETATM    7  C9  UNL     1      10.720  57.836  -3.519  1.00  0.00     0.037 A 
HETATM    8  C10 UNL     1      10.207  58.915  -4.242  1.00  0.00     0.017 A 
HETATM    9  C11 UNL     1       9.550  58.682  -5.451  1.00  0.00     0.001 A 
HETATM   10  C12 UNL     1       9.411  57.380  -5.932  1.00  0.00     0.002 A 
HETATM   11  C13 UNL     1       9.927  56.303  -5.205  1.00  0.00     0.030 A 
HETATM   12  C14 UNL     1      10.586  56.520  -3.994  1.00  0.00     0.048 A 
HETATM   13  N4  UNL     1      11.090  55.408  -3.279  1.00  0.00    -0.331 N 
ATOM     14  H4  UNL     1      10.999  54.470  -3.669  1.00  0.00     0.168 HD
HETATM   15  C15 UNL     1      11.674  55.581  -2.115  1.00  0.00     0.187 A 
HETATM   16  N7  UNL     1      11.862  56.878  -1.597  1.00  0.00    -0.103 N 
ENDROOT
BRANCH   1  17
HETATM   17  N1  UNL     1      13.074  56.526   0.443  1.00  0.00    -0.199 N 
HETATM   18  C6  UNL     1      13.528  57.084   1.517  1.00  0.00     0.117 C 
ATOM     19  H1  UNL     1      13.151  55.523   0.280  1.00  0.00     0.183 HD
BRANCH  18  20
HETATM   20  C5  UNL     1      14.148  56.280   2.591  1.00  0.00    -0.017 A 
HETATM   21  C4  UNL     1      13.362  55.647   3.556  1.00  0.00     0.016 A 
HETATM   22  C3  UNL     1      13.960  54.898   4.578  1.00  0.00     0.040 A 
HETATM   23  C2  UNL     1      15.351  54.786   4.636  1.00  0.00     0.101 A 
HETATM   24  C24 UNL     1      16.120  55.433   3.659  1.00  0.00     0.099 A 
HETATM   25  C23 UNL     1      15.538  56.176   2.639  1.00  0.00     0.052 A 
BRANCH  23  26
HETATM   26  O1  UNL     1      16.071  54.093   5.575  1.00  0.00    -0.353 OA
HETATM   27  C1  UNL     1      16.368  52.734   5.267  1.00  0.00     0.210 C 
ENDBRANCH  23  26
BRANCH  24  28
HETATM   28  O2  UNL     1      17.485  55.345   3.694  1.00  0.00    -0.358 OA
HETATM   29  H21 UNL     1      17.686  54.781   4.466  1.00  0.00     0.217 HD
ENDBRANCH  24  28
ENDBRANCH  18  20
ENDBRANCH   1  17
BRANCH  15  30
HETATM   30  N5  UNL     1      12.155  54.482  -1.439  1.00  0.00    -0.228 NA
HETATM   31  H11 UNL     1      12.554  54.751  -0.537  1.00  0.00     0.136 HD
BRANCH  30  32
HETATM   32  C16 UNL     1      13.160  53.630  -2.003  1.00  0.00     0.036 A 
HETATM   33  C17 UNL     1      14.457  54.062  -2.298  1.00  0.00     0.026 A 
HETATM   34  C18 UNL     1      15.368  53.202  -2.922  1.00  0.00     0.009 A 
HETATM   35  C19 UNL     1      14.997  51.900  -3.270  1.00  0.00    -0.060 A 
HETATM   36  C20 UNL     1      15.991  50.963  -3.894  1.00  0.00     0.048 C 
HETATM   37  C21 UNL     1      13.701  51.458  -2.972  1.00  0.00     0.032 A 
HETATM   38  C22 UNL     1      12.768  52.327  -2.390  1.00  0.00     0.028 A 
BRANCH  38  39
HETATM   39  N6  UNL     1      11.514  51.825  -1.939  1.00  0.00    -0.301 NA
HETATM   40  H18 UNL     1      11.625  51.459  -0.993  1.00  0.00     0.124 HD
HETATM   41  H19 UNL     1      11.201  51.062  -2.537  1.00  0.00     0.124 HD
ENDBRANCH  38  39
ENDBRANCH  30  32
ENDBRANCH  15  30
TORSDOF 7
ENDMDL
MODEL 5
REMARK minimizedAffinity -8.09548855
REMARK  7 active torsions:
REMARK  status: ('A' for Active; 'I' for Inactive)
REMARK    1  A    between atoms: O1_2  and  C2_3 
REMARK    2  A    between atoms: C5_6  and  C6_7 
REMARK    3  A    between atoms: N1_8  and  C7_10 
REMARK    4  A    between atoms: C15_24  and  N5_25 
REMARK    5  A    between atoms: N5_25  and  C16_26 
REMARK    6  A    between atoms: C22_32  and  N6_33 
REMARK    7  A    between atoms: C24_36  and  O2_37 
ROOT
HETATM    1  C7  UNL     1      13.551  58.744   4.188  1.00  0.00     0.707 A 
HETATM    2  N2  UNL     1      13.301  59.950   3.698  1.00  0.00    -0.130 N 
ATOM      3  H2  UNL     1      13.261  60.813   4.240  1.00  0.00     0.205 HD
HETATM    4  N3  UNL     1      13.105  59.851   2.341  1.00  0.00    -0.269 N 
ATOM      5  H3  UNL     1      12.895  60.619   1.703  1.00  0.00     0.189 HD
HETATM    6  C8  UNL     1      13.237  58.586   2.021  1.00  0.00     0.159 A 
HETATM    7  C9  UNL     1      13.150  57.928   0.736  1.00  0.00     0.037 A 
HETATM    8  C10 UNL     1      12.864  58.613  -0.447  1.00  0.00     0.017 A 
HETATM    9  C11 UNL     1      12.790  57.907  -1.648  1.00  0.00     0.001 A 
HETATM   10  C12 UNL     1      13.001  56.528  -1.664  1.00  0.00     0.002 A 
HETATM   11  C13 UNL     1      13.288  55.848  -0.477  1.00  0.00     0.030 A 
HETATM   12  C14 UNL     1      13.366  56.540   0.733  1.00  0.00     0.048 A 
HETATM   13  N4  UNL     1      13.650  55.820   1.917  1.00  0.00    -0.331 N 
ATOM     14  H4  UNL     1      13.829  54.817   1.872  1.00  0.00     0.168 HD
HETATM   15  C15 UNL     1      13.684  56.440   3.075  1.00  0.00     0.187 A 
HETATM   16  N7  UNL     1      13.501  57.836   3.141  1.00  0.00    -0.103 N 
ENDROOT
BRANCH   1  17
HETATM   17  N1  UNL     1      13.803  58.358   5.463  1.00  0.00    -0.199 N 
HETATM   18  C6  UNL     1      13.317  59.115   6.391  1.00  0.00     0.117 C 
ATOM     19  H1  UNL     1      14.343  57.520   5.676  1.00  0.00     0.183 HD
BRANCH  18  20
HETATM   20  C5  UNL     1      13.487  58.776   7.820  1.00  0.00    -0.017 A 
HETATM   21  C4  UNL     1      12.457  59.000   8.736  1.00  0.00     0.016 A 
HETATM   22  C3  UNL     1      12.633  58.688  10.091  1.00  0.00     0.040 A 
HETATM   23  C2  UNL     1      13.846  58.154  10.530  1.00  0.00     0.101 A 
HETATM   24  C24 UNL     1      14.867  57.941   9.594  1.00  0.00     0.099 A 
HETATM   25  C23 UNL     1      14.703  58.244   8.247  1.00  0.00     0.052 A 
BRANCH  23  26
HETATM   26  O1  UNL     1      14.160  57.805  11.819  1.00  0.00    -0.353 OA
HETATM   27  C1  UNL     1      13.649  56.557  12.278  1.00  0.00     0.210 C 
ENDBRANCH  23  26
BRANCH  24  28
HETATM   28  O2  UNL     1      16.068  57.424   9.996  1.00  0.00    -0.358 OA
HETATM   29  H21 UNL     1      15.974  57.274  10.957  1.00  0.00     0.217 HD
ENDBRANCH  24  28
ENDBRANCH  18  20
ENDBRANCH   1  17
BRANCH  15  30
HETATM   30  N5  UNL     1      13.961  55.716   4.212  1.00  0.00    -0.228 NA
HETATM   31  H11 UNL     1      13.812  56.281   5.052  1.00  0.00     0.136 HD
BRANCH  30  32
HETATM   32  C16 UNL     1      15.249  55.127   4.436  1.00  0.00     0.036 A 
HETATM   33  C17 UNL     1      16.448  55.722   4.030  1.00  0.00     0.026 A 
HETATM   34  C18 UNL     1      17.666  55.058   4.206  1.00  0.00     0.009 A 
HETATM   35  C19 UNL     1      17.708  53.785   4.784  1.00  0.00    -0.060 A 
HETATM   36  C20 UNL     1      19.022  53.096   5.018  1.00  0.00     0.048 C 
HETATM   37  C21 UNL     1      16.512  53.186   5.199  1.00  0.00     0.032 A 
HETATM   38  C22 UNL     1      15.283  53.824   4.984  1.00  0.00     0.028 A 
BRANCH  38  39
HETATM   39  N6  UNL     1      14.095  53.288   5.556  1.00  0.00    -0.301 NA
HETATM   40  H18 UNL     1      14.002  53.635   6.511  1.00  0.00     0.124 HD
HETATM   41  H19 UNL     1      14.145  52.271   5.594  1.00  0.00     0.124 HD
ENDBRANCH  38  39
ENDBRANCH  30  32
ENDBRANCH  15  30
TORSDOF 7
ENDMDL
MODEL 6
REMARK minimizedAffinity -7.93336773
REMARK  7 active torsions:
REMARK  status: ('A' for Active; 'I' for Inactive)
REMARK    1  A    between atoms: O1_2  and  C2_3 
REMARK    2  A    between atoms: C5_6  and  C6_7 
REMARK    3  A    between atoms: N1_8  and  C7_10 
REMARK    4  A    between atoms: C15_24  and  N5_25 
REMARK    5  A    between atoms: N5_25  and  C16_26 
REMARK    6  A    between atoms: C22_32  and  N6_33 
REMARK    7  A    between atoms: C24_36  and  O2_37 
ROOT
HETATM    1  C7  UNL     1      12.812  58.887   1.294  1.00  0.00     0.707 A 
HETATM    2  N2  UNL     1      12.685  60.132   0.858  1.00  0.00    -0.130 N 
ATOM      3  H2  UNL     1      12.486  60.405  -0.104  1.00  0.00     0.205 HD
HETATM    4  N3  UNL     1      12.865  60.997   1.910  1.00  0.00    -0.269 N 
ATOM      5  H3  UNL     1      12.824  62.015   1.869  1.00  0.00     0.189 HD
HETATM    6  C8  UNL     1      13.100  60.269   2.976  1.00  0.00     0.159 A 
HETATM    7  C9  UNL     1      13.341  60.660   4.346  1.00  0.00     0.037 A 
HETATM    8  C10 UNL     1      13.382  61.994   4.757  1.00  0.00     0.017 A 
HETATM    9  C11 UNL     1      13.627  62.293   6.097  1.00  0.00     0.001 A 
HETATM   10  C12 UNL     1      13.828  61.265   7.018  1.00  0.00     0.002 A 
HETATM   11  C13 UNL     1      13.784  59.931   6.603  1.00  0.00     0.030 A 
HETATM   12  C14 UNL     1      13.540  59.616   5.265  1.00  0.00     0.048 A 
HETATM   13  N4  UNL     1      13.510  58.256   4.876  1.00  0.00    -0.331 N 
ATOM     14  H4  UNL     1      13.631  57.524   5.576  1.00  0.00     0.168 HD
HETATM   15  C15 UNL     1      13.328  57.933   3.615  1.00  0.00     0.187 A 
HETATM   16  N7  UNL     1      13.096  58.934   2.650  1.00  0.00    -0.103 N 
ENDROOT
BRANCH   1  17
HETATM   17  N1  UNL     1      12.718  57.714   0.620  1.00  0.00    -0.199 N 
HETATM   18  C6  UNL     1      13.766  57.360  -0.049  1.00  0.00     0.117 C 
ATOM     19  H1  UNL     1      11.871  57.147   0.639  1.00  0.00     0.183 HD
BRANCH  18  20
HETATM   20  C5  UNL     1      13.802  56.081  -0.790  1.00  0.00    -0.017 A 
HETATM   21  C4  UNL     1      12.627  55.500  -1.272  1.00  0.00     0.016 A 
HETATM   22  C3  UNL     1      12.670  54.281  -1.962  1.00  0.00     0.040 A 
HETATM   23  C2  UNL     1      13.894  53.639  -2.165  1.00  0.00     0.101 A 
HETATM   24  C24 UNL     1      15.059  54.239  -1.669  1.00  0.00     0.099 A 
HETATM   25  C23 UNL     1      15.030  55.449  -0.986  1.00  0.00     0.052 A 
BRANCH  23  26
HETATM   26  O1  UNL     1      14.087  52.448  -2.816  1.00  0.00    -0.353 OA
HETATM   27  C1  UNL     1      13.362  51.329  -2.315  1.00  0.00     0.210 C 
ENDBRANCH  23  26
BRANCH  24  28
HETATM   28  O2  UNL     1      16.271  53.630  -1.848  1.00  0.00    -0.358 OA
HETATM   29  H21 UNL     1      16.077  52.815  -2.350  1.00  0.00     0.217 HD
ENDBRANCH  24  28
ENDBRANCH  18  20
ENDBRANCH   1  17
BRANCH  15  30
HETATM   30  N5  UNL     1      13.304  56.603   3.263  1.00  0.00    -0.228 NA
HETATM   31  H11 UNL     1      12.394  56.185   3.470  1.00  0.00     0.136 HD
BRANCH  30  32
HETATM   32  C16 UNL     1      14.232  55.660   3.815  1.00  0.00     0.036 A 
HETATM   33  C17 UNL     1      13.866  54.666   4.728  1.00  0.00     0.026 A 
HETATM   34  C18 UNL     1      14.834  53.827   5.291  1.00  0.00     0.009 A 
HETATM   35  C19 UNL     1      16.185  53.971   4.958  1.00  0.00    -0.060 A 
HETATM   36  C20 UNL     1      17.215  53.037   5.525  1.00  0.00     0.048 C 
HETATM   37  C21 UNL     1      16.557  54.961   4.039  1.00  0.00     0.032 A 
HETATM   38  C22 UNL     1      15.601  55.836   3.506  1.00  0.00     0.028 A 
BRANCH  38  39
HETATM   39  N6  UNL     1      15.959  56.723   2.452  1.00  0.00    -0.301 NA
HETATM   40  H18 UNL     1      15.870  56.232   1.562  1.00  0.00     0.124 HD
HETATM   41  H19 UNL     1      16.927  57.022   2.552  1.00  0.00     0.124 HD
ENDBRANCH  38  39
ENDBRANCH  30  32
ENDBRANCH  15  30
TORSDOF 7
ENDMDL
MODEL 7
REMARK minimizedAffinity -7.92014599
REMARK  7 active torsions:
REMARK  status: ('A' for Active; 'I' for Inactive)
REMARK    1  A    between atoms: O1_2  and  C2_3 
REMARK    2  A    between atoms: C5_6  and  C6_7 
REMARK    3  A    between atoms: N1_8  and  C7_10 
REMARK    4  A    between atoms: C15_24  and  N5_25 
REMARK    5  A    between atoms: N5_25  and  C16_26 
REMARK    6  A    between atoms: C22_32  and  N6_33 
REMARK    7  A    between atoms: C24_36  and  O2_37 
ROOT
HETATM    1  C7  UNL     1      13.422  57.891   1.970  1.00  0.00     0.707 A 
HETATM    2  N2  UNL     1      13.112  59.096   1.514  1.00  0.00    -0.130 N 
ATOM      3  H2  UNL     1      12.932  59.332   0.538  1.00  0.00     0.205 HD
HETATM    4  N3  UNL     1      13.073  59.979   2.567  1.00  0.00    -0.269 N 
ATOM      5  H3  UNL     1      12.861  60.975   2.513  1.00  0.00     0.189 HD
HETATM    6  C8  UNL     1      13.359  59.300   3.653  1.00  0.00     0.159 A 
HETATM    7  C9  UNL     1      13.440  59.726   5.032  1.00  0.00     0.037 A 
HETATM    8  C10 UNL     1      13.226  61.047   5.431  1.00  0.00     0.017 A 
HETATM    9  C11 UNL     1      13.329  61.383   6.781  1.00  0.00     0.001 A 
HETATM   10  C12 UNL     1      13.642  60.403   7.723  1.00  0.00     0.002 A 
HETATM   11  C13 UNL     1      13.854  59.082   7.319  1.00  0.00     0.030 A 
HETATM   12  C14 UNL     1      13.755  58.730   5.972  1.00  0.00     0.048 A 
HETATM   13  N4  UNL     1      13.984  57.386   5.596  1.00  0.00    -0.331 N 
ATOM     14  H4  UNL     1      14.182  56.685   6.310  1.00  0.00     0.168 HD
HETATM   15  C15 UNL     1      13.942  57.038   4.329  1.00  0.00     0.187 A 
HETATM   16  N7  UNL     1      13.605  57.985   3.341  1.00  0.00    -0.103 N 
ENDROOT
BRANCH   1  17
HETATM   17  N1  UNL     1      13.574  56.720   1.303  1.00  0.00    -0.199 N 
HETATM   18  C6  UNL     1      13.594  56.801   0.013  1.00  0.00     0.117 C 
ATOM     19  H1  UNL     1      13.667  55.830   1.791  1.00  0.00     0.183 HD
BRANCH  18  20
HETATM   20  C5  UNL     1      13.797  55.600  -0.823  1.00  0.00    -0.017 A 
HETATM   21  C4  UNL     1      15.084  55.164  -1.149  1.00  0.00     0.016 A 
HETATM   22  C3  UNL     1      15.266  54.032  -1.955  1.00  0.00     0.040 A 
HETATM   23  C2  UNL     1      14.156  53.337  -2.439  1.00  0.00     0.101 A 
HETATM   24  C24 UNL     1      12.875  53.794  -2.102  1.00  0.00     0.099 A 
HETATM   25  C23 UNL     1      12.682  54.914  -1.302  1.00  0.00     0.052 A 
BRANCH  23  26
HETATM   26  O1  UNL     1      14.182  52.220  -3.235  1.00  0.00    -0.353 OA
HETATM   27  C1  UNL     1      12.931  51.579  -3.466  1.00  0.00     0.210 C 
ENDBRANCH  23  26
BRANCH  24  28
HETATM   28  O2  UNL     1      11.769  53.136  -2.567  1.00  0.00    -0.358 OA
HETATM   29  H21 UNL     1      12.117  52.387  -3.090  1.00  0.00     0.217 HD
ENDBRANCH  24  28
ENDBRANCH  18  20
ENDBRANCH   1  17
BRANCH  15  30
HETATM   30  N5  UNL     1      14.169  55.724   3.990  1.00  0.00    -0.228 NA
HETATM   31  H11 UNL     1      13.472  55.109   4.417  1.00  0.00     0.136 HD
BRANCH  30  32
HETATM   32  C16 UNL     1      15.410  55.071   4.288  1.00  0.00     0.036 A 
HETATM   33  C17 UNL     1      16.655  55.569   3.891  1.00  0.00     0.026 A 
HETATM   34  C18 UNL     1      17.824  54.843   4.143  1.00  0.00     0.009 A 
HETATM   35  C19 UNL     1      17.770  53.604   4.789  1.00  0.00    -0.060 A 
HETATM   36  C20 UNL     1      19.031  52.851   5.104  1.00  0.00     0.048 C 
HETATM   37  C21 UNL     1      16.527  53.102   5.196  1.00  0.00     0.032 A 
HETATM   38  C22 UNL     1      15.346  53.800   4.905  1.00  0.00     0.028 A 
BRANCH  38  39
HETATM   39  N6  UNL     1      14.111  53.370   5.465  1.00  0.00    -0.301 NA
HETATM   40  H18 UNL     1      14.011  53.774   6.397  1.00  0.00     0.124 HD
HETATM   41  H19 UNL     1      14.096  52.355   5.559  1.00  0.00     0.124 HD
ENDBRANCH  38  39
ENDBRANCH  30  32
ENDBRANCH  15  30
TORSDOF 7
ENDMDL
MODEL 8
REMARK minimizedAffinity -7.88650131
REMARK  7 active torsions:
REMARK  status: ('A' for Active; 'I' for Inactive)
REMARK    1  A    between atoms: O1_2  and  C2_3 
REMARK    2  A    between atoms: C5_6  and  C6_7 
REMARK    3  A    between atoms: N1_8  and  C7_10 
REMARK    4  A    between atoms: C15_24  and  N5_25 
REMARK    5  A    between atoms: N5_25  and  C16_26 
REMARK    6  A    between atoms: C22_32  and  N6_33 
REMARK    7  A    between atoms: C24_36  and  O2_37 
ROOT
HETATM    1  C7  UNL     1      14.156  35.727  16.185  1.00  0.00     0.707 A 
HETATM    2  N2  UNL     1      13.376  36.352  15.315  1.00  0.00    -0.130 N 
ATOM      3  H2  UNL     1      13.678  36.737  14.420  1.00  0.00     0.205 HD
HETATM    4  N3  UNL     1      12.096  36.399  15.811  1.00  0.00    -0.269 N 
ATOM      5  H3  UNL     1      11.286  36.820  15.356  1.00  0.00     0.189 HD
HETATM    6  C8  UNL     1      12.110  35.800  16.979  1.00  0.00     0.159 A 
HETATM    7  C9  UNL     1      11.041  35.551  17.920  1.00  0.00     0.037 A 
HETATM    8  C10 UNL     1       9.727  35.973  17.703  1.00  0.00     0.017 A 
HETATM    9  C11 UNL     1       8.751  35.701  18.662  1.00  0.00     0.001 A 
HETATM   10  C12 UNL     1       9.088  35.012  19.827  1.00  0.00     0.002 A 
HETATM   11  C13 UNL     1      10.404  34.591  20.039  1.00  0.00     0.030 A 
HETATM   12  C14 UNL     1      11.391  34.855  19.089  1.00  0.00     0.048 A 
HETATM   13  N4  UNL     1      12.715  34.422  19.338  1.00  0.00    -0.331 N 
ATOM     14  H4  UNL     1      12.926  33.895  20.185  1.00  0.00     0.168 HD
HETATM   15  C15 UNL     1      13.673  34.698  18.482  1.00  0.00     0.187 A 
HETATM   16  N7  UNL     1      13.380  35.371  17.278  1.00  0.00    -0.103 N 
ENDROOT
BRANCH   1  17
HETATM   17  N1  UNL     1      15.481  35.449  16.124  1.00  0.00    -0.199 N 
HETATM   18  C6  UNL     1      16.038  35.592  14.966  1.00  0.00     0.117 C 
ATOM     19  H1  UNL     1      16.008  35.147  16.943  1.00  0.00     0.183 HD
BRANCH  18  20
HETATM   20  C5  UNL     1      17.486  35.361  14.782  1.00  0.00    -0.017 A 
HETATM   21  C4  UNL     1      18.413  36.366  15.068  1.00  0.00     0.016 A 
HETATM   22  C3  UNL     1      19.783  36.142  14.876  1.00  0.00     0.040 A 
HETATM   23  C2  UNL     1      20.226  34.909  14.393  1.00  0.00     0.101 A 
HETATM   24  C24 UNL     1      19.278  33.917  14.109  1.00  0.00     0.099 A 
HETATM   25  C23 UNL     1      17.916  34.126  14.297  1.00  0.00     0.052 A 
BRANCH  23  26
HETATM   26  O1  UNL     1      21.528  34.551  14.155  1.00  0.00    -0.353 OA
HETATM   27  C1  UNL     1      22.170  35.192  13.057  1.00  0.00     0.210 C 
ENDBRANCH  23  26
BRANCH  24  28
HETATM   28  O2  UNL     1      19.682  32.701  13.629  1.00  0.00    -0.358 OA
HETATM   29  H21 UNL     1      20.656  32.756  13.581  1.00  0.00     0.217 HD
ENDBRANCH  24  28
ENDBRANCH  18  20
ENDBRANCH   1  17
BRANCH  15  30
HETATM   30  N5  UNL     1      14.952  34.266  18.749  1.00  0.00    -0.228 NA
HETATM   31  H11 UNL     1      14.942  33.361  19.223  1.00  0.00     0.136 HD
BRANCH  30  32
HETATM   32  C16 UNL     1      15.861  35.042  19.540  1.00  0.00     0.036 A 
HETATM   33  C17 UNL     1      15.472  35.759  20.676  1.00  0.00     0.026 A 
HETATM   34  C18 UNL     1      16.392  36.563  21.359  1.00  0.00     0.009 A 
HETATM   35  C19 UNL     1      17.713  36.671  20.915  1.00  0.00    -0.060 A 
HETATM   36  C20 UNL     1      18.711  37.494  21.679  1.00  0.00     0.048 C 
HETATM   37  C21 UNL     1      18.111  35.950  19.781  1.00  0.00     0.032 A 
HETATM   38  C22 UNL     1      17.185  35.180  19.064  1.00  0.00     0.028 A 
BRANCH  38  39
HETATM   39  N6  UNL     1      17.632  34.324  18.019  1.00  0.00    -0.301 NA
HETATM   40  H18 UNL     1      17.921  33.432  18.422  1.00  0.00     0.124 HD
HETATM   41  H19 UNL     1      18.437  34.730  17.545  1.00  0.00     0.124 HD
ENDBRANCH  38  39
ENDBRANCH  30  32
ENDBRANCH  15  30
TORSDOF 7
ENDMDL
MODEL 9
REMARK minimizedAffinity -7.88084412
REMARK  7 active torsions:
REMARK  status: ('A' for Active; 'I' for Inactive)
REMARK    1  A    between atoms: O1_2  and  C2_3 
REMARK    2  A    between atoms: C5_6  and  C6_7 
REMARK    3  A    between atoms: N1_8  and  C7_10 
REMARK    4  A    between atoms: C15_24  and  N5_25 
REMARK    5  A    between atoms: N5_25  and  C16_26 
REMARK    6  A    between atoms: C22_32  and  N6_33 
REMARK    7  A    between atoms: C24_36  and  O2_37 
ROOT
HETATM    1  C7  UNL     1      14.200  58.373   5.946  1.00  0.00     0.707 A 
HETATM    2  N2  UNL     1      13.839  59.631   5.742  1.00  0.00    -0.130 N 
ATOM      3  H2  UNL     1      13.819  60.364   6.451  1.00  0.00     0.205 HD
HETATM    4  N3  UNL     1      13.495  59.792   4.422  1.00  0.00    -0.269 N 
ATOM      5  H3  UNL     1      13.178  60.655   3.980  1.00  0.00     0.189 HD
HETATM    6  C8  UNL     1      13.650  58.629   3.835  1.00  0.00     0.159 A 
HETATM    7  C9  UNL     1      13.449  58.236   2.459  1.00  0.00     0.037 A 
HETATM    8  C10 UNL     1      12.999  59.122   1.477  1.00  0.00     0.017 A 
HETATM    9  C11 UNL     1      12.822  58.666   0.170  1.00  0.00     0.001 A 
HETATM   10  C12 UNL     1      13.095  57.337  -0.150  1.00  0.00     0.002 A 
HETATM   11  C13 UNL     1      13.547  56.454   0.836  1.00  0.00     0.030 A 
HETATM   12  C14 UNL     1      13.729  56.895   2.147  1.00  0.00     0.048 A 
HETATM   13  N4  UNL     1      14.180  55.975   3.123  1.00  0.00    -0.331 N 
ATOM     14  H4  UNL     1      14.400  55.016   2.854  1.00  0.00     0.168 HD
HETATM   15  C15 UNL     1      14.315  56.352   4.374  1.00  0.00     0.187 A 
HETATM   16  N7  UNL     1      14.075  57.691   4.745  1.00  0.00    -0.103 N 
ENDROOT
BRANCH   1  17
HETATM   17  N1  UNL     1      14.613  57.758   7.081  1.00  0.00    -0.199 N 
HETATM   18  C6  UNL     1      14.562  58.467   8.161  1.00  0.00     0.117 C 
ATOM     19  H1  UNL     1      14.944  56.794   7.083  1.00  0.00     0.183 HD
BRANCH  18  20
HETATM   20  C5  UNL     1      14.944  57.896   9.469  1.00  0.00    -0.017 A 
HETATM   21  C4  UNL     1      16.270  57.941   9.910  1.00  0.00     0.016 A 
HETATM   22  C3  UNL     1      16.625  57.384  11.145  1.00  0.00     0.040 A 
HETATM   23  C2  UNL     1      15.651  56.776  11.940  1.00  0.00     0.101 A 
HETATM   24  C24 UNL     1      14.330  56.739  11.477  1.00  0.00     0.099 A 
HETATM   25  C23 UNL     1      13.964  57.290  10.254  1.00  0.00     0.052 A 
BRANCH  23  26
HETATM   26  O1  UNL     1      15.852  56.190  13.164  1.00  0.00    -0.353 OA
HETATM   27  C1  UNL     1      17.131  55.601  13.380  1.00  0.00     0.210 C 
ENDBRANCH  23  26
BRANCH  24  28
HETATM   28  O2  UNL     1      13.356  56.145  12.232  1.00  0.00    -0.358 OA
HETATM   29  H21 UNL     1      13.810  55.837  13.040  1.00  0.00     0.217 HD
ENDBRANCH  24  28
ENDBRANCH  18  20
ENDBRANCH   1  17
BRANCH  15  30
HETATM   30  N5  UNL     1      14.755  55.437   5.304  1.00  0.00    -0.228 NA
HETATM   31  H11 UNL     1      14.749  55.838   6.245  1.00  0.00     0.136 HD
BRANCH  30  32
HETATM   32  C16 UNL     1      16.051  54.832   5.213  1.00  0.00     0.036 A 
HETATM   33  C17 UNL     1      17.233  55.564   5.067  1.00  0.00     0.026 A 
HETATM   34  C18 UNL     1      18.459  54.910   4.902  1.00  0.00     0.009 A 
HETATM   35  C19 UNL     1      18.524  53.514   4.872  1.00  0.00    -0.060 A 
HETATM   36  C20 UNL     1      19.847  52.814   4.746  1.00  0.00     0.048 C 
HETATM   37  C21 UNL     1      17.345  52.773   5.024  1.00  0.00     0.032 A 
HETATM   38  C22 UNL     1      16.107  53.420   5.142  1.00  0.00     0.028 A 
BRANCH  38  39
HETATM   39  N6  UNL     1      14.941  52.669   5.463  1.00  0.00    -0.301 NA
HETATM   40  H18 UNL     1      14.880  52.569   6.476  1.00  0.00     0.124 HD
HETATM   41  H19 UNL     1      14.995  51.737   5.056  1.00  0.00     0.124 HD
ENDBRANCH  38  39
ENDBRANCH  30  32
ENDBRANCH  15  30
TORSDOF 7
ENDMDL
