MODEL 1
REMARK minimizedAffinity -7.55346823
REMARK CNNscore 0.693158627
REMARK CNNaffinity 6.59194374
REMARK  7 active torsions:
REMARK  status: ('A' for Active; 'I' for Inactive)
REMARK    1  A    between atoms: C8_10  and  N2_11 
REMARK    2  A    between atoms: N2_11  and  C9_12 
REMARK    3  A    between atoms: C10_15  and  O1_16 
REMARK    4  A    between atoms: C12_18  and  C13_19 
REMARK    5  A    between atoms: C13_19  and  S1_20 
REMARK    6  A    between atoms: S1_20  and  C14_21 
REMARK    7  A    between atoms: N7_26  and  C15_27 
ROOT
HETATM    1  C9  UNL     1      12.850  54.438  -1.876  1.00  0.00     0.699 A 
HETATM    2  N3  UNL     1      14.143  54.250  -2.164  1.00  0.00    -0.170 N 
ATOM      3  H3  UNL     1      14.817  55.014  -2.136  1.00  0.00     0.186 HD
HETATM    4  C10 UNL     1      14.502  53.009  -2.488  1.00  0.00     0.157 A 
HETATM    5  C11 UNL     1      13.670  51.932  -2.560  1.00  0.00     0.082 A 
HETATM    6  C12 UNL     1      12.356  52.200  -2.253  1.00  0.00     0.040 A 
HETATM    7  N8  UNL     1      11.938  53.446  -1.921  1.00  0.00    -0.194 N 
ATOM      8  H8  UNL     1      10.957  53.629  -1.711  1.00  0.00     0.184 HD
ENDROOT
BRANCH   1   9
HETATM    9  N2  UNL     1      12.357  55.675  -1.528  1.00  0.00    -0.022 N 
HETATM   10  H9  UNL     1      11.616  56.001  -2.120  1.00  0.00     0.203 HD
BRANCH   9  11
HETATM   11  C8  UNL     1      12.664  56.541  -0.499  1.00  0.00     0.697 A 
HETATM   12  N1  UNL     1      12.553  57.867  -0.635  1.00  0.00    -0.194 N 
HETATM   13  C6  UNL     1      12.867  58.649   0.420  1.00  0.00     0.035 A 
ATOM     14  H1  UNL     1      12.238  58.278  -1.513  1.00  0.00     0.184 HD
HETATM   15  C5  UNL     1      13.295  58.125   1.643  1.00  0.00     0.014 A 
HETATM   16  C7  UNL     1      12.723  60.126   0.191  1.00  0.00     0.070 C 
HETATM   17  C4  UNL     1      13.639  58.886   2.786  1.00  0.00     0.016 A 
HETATM   18  C21 UNL     1      13.372  56.731   1.685  1.00  0.00     0.061 A 
HETATM   19  C3  UNL     1      14.052  58.258   3.960  1.00  0.00     0.008 A 
HETATM   20  C2  UNL     1      14.117  56.867   4.015  1.00  0.00    -0.060 A 
HETATM   21  C1  UNL     1      14.581  56.165   5.257  1.00  0.00     0.048 C 
HETATM   22  C22 UNL     1      13.786  56.128   2.869  1.00  0.00     0.037 A 
HETATM   23  N9  UNL     1      13.065  55.954   0.639  1.00  0.00    -0.190 N 
ATOM     24  H9  UNL     1      13.134  54.938   0.706  1.00  0.00     0.184 HD
ENDBRANCH   9  11
ENDBRANCH   1   9
BRANCH   4  25
HETATM   25  O1  UNL     1      15.823  52.879  -2.769  1.00  0.00    -0.346 OA
HETATM   26  H10 UNL     1      16.114  53.797  -2.607  1.00  0.00     0.219 HD
ENDBRANCH   4  25
BRANCH   6  27
HETATM   27  C13 UNL     1      11.308  51.119  -2.303  1.00  0.00     0.140 C 
BRANCH  27  28
HETATM   28  S1  UNL     1      11.844  49.517  -1.631  1.00  0.00    -0.085 SA
BRANCH  28  29
HETATM   29  C14 UNL     1      10.313  48.737  -1.429  1.00  0.00     0.177 A 
HETATM   30  N4  UNL     1       9.751  48.568  -0.253  1.00  0.00    -0.264 N 
HETATM   31  N5  UNL     1       8.512  48.051  -0.493  1.00  0.00    -0.006 NA
ATOM     32  H4  UNL     1      10.160  48.780   0.657  1.00  0.00     0.186 HD
HETATM   33  N6  UNL     1       8.303  47.899  -1.791  1.00  0.00     0.001 NA
HETATM   34  N7  UNL     1       9.452  48.277  -2.421  1.00  0.00    -0.219 N 
BRANCH  34  35
HETATM   35  C15 UNL     1       9.558  48.147  -3.836  1.00  0.00     0.056 A 
HETATM   36  C16 UNL     1      10.351  47.175  -4.456  1.00  0.00     0.031 A 
HETATM   37  C17 UNL     1      10.415  47.097  -5.851  1.00  0.00     0.002 A 
HETATM   38  C18 UNL     1       9.685  47.979  -6.642  1.00  0.00     0.000 A 
HETATM   39  C19 UNL     1       8.878  48.940  -6.041  1.00  0.00     0.002 A 
HETATM   40  C20 UNL     1       8.810  49.022  -4.649  1.00  0.00     0.031 A 
ENDBRANCH  34  35
ENDBRANCH  28  29
ENDBRANCH  27  28
ENDBRANCH   6  27
TORSDOF 7
ENDMDL
MODEL 2
REMARK minimizedAffinity -8.20275211
REMARK CNNscore 0.593025684
REMARK CNNaffinity 5.82519722
REMARK  7 active torsions:
REMARK  status: ('A' for Active; 'I' for Inactive)
REMARK    1  A    between atoms: C8_10  and  N2_11 
REMARK    2  A    between atoms: N2_11  and  C9_12 
REMARK    3  A    between atoms: C10_15  and  O1_16 
REMARK    4  A    between atoms: C12_18  and  C13_19 
REMARK    5  A    between atoms: C13_19  and  S1_20 
REMARK    6  A    between atoms: S1_20  and  C14_21 
REMARK    7  A    between atoms: N7_26  and  C15_27 
ROOT
HETATM    1  C9  UNL     1      12.107  51.871  -2.485  1.00  0.00     0.699 A 
HETATM    2  N3  UNL     1      13.373  51.458  -2.603  1.00  0.00    -0.170 N 
ATOM      3  H3  UNL     1      14.100  52.057  -2.991  1.00  0.00     0.186 HD
HETATM    4  C10 UNL     1      13.632  50.220  -2.185  1.00  0.00     0.157 A 
HETATM    5  C11 UNL     1      12.723  49.349  -1.663  1.00  0.00     0.082 A 
HETATM    6  C12 UNL     1      11.442  49.841  -1.573  1.00  0.00     0.040 A 
HETATM    7  N8  UNL     1      11.124  51.091  -1.989  1.00  0.00    -0.194 N 
ATOM      8  H8  UNL     1      10.166  51.434  -1.928  1.00  0.00     0.184 HD
ENDROOT
BRANCH   1   9
HETATM    9  N2  UNL     1      11.714  53.130  -2.883  1.00  0.00    -0.022 N 
HETATM   10  H9  UNL     1      11.165  53.140  -3.723  1.00  0.00     0.203 HD
BRANCH   9  11
HETATM   11  C8  UNL     1      11.902  54.379  -2.331  1.00  0.00     0.697 A 
HETATM   12  N1  UNL     1      11.089  55.405  -2.610  1.00  0.00    -0.194 N 
HETATM   13  C6  UNL     1      11.335  56.596  -2.026  1.00  0.00     0.035 A 
ATOM     14  H1  UNL     1      10.302  55.289  -3.248  1.00  0.00     0.184 HD
HETATM   15  C5  UNL     1      12.398  56.794  -1.140  1.00  0.00     0.014 A 
HETATM   16  C7  UNL     1      10.385  57.699  -2.391  1.00  0.00     0.070 C 
HETATM   17  C4  UNL     1      12.712  58.014  -0.493  1.00  0.00     0.016 A 
HETATM   18  C21 UNL     1      13.183  55.662  -0.909  1.00  0.00     0.061 A 
HETATM   19  C3  UNL     1      13.797  58.099   0.378  1.00  0.00     0.008 A 
HETATM   20  C2  UNL     1      14.576  56.970   0.624  1.00  0.00    -0.060 A 
HETATM   21  C1  UNL     1      15.765  57.038   1.536  1.00  0.00     0.048 C 
HETATM   22  C22 UNL     1      14.261  55.771  -0.035  1.00  0.00     0.037 A 
HETATM   23  N9  UNL     1      12.944  54.480  -1.491  1.00  0.00    -0.190 N 
ATOM     24  H9  UNL     1      13.540  53.674  -1.300  1.00  0.00     0.184 HD
ENDBRANCH   9  11
ENDBRANCH   1   9
BRANCH   4  25
HETATM   25  O1  UNL     1      14.931  49.856  -2.328  1.00  0.00    -0.346 OA
HETATM   26  H10 UNL     1      15.292  50.687  -2.695  1.00  0.00     0.219 HD
ENDBRANCH   4  25
BRANCH   6  27
HETATM   27  C13 UNL     1      10.318  48.995  -1.034  1.00  0.00     0.140 C 
BRANCH  27  28
HETATM   28  S1  UNL     1       9.726  47.712  -2.178  1.00  0.00    -0.085 SA
BRANCH  28  29
HETATM   29  C14 UNL     1      10.441  46.307  -1.465  1.00  0.00     0.177 A 
HETATM   30  N4  UNL     1      11.375  46.376  -0.543  1.00  0.00    -0.264 N 
HETATM   31  N5  UNL     1      11.594  45.095  -0.126  1.00  0.00    -0.006 NA
ATOM     32  H4  UNL     1      11.843  47.217  -0.207  1.00  0.00     0.186 HD
HETATM   33  N6  UNL     1      10.815  44.245  -0.774  1.00  0.00     0.001 NA
HETATM   34  N7  UNL     1      10.100  44.975  -1.677  1.00  0.00    -0.219 N 
BRANCH  34  35
HETATM   35  C15 UNL     1       9.222  44.315  -2.585  1.00  0.00     0.056 A 
HETATM   36  C16 UNL     1       8.323  44.999  -3.411  1.00  0.00     0.031 A 
HETATM   37  C17 UNL     1       7.485  44.294  -4.282  1.00  0.00     0.002 A 
HETATM   38  C18 UNL     1       7.541  42.906  -4.347  1.00  0.00     0.000 A 
HETATM   39  C19 UNL     1       8.441  42.212  -3.546  1.00  0.00     0.002 A 
HETATM   40  C20 UNL     1       9.280  42.910  -2.674  1.00  0.00     0.031 A 
ENDBRANCH  34  35
ENDBRANCH  28  29
ENDBRANCH  27  28
ENDBRANCH   6  27
TORSDOF 7
ENDMDL
MODEL 3
REMARK minimizedAffinity -7.97600842
REMARK CNNscore 0.559545875
REMARK CNNaffinity 6.18734121
REMARK  7 active torsions:
REMARK  status: ('A' for Active; 'I' for Inactive)
REMARK    1  A    between atoms: C8_10  and  N2_11 
REMARK    2  A    between atoms: N2_11  and  C9_12 
REMARK    3  A    between atoms: C10_15  and  O1_16 
REMARK    4  A    between atoms: C12_18  and  C13_19 
REMARK    5  A    between atoms: C13_19  and  S1_20 
REMARK    6  A    between atoms: S1_20  and  C14_21 
REMARK    7  A    between atoms: N7_26  and  C15_27 
ROOT
HETATM    1  C9  UNL     1      12.737  53.913  -2.237  1.00  0.00     0.699 A 
HETATM    2  N3  UNL     1      14.023  53.694  -2.528  1.00  0.00    -0.170 N 
ATOM      3  H3  UNL     1      14.688  54.459  -2.640  1.00  0.00     0.186 HD
HETATM    4  C10 UNL     1      14.391  52.421  -2.663  1.00  0.00     0.157 A 
HETATM    5  C11 UNL     1      13.572  51.338  -2.541  1.00  0.00     0.082 A 
HETATM    6  C12 UNL     1      12.263  51.639  -2.243  1.00  0.00     0.040 A 
HETATM    7  N8  UNL     1      11.837  52.918  -2.100  1.00  0.00    -0.194 N 
ATOM      8  H8  UNL     1      10.859  53.123  -1.894  1.00  0.00     0.184 HD
ENDROOT
BRANCH   1   9
HETATM    9  N2  UNL     1      12.236  55.186  -2.075  1.00  0.00    -0.022 N 
HETATM   10  H9  UNL     1      11.497  55.418  -2.711  1.00  0.00     0.203 HD
BRANCH   9  11
HETATM   11  C8  UNL     1      12.534  56.193  -1.181  1.00  0.00     0.697 A 
HETATM   12  N1  UNL     1      12.438  57.485  -1.515  1.00  0.00    -0.194 N 
HETATM   13  C6  UNL     1      12.742  58.413  -0.584  1.00  0.00     0.035 A 
ATOM     14  H1  UNL     1      12.142  57.762  -2.451  1.00  0.00     0.184 HD
HETATM   15  C5  UNL     1      13.143  58.075   0.712  1.00  0.00     0.014 A 
HETATM   16  C7  UNL     1      12.616  59.840  -1.033  1.00  0.00     0.070 C 
HETATM   17  C4  UNL     1      13.475  58.995   1.735  1.00  0.00     0.016 A 
HETATM   18  C21 UNL     1      13.205  56.702   0.963  1.00  0.00     0.061 A 
HETATM   19  C3  UNL     1      13.860  58.547   2.997  1.00  0.00     0.008 A 
HETATM   20  C2  UNL     1      13.911  57.180   3.260  1.00  0.00    -0.060 A 
HETATM   21  C1  UNL     1      14.347  56.668   4.601  1.00  0.00     0.048 C 
HETATM   22  C22 UNL     1      13.592  56.279   2.231  1.00  0.00     0.037 A 
HETATM   23  N9  UNL     1      12.909  55.780   0.039  1.00  0.00    -0.190 N 
ATOM     24  H9  UNL     1      12.967  54.785   0.258  1.00  0.00     0.184 HD
ENDBRANCH   9  11
ENDBRANCH   1   9
BRANCH   4  25
HETATM   25  O1  UNL     1      15.706  52.260  -2.956  1.00  0.00    -0.346 OA
HETATM   26  H10 UNL     1      15.988  53.195  -2.949  1.00  0.00     0.219 HD
ENDBRANCH   4  25
BRANCH   6  27
HETATM   27  C13 UNL     1      11.228  50.555  -2.093  1.00  0.00     0.140 C 
BRANCH  27  28
HETATM   28  S1  UNL     1      11.902  48.928  -1.641  1.00  0.00    -0.085 SA
BRANCH  28  29
HETATM   29  C14 UNL     1      10.469  48.147  -1.068  1.00  0.00     0.177 A 
HETATM   30  N4  UNL     1       9.575  48.759  -0.322  1.00  0.00    -0.264 N 
HETATM   31  N5  UNL     1       8.535  47.888  -0.181  1.00  0.00    -0.006 NA
ATOM     32  H4  UNL     1       9.646  49.697   0.072  1.00  0.00     0.186 HD
HETATM   33  N6  UNL     1       8.773  46.756  -0.823  1.00  0.00     0.001 NA
HETATM   34  N7  UNL     1      10.022  46.862  -1.358  1.00  0.00    -0.219 N 
BRANCH  34  35
HETATM   35  C15 UNL     1      10.592  45.753  -2.049  1.00  0.00     0.056 A 
HETATM   36  C16 UNL     1      11.587  45.891  -3.024  1.00  0.00     0.031 A 
HETATM   37  C17 UNL     1      12.108  44.764  -3.669  1.00  0.00     0.002 A 
HETATM   38  C18 UNL     1      11.651  43.490  -3.344  1.00  0.00     0.000 A 
HETATM   39  C19 UNL     1      10.675  43.335  -2.365  1.00  0.00     0.002 A 
HETATM   40  C20 UNL     1      10.152  44.456  -1.718  1.00  0.00     0.031 A 
ENDBRANCH  34  35
ENDBRANCH  28  29
ENDBRANCH  27  28
ENDBRANCH   6  27
TORSDOF 7
ENDMDL
MODEL 4
REMARK minimizedAffinity -7.75345421
REMARK CNNscore 0.506643474
REMARK CNNaffinity 5.65180206
REMARK  7 active torsions:
REMARK  status: ('A' for Active; 'I' for Inactive)
REMARK    1  A    between atoms: C8_10  and  N2_11 
REMARK    2  A    between atoms: N2_11  and  C9_12 
REMARK    3  A    between atoms: C10_15  and  O1_16 
REMARK    4  A    between atoms: C12_18  and  C13_19 
REMARK    5  A    between atoms: C13_19  and  S1_20 
REMARK    6  A    between atoms: S1_20  and  C14_21 
REMARK    7  A    between atoms: N7_26  and  C15_27 
ROOT
HETATM    1  C9  UNL     1      11.944  51.538  -2.453  1.00  0.00     0.699 A 
HETATM    2  N3  UNL     1      10.868  51.561  -3.246  1.00  0.00    -0.170 N 
ATOM      3  H3  UNL     1      10.523  52.427  -3.659  1.00  0.00     0.186 HD
HETATM    4  C10 UNL     1      10.272  50.392  -3.468  1.00  0.00     0.157 A 
HETATM    5  C11 UNL     1      10.657  49.191  -2.952  1.00  0.00     0.082 A 
HETATM    6  C12 UNL     1      11.769  49.243  -2.145  1.00  0.00     0.040 A 
HETATM    7  N8  UNL     1      12.410  50.408  -1.883  1.00  0.00    -0.194 N 
ATOM      8  H8  UNL     1      13.225  50.430  -1.270  1.00  0.00     0.184 HD
ENDROOT
BRANCH   1   9
HETATM    9  N2  UNL     1      12.646  52.683  -2.148  1.00  0.00    -0.022 N 
HETATM   10  H9  UNL     1      13.613  52.526  -1.934  1.00  0.00     0.203 HD
BRANCH   9  11
HETATM   11  C8  UNL     1      12.282  54.013  -2.113  1.00  0.00     0.697 A 
HETATM   12  N1  UNL     1      12.637  54.816  -1.103  1.00  0.00    -0.194 N 
HETATM   13  C6  UNL     1      12.246  56.108  -1.143  1.00  0.00     0.035 A 
ATOM     14  H1  UNL     1      13.189  54.462  -0.323  1.00  0.00     0.184 HD
HETATM   15  C5  UNL     1      11.496  56.634  -2.198  1.00  0.00     0.014 A 
HETATM   16  C7  UNL     1      12.677  56.946   0.026  1.00  0.00     0.070 C 
HETATM   17  C4  UNL     1      11.055  57.976  -2.302  1.00  0.00     0.016 A 
HETATM   18  C21 UNL     1      11.182  55.719  -3.205  1.00  0.00     0.061 A 
HETATM   19  C3  UNL     1      10.312  58.397  -3.404  1.00  0.00     0.008 A 
HETATM   20  C2  UNL     1      10.008  57.492  -4.420  1.00  0.00    -0.060 A 
HETATM   21  C1  UNL     1       9.189  57.910  -5.604  1.00  0.00     0.048 C 
HETATM   22  C22 UNL     1      10.440  56.162  -4.295  1.00  0.00     0.037 A 
HETATM   23  N9  UNL     1      11.564  54.436  -3.165  1.00  0.00    -0.190 N 
ATOM     24  H9  UNL     1      11.315  53.794  -3.918  1.00  0.00     0.184 HD
ENDBRANCH   9  11
ENDBRANCH   1   9
BRANCH   4  25
HETATM   25  O1  UNL     1       9.187  50.477  -4.279  1.00  0.00    -0.346 OA
HETATM   26  H10 UNL     1       9.207  51.433  -4.476  1.00  0.00     0.219 HD
ENDBRANCH   4  25
BRANCH   6  27
HETATM   27  C13 UNL     1      12.312  48.003  -1.483  1.00  0.00     0.140 C 
BRANCH  27  28
HETATM   28  S1  UNL     1      12.150  46.487  -2.474  1.00  0.00    -0.085 SA
BRANCH  28  29
HETATM   29  C14 UNL     1      11.036  45.595  -1.497  1.00  0.00     0.177 A 
HETATM   30  N4  UNL     1      10.663  45.993  -0.300  1.00  0.00    -0.264 N 
HETATM   31  N5  UNL     1       9.690  45.126   0.103  1.00  0.00    -0.006 NA
ATOM     32  H4  UNL     1      11.028  46.789   0.221  1.00  0.00     0.186 HD
HETATM   33  N6  UNL     1       9.461  44.205  -0.819  1.00  0.00     0.001 NA
HETATM   34  N7  UNL     1      10.339  44.440  -1.835  1.00  0.00    -0.219 N 
BRANCH  34  35
HETATM   35  C15 UNL     1      10.384  43.552  -2.950  1.00  0.00     0.056 A 
HETATM   36  C16 UNL     1      10.787  42.216  -2.845  1.00  0.00     0.031 A 
HETATM   37  C17 UNL     1      10.811  41.393  -3.976  1.00  0.00     0.002 A 
HETATM   38  C18 UNL     1      10.425  41.887  -5.218  1.00  0.00     0.000 A 
HETATM   39  C19 UNL     1      10.005  43.208  -5.335  1.00  0.00     0.002 A 
HETATM   40  C20 UNL     1       9.979  44.034  -4.210  1.00  0.00     0.031 A 
ENDBRANCH  34  35
ENDBRANCH  28  29
ENDBRANCH  27  28
ENDBRANCH   6  27
TORSDOF 7
ENDMDL
MODEL 5
REMARK minimizedAffinity -8.53970718
REMARK CNNscore 0.467474371
REMARK CNNaffinity 6.05948782
REMARK  7 active torsions:
REMARK  status: ('A' for Active; 'I' for Inactive)
REMARK    1  A    between atoms: C8_10  and  N2_11 
REMARK    2  A    between atoms: N2_11  and  C9_12 
REMARK    3  A    between atoms: C10_15  and  O1_16 
REMARK    4  A    between atoms: C12_18  and  C13_19 
REMARK    5  A    between atoms: C13_19  and  S1_20 
REMARK    6  A    between atoms: S1_20  and  C14_21 
REMARK    7  A    between atoms: N7_26  and  C15_27 
ROOT
HETATM    1  C9  UNL     1      12.598  54.276  -2.252  1.00  0.00     0.699 A 
HETATM    2  N3  UNL     1      11.589  54.557  -3.083  1.00  0.00    -0.170 N 
ATOM      3  H3  UNL     1      11.403  53.994  -3.912  1.00  0.00     0.186 HD
HETATM    4  C10 UNL     1      10.840  55.612  -2.768  1.00  0.00     0.157 A 
HETATM    5  C11 UNL     1      11.022  56.424  -1.689  1.00  0.00     0.082 A 
HETATM    6  C12 UNL     1      12.078  56.076  -0.879  1.00  0.00     0.040 A 
HETATM    7  N8  UNL     1      12.874  55.014  -1.157  1.00  0.00    -0.194 N 
ATOM      8  H8  UNL     1      13.662  54.780  -0.554  1.00  0.00     0.184 HD
ENDROOT
BRANCH   1   9
HETATM    9  N2  UNL     1      13.443  53.211  -2.471  1.00  0.00    -0.022 N 
HETATM   10  H9  UNL     1      14.351  53.472  -2.807  1.00  0.00     0.203 HD
BRANCH   9  11
HETATM   11  C8  UNL     1      13.293  51.852  -2.284  1.00  0.00     0.697 A 
HETATM   12  N1  UNL     1      14.305  50.997  -2.471  1.00  0.00    -0.194 N 
HETATM   13  C6  UNL     1      14.081  49.682  -2.263  1.00  0.00     0.035 A 
ATOM     14  H1  UNL     1      15.223  51.331  -2.764  1.00  0.00     0.184 HD
HETATM   15  C5  UNL     1      12.841  49.187  -1.854  1.00  0.00     0.014 A 
HETATM   16  C7  UNL     1      15.261  48.785  -2.499  1.00  0.00     0.070 C 
HETATM   17  C4  UNL     1      12.538  47.824  -1.618  1.00  0.00     0.016 A 
HETATM   18  C21 UNL     1      11.853  50.159  -1.680  1.00  0.00     0.061 A 
HETATM   19  C3  UNL     1      11.263  47.439  -1.207  1.00  0.00     0.008 A 
HETATM   20  C2  UNL     1      10.276  48.404  -1.017  1.00  0.00    -0.060 A 
HETATM   21  C1  UNL     1       8.889  48.017  -0.600  1.00  0.00     0.048 C 
HETATM   22  C22 UNL     1      10.588  49.750  -1.269  1.00  0.00     0.037 A 
HETATM   23  N9  UNL     1      12.071  51.463  -1.890  1.00  0.00    -0.190 N 
ATOM     24  H9  UNL     1      11.325  52.145  -1.754  1.00  0.00     0.184 HD
ENDBRANCH   9  11
ENDBRANCH   1   9
BRANCH   4  25
HETATM   25  O1  UNL     1       9.833  55.848  -3.646  1.00  0.00    -0.346 OA
HETATM   26  H10 UNL     1       9.974  55.100  -4.258  1.00  0.00     0.219 HD
ENDBRANCH   4  25
BRANCH   6  27
HETATM   27  C13 UNL     1      12.422  56.884   0.345  1.00  0.00     0.140 C 
BRANCH  27  28
HETATM   28  S1  UNL     1      13.990  56.418   1.138  1.00  0.00    -0.085 SA
BRANCH  28  29
HETATM   29  C14 UNL     1      13.782  57.151   2.691  1.00  0.00     0.177 A 
HETATM   30  N4  UNL     1      13.149  58.291   2.860  1.00  0.00    -0.264 N 
HETATM   31  N5  UNL     1      13.063  58.484   4.208  1.00  0.00    -0.006 NA
ATOM     32  H4  UNL     1      12.794  58.908   2.130  1.00  0.00     0.186 HD
HETATM   33  N6  UNL     1      13.631  57.487   4.867  1.00  0.00     0.001 NA
HETATM   34  N7  UNL     1      14.150  56.642   3.932  1.00  0.00    -0.219 N 
BRANCH  34  35
HETATM   35  C15 UNL     1      14.900  55.502   4.347  1.00  0.00     0.056 A 
HETATM   36  C16 UNL     1      14.313  54.377   4.936  1.00  0.00     0.031 A 
HETATM   37  C17 UNL     1      15.102  53.288   5.323  1.00  0.00     0.002 A 
HETATM   38  C18 UNL     1      16.479  53.305   5.119  1.00  0.00     0.000 A 
HETATM   39  C19 UNL     1      17.074  54.409   4.519  1.00  0.00     0.002 A 
HETATM   40  C20 UNL     1      16.292  55.499   4.130  1.00  0.00     0.031 A 
ENDBRANCH  34  35
ENDBRANCH  28  29
ENDBRANCH  27  28
ENDBRANCH   6  27
TORSDOF 7
ENDMDL
MODEL 6
REMARK minimizedAffinity -8.37075424
REMARK CNNscore 0.443617642
REMARK CNNaffinity 5.57673645
REMARK  7 active torsions:
REMARK  status: ('A' for Active; 'I' for Inactive)
REMARK    1  A    between atoms: C8_10  and  N2_11 
REMARK    2  A    between atoms: N2_11  and  C9_12 
REMARK    3  A    between atoms: C10_15  and  O1_16 
REMARK    4  A    between atoms: C12_18  and  C13_19 
REMARK    5  A    between atoms: C13_19  and  S1_20 
REMARK    6  A    between atoms: S1_20  and  C14_21 
REMARK    7  A    between atoms: N7_26  and  C15_27 
ROOT
HETATM    1  C9  UNL     1      11.922  51.716  -2.429  1.00  0.00     0.699 A 
HETATM    2  N3  UNL     1      10.888  51.769  -3.275  1.00  0.00    -0.170 N 
ATOM      3  H3  UNL     1      10.567  52.648  -3.678  1.00  0.00     0.186 HD
HETATM    4  C10 UNL     1      10.300  50.609  -3.563  1.00  0.00     0.157 A 
HETATM    5  C11 UNL     1      10.654  49.391  -3.065  1.00  0.00     0.082 A 
HETATM    6  C12 UNL     1      11.724  49.413  -2.201  1.00  0.00     0.040 A 
HETATM    7  N8  UNL     1      12.355  50.567  -1.870  1.00  0.00    -0.194 N 
ATOM      8  H8  UNL     1      13.136  50.566  -1.216  1.00  0.00     0.184 HD
ENDROOT
BRANCH   1   9
HETATM    9  N2  UNL     1      12.611  52.848  -2.053  1.00  0.00    -0.022 N 
HETATM   10  H9  UNL     1      13.553  52.673  -1.756  1.00  0.00     0.203 HD
BRANCH   9  11
HETATM   11  C8  UNL     1      12.265  54.183  -2.039  1.00  0.00     0.697 A 
HETATM   12  N1  UNL     1      12.633  54.998  -1.044  1.00  0.00    -0.194 N 
HETATM   13  C6  UNL     1      12.261  56.294  -1.104  1.00  0.00     0.035 A 
ATOM     14  H1  UNL     1      13.182  54.649  -0.259  1.00  0.00     0.184 HD
HETATM   15  C5  UNL     1      11.516  56.813  -2.166  1.00  0.00     0.014 A 
HETATM   16  C7  UNL     1      12.705  57.145   0.050  1.00  0.00     0.070 C 
HETATM   17  C4  UNL     1      11.093  58.158  -2.292  1.00  0.00     0.016 A 
HETATM   18  C21 UNL     1      11.187  55.885  -3.157  1.00  0.00     0.061 A 
HETATM   19  C3  UNL     1      10.354  58.571  -3.400  1.00  0.00     0.008 A 
HETATM   20  C2  UNL     1      10.035  57.654  -4.400  1.00  0.00    -0.060 A 
HETATM   21  C1  UNL     1       9.219  58.064  -5.590  1.00  0.00     0.048 C 
HETATM   22  C22 UNL     1      10.449  56.321  -4.253  1.00  0.00     0.037 A 
HETATM   23  N9  UNL     1      11.551  54.598  -3.097  1.00  0.00    -0.190 N 
ATOM     24  H9  UNL     1      11.293  53.947  -3.839  1.00  0.00     0.184 HD
ENDBRANCH   9  11
ENDBRANCH   1   9
BRANCH   4  25
HETATM   25  O1  UNL     1       9.259  50.724  -4.425  1.00  0.00    -0.346 OA
HETATM   26  H10 UNL     1       9.292  51.686  -4.591  1.00  0.00     0.219 HD
ENDBRANCH   4  25
BRANCH   6  27
HETATM   27  C13 UNL     1      12.227  48.151  -1.550  1.00  0.00     0.140 C 
BRANCH  27  28
HETATM   28  S1  UNL     1      12.231  46.693  -2.637  1.00  0.00    -0.085 SA
BRANCH  28  29
HETATM   29  C14 UNL     1      11.195  45.636  -1.742  1.00  0.00     0.177 A 
HETATM   30  N4  UNL     1      11.601  44.972  -0.682  1.00  0.00    -0.264 N 
HETATM   31  N5  UNL     1      10.494  44.362  -0.168  1.00  0.00    -0.006 NA
ATOM     32  H4  UNL     1      12.552  44.922  -0.318  1.00  0.00     0.186 HD
HETATM   33  N6  UNL     1       9.421  44.637  -0.890  1.00  0.00     0.001 NA
HETATM   34  N7  UNL     1       9.837  45.406  -1.936  1.00  0.00    -0.219 N 
BRANCH  34  35
HETATM   35  C15 UNL     1       8.905  45.798  -2.941  1.00  0.00     0.056 A 
HETATM   36  C16 UNL     1       8.553  44.975  -4.017  1.00  0.00     0.031 A 
HETATM   37  C17 UNL     1       7.631  45.416  -4.973  1.00  0.00     0.002 A 
HETATM   38  C18 UNL     1       7.044  46.673  -4.862  1.00  0.00     0.000 A 
HETATM   39  C19 UNL     1       7.370  47.495  -3.788  1.00  0.00     0.002 A 
HETATM   40  C20 UNL     1       8.290  47.061  -2.831  1.00  0.00     0.031 A 
ENDBRANCH  34  35
ENDBRANCH  28  29
ENDBRANCH  27  28
ENDBRANCH   6  27
TORSDOF 7
ENDMDL
MODEL 7
REMARK minimizedAffinity -7.695858
REMARK CNNscore 0.421854317
REMARK CNNaffinity 5.82349634
REMARK  7 active torsions:
REMARK  status: ('A' for Active; 'I' for Inactive)
REMARK    1  A    between atoms: C8_10  and  N2_11 
REMARK    2  A    between atoms: N2_11  and  C9_12 
REMARK    3  A    between atoms: C10_15  and  O1_16 
REMARK    4  A    between atoms: C12_18  and  C13_19 
REMARK    5  A    between atoms: C13_19  and  S1_20 
REMARK    6  A    between atoms: S1_20  and  C14_21 
REMARK    7  A    between atoms: N7_26  and  C15_27 
ROOT
HETATM    1  C9  UNL     1      12.388  53.047  -2.421  1.00  0.00     0.699 A 
HETATM    2  N3  UNL     1      13.656  52.734  -2.706  1.00  0.00    -0.170 N 
ATOM      3  H3  UNL     1      14.334  53.441  -2.986  1.00  0.00     0.186 HD
HETATM    4  C10 UNL     1      13.985  51.448  -2.603  1.00  0.00     0.157 A 
HETATM    5  C11 UNL     1      13.144  50.436  -2.246  1.00  0.00     0.082 A 
HETATM    6  C12 UNL     1      11.856  50.832  -1.968  1.00  0.00     0.040 A 
HETATM    7  N8  UNL     1      11.468  52.127  -2.063  1.00  0.00    -0.194 N 
ATOM      8  H8  UNL     1      10.505  52.399  -1.869  1.00  0.00     0.184 HD
ENDROOT
BRANCH   1   9
HETATM    9  N2  UNL     1      11.926  54.343  -2.493  1.00  0.00    -0.022 N 
HETATM   10  H9  UNL     1      11.197  54.480  -3.167  1.00  0.00     0.203 HD
BRANCH   9  11
HETATM   11  C8  UNL     1      12.251  55.484  -1.790  1.00  0.00     0.697 A 
HETATM   12  N1  UNL     1      12.707  55.434  -0.533  1.00  0.00    -0.194 N 
HETATM   13  C6  UNL     1      13.009  56.594   0.087  1.00  0.00     0.035 A 
ATOM     14  H1  UNL     1      12.825  54.541  -0.055  1.00  0.00     0.184 HD
HETATM   15  C5  UNL     1      12.870  57.837  -0.535  1.00  0.00     0.014 A 
HETATM   16  C7  UNL     1      13.509  56.459   1.496  1.00  0.00     0.070 C 
HETATM   17  C4  UNL     1      13.167  59.090   0.055  1.00  0.00     0.016 A 
HETATM   18  C21 UNL     1      12.393  57.783  -1.847  1.00  0.00     0.061 A 
HETATM   19  C3  UNL     1      12.994  60.273  -0.661  1.00  0.00     0.008 A 
HETATM   20  C2  UNL     1      12.533  60.226  -1.975  1.00  0.00    -0.060 A 
HETATM   21  C1  UNL     1      12.314  61.484  -2.761  1.00  0.00     0.048 C 
HETATM   22  C22 UNL     1      12.230  58.978  -2.542  1.00  0.00     0.037 A 
HETATM   23  N9  UNL     1      12.089  56.633  -2.463  1.00  0.00    -0.190 N 
ATOM     24  H9  UNL     1      11.742  56.631  -3.422  1.00  0.00     0.184 HD
ENDBRANCH   9  11
ENDBRANCH   1   9
BRANCH   4  25
HETATM   25  O1  UNL     1      15.283  51.190  -2.903  1.00  0.00    -0.346 OA
HETATM   26  H10 UNL     1      15.590  52.099  -3.087  1.00  0.00     0.219 HD
ENDBRANCH   4  25
BRANCH   6  27
HETATM   27  C13 UNL     1      10.800  49.831  -1.576  1.00  0.00     0.140 C 
BRANCH  27  28
HETATM   28  S1  UNL     1      10.870  48.264  -2.495  1.00  0.00    -0.085 SA
BRANCH  28  29
HETATM   29  C14 UNL     1      10.121  47.202  -1.353  1.00  0.00     0.177 A 
HETATM   30  N4  UNL     1       9.426  47.638  -0.326  1.00  0.00    -0.264 N 
HETATM   31  N5  UNL     1       8.881  46.534   0.262  1.00  0.00    -0.006 NA
ATOM     32  H4  UNL     1       9.316  48.607  -0.029  1.00  0.00     0.186 HD
HETATM   33  N6  UNL     1       9.229  45.432  -0.382  1.00  0.00     0.001 NA
HETATM   34  N7  UNL     1      10.065  45.812  -1.389  1.00  0.00    -0.219 N 
BRANCH  34  35
HETATM   35  C15 UNL     1      10.671  44.822  -2.216  1.00  0.00     0.056 A 
HETATM   36  C16 UNL     1      11.619  45.127  -3.200  1.00  0.00     0.031 A 
HETATM   37  C17 UNL     1      12.179  44.110  -3.982  1.00  0.00     0.002 A 
HETATM   38  C18 UNL     1      11.811  42.783  -3.785  1.00  0.00     0.000 A 
HETATM   39  C19 UNL     1      10.884  42.462  -2.799  1.00  0.00     0.002 A 
HETATM   40  C20 UNL     1      10.321  43.472  -2.016  1.00  0.00     0.031 A 
ENDBRANCH  34  35
ENDBRANCH  28  29
ENDBRANCH  27  28
ENDBRANCH   6  27
TORSDOF 7
ENDMDL
MODEL 8
REMARK minimizedAffinity -7.85767174
REMARK CNNscore 0.40639165
REMARK CNNaffinity 5.69253731
REMARK  7 active torsions:
REMARK  status: ('A' for Active; 'I' for Inactive)
REMARK    1  A    between atoms: C8_10  and  N2_11 
REMARK    2  A    between atoms: N2_11  and  C9_12 
REMARK    3  A    between atoms: C10_15  and  O1_16 
REMARK    4  A    between atoms: C12_18  and  C13_19 
REMARK    5  A    between atoms: C13_19  and  S1_20 
REMARK    6  A    between atoms: S1_20  and  C14_21 
REMARK    7  A    between atoms: N7_26  and  C15_27 
ROOT
HETATM    1  C9  UNL     1      12.414  53.030  -2.166  1.00  0.00     0.699 A 
HETATM    2  N3  UNL     1      13.727  52.786  -2.107  1.00  0.00    -0.170 N 
ATOM      3  H3  UNL     1      14.111  51.860  -2.296  1.00  0.00     0.186 HD
HETATM    4  C10 UNL     1      14.508  53.817  -1.790  1.00  0.00     0.157 A 
HETATM    5  C11 UNL     1      14.083  55.082  -1.513  1.00  0.00     0.082 A 
HETATM    6  C12 UNL     1      12.721  55.260  -1.591  1.00  0.00     0.040 A 
HETATM    7  N8  UNL     1      11.882  54.242  -1.905  1.00  0.00    -0.194 N 
ATOM      8  H8  UNL     1      10.874  54.389  -1.943  1.00  0.00     0.184 HD
ENDROOT
BRANCH   1   9
HETATM    9  N2  UNL     1      11.506  52.045  -2.482  1.00  0.00    -0.022 N 
HETATM   10  H9  UNL     1      10.744  52.359  -3.053  1.00  0.00     0.203 HD
BRANCH   9  11
HETATM   11  C8  UNL     1      11.460  50.697  -2.192  1.00  0.00     0.697 A 
HETATM   12  N1  UNL     1      10.522  50.179  -1.391  1.00  0.00    -0.194 N 
HETATM   13  C6  UNL     1      10.540  48.849  -1.158  1.00  0.00     0.035 A 
ATOM     14  H1  UNL     1       9.811  50.773  -0.965  1.00  0.00     0.184 HD
HETATM   15  C5  UNL     1      11.492  47.999  -1.728  1.00  0.00     0.014 A 
HETATM   16  C7  UNL     1       9.462  48.342  -0.246  1.00  0.00     0.070 C 
HETATM   17  C4  UNL     1      11.568  46.600  -1.528  1.00  0.00     0.016 A 
HETATM   18  C21 UNL     1      12.422  48.635  -2.554  1.00  0.00     0.061 A 
HETATM   19  C3  UNL     1      12.560  45.845  -2.150  1.00  0.00     0.008 A 
HETATM   20  C2  UNL     1      13.483  46.470  -2.987  1.00  0.00    -0.060 A 
HETATM   21  C1  UNL     1      14.577  45.687  -3.650  1.00  0.00     0.048 C 
HETATM   22  C22 UNL     1      13.403  47.860  -3.165  1.00  0.00     0.037 A 
HETATM   23  N9  UNL     1      12.409  49.955  -2.782  1.00  0.00    -0.190 N 
ATOM     24  H9  UNL     1      13.106  50.386  -3.390  1.00  0.00     0.184 HD
ENDBRANCH   9  11
ENDBRANCH   1   9
BRANCH   4  25
HETATM   25  O1  UNL     1      15.829  53.510  -1.747  1.00  0.00    -0.346 OA
HETATM   26  H10 UNL     1      15.784  52.569  -2.006  1.00  0.00     0.219 HD
ENDBRANCH   4  25
BRANCH   6  27
HETATM   27  C13 UNL     1      12.091  56.596  -1.296  1.00  0.00     0.140 C 
BRANCH  27  28
HETATM   28  S1  UNL     1      13.030  58.025  -1.914  1.00  0.00    -0.085 SA
BRANCH  28  29
HETATM   29  C14 UNL     1      12.772  59.148  -0.624  1.00  0.00     0.177 A 
HETATM   30  N4  UNL     1      12.120  60.278  -0.785  1.00  0.00    -0.264 N 
HETATM   31  N5  UNL     1      11.996  60.827   0.458  1.00  0.00    -0.006 NA
ATOM     32  H4  UNL     1      11.776  60.667  -1.663  1.00  0.00     0.186 HD
HETATM   33  N6  UNL     1      12.560  60.058   1.375  1.00  0.00     0.001 NA
HETATM   34  N7  UNL     1      13.113  59.001   0.717  1.00  0.00    -0.219 N 
BRANCH  34  35
HETATM   35  C15 UNL     1      13.866  58.031   1.441  1.00  0.00     0.056 A 
HETATM   36  C16 UNL     1      15.141  57.607   1.049  1.00  0.00     0.031 A 
HETATM   37  C17 UNL     1      15.831  56.651   1.803  1.00  0.00     0.002 A 
HETATM   38  C18 UNL     1      15.265  56.117   2.956  1.00  0.00     0.000 A 
HETATM   39  C19 UNL     1      14.007  56.542   3.369  1.00  0.00     0.002 A 
HETATM   40  C20 UNL     1      13.313  57.495   2.621  1.00  0.00     0.031 A 
ENDBRANCH  34  35
ENDBRANCH  28  29
ENDBRANCH  27  28
ENDBRANCH   6  27
TORSDOF 7
ENDMDL
MODEL 9
REMARK minimizedAffinity -7.46078539
REMARK CNNscore 0.351919502
REMARK CNNaffinity 6.02697039
REMARK  7 active torsions:
REMARK  status: ('A' for Active; 'I' for Inactive)
REMARK    1  A    between atoms: C8_10  and  N2_11 
REMARK    2  A    between atoms: N2_11  and  C9_12 
REMARK    3  A    between atoms: C10_15  and  O1_16 
REMARK    4  A    between atoms: C12_18  and  C13_19 
REMARK    5  A    between atoms: C13_19  and  S1_20 
REMARK    6  A    between atoms: S1_20  and  C14_21 
REMARK    7  A    between atoms: N7_26  and  C15_27 
ROOT
HETATM    1  C9  UNL     1      12.545  54.824  -1.908  1.00  0.00     0.699 A 
HETATM    2  N3  UNL     1      11.487  55.527  -2.324  1.00  0.00    -0.170 N 
ATOM      3  H3  UNL     1      10.962  55.267  -3.158  1.00  0.00     0.186 HD
HETATM    4  C10 UNL     1      11.155  56.587  -1.589  1.00  0.00     0.157 A 
HETATM    5  C11 UNL     1      11.803  57.013  -0.468  1.00  0.00     0.082 A 
HETATM    6  C12 UNL     1      12.881  56.243  -0.101  1.00  0.00     0.040 A 
HETATM    7  N8  UNL     1      13.264  55.158  -0.817  1.00  0.00    -0.194 N 
ATOM      8  H8  UNL     1      14.076  54.607  -0.538  1.00  0.00     0.184 HD
ENDROOT
BRANCH   1   9
HETATM    9  N2  UNL     1      12.986  53.709  -2.585  1.00  0.00    -0.022 N 
HETATM   10  H9  UNL     1      13.821  53.859  -3.120  1.00  0.00     0.203 HD
BRANCH   9  11
HETATM   11  C8  UNL     1      12.520  52.412  -2.642  1.00  0.00     0.697 A 
HETATM   12  N1  UNL     1      11.369  52.101  -3.250  1.00  0.00    -0.194 N 
HETATM   13  C6  UNL     1      10.981  50.808  -3.268  1.00  0.00     0.035 A 
ATOM     14  H1  UNL     1      10.799  52.823  -3.689  1.00  0.00     0.184 HD
HETATM   15  C5  UNL     1      11.738  49.789  -2.685  1.00  0.00     0.014 A 
HETATM   16  C7  UNL     1       9.678  50.538  -3.963  1.00  0.00     0.070 C 
HETATM   17  C4  UNL     1      11.391  48.416  -2.668  1.00  0.00     0.016 A 
HETATM   18  C21 UNL     1      12.924  50.214  -2.082  1.00  0.00     0.061 A 
HETATM   19  C3  UNL     1      12.224  47.479  -2.059  1.00  0.00     0.008 A 
HETATM   20  C2  UNL     1      13.416  47.894  -1.468  1.00  0.00    -0.060 A 
HETATM   21  C1  UNL     1      14.320  46.912  -0.783  1.00  0.00     0.048 C 
HETATM   22  C22 UNL     1      13.740  49.260  -1.481  1.00  0.00     0.037 A 
HETATM   23  N9  UNL     1      13.308  51.496  -2.058  1.00  0.00    -0.190 N 
ATOM     24  H9  UNL     1      14.181  51.771  -1.607  1.00  0.00     0.184 HD
ENDBRANCH   9  11
ENDBRANCH   1   9
BRANCH   4  25
HETATM   25  O1  UNL     1      10.075  57.260  -2.058  1.00  0.00    -0.346 OA
HETATM   26  H10 UNL     1       9.854  56.698  -2.826  1.00  0.00     0.219 HD
ENDBRANCH   4  25
BRANCH   6  27
HETATM   27  C13 UNL     1      13.714  56.592   1.105  1.00  0.00     0.140 C 
BRANCH  27  28
HETATM   28  S1  UNL     1      13.278  58.173   1.890  1.00  0.00    -0.085 SA
BRANCH  28  29
HETATM   29  C14 UNL     1      13.544  57.778   3.553  1.00  0.00     0.177 A 
HETATM   30  N4  UNL     1      13.982  56.601   3.943  1.00  0.00    -0.264 N 
HETATM   31  N5  UNL     1      14.198  56.700   5.286  1.00  0.00    -0.006 NA
ATOM     32  H4  UNL     1      14.130  55.779   3.358  1.00  0.00     0.186 HD
HETATM   33  N6  UNL     1      13.900  57.912   5.727  1.00  0.00     0.001 NA
HETATM   34  N7  UNL     1      13.428  58.614   4.658  1.00  0.00    -0.219 N 
BRANCH  34  35
HETATM   35  C15 UNL     1      12.948  59.944   4.842  1.00  0.00     0.056 A 
HETATM   36  C16 UNL     1      12.152  60.324   5.928  1.00  0.00     0.031 A 
HETATM   37  C17 UNL     1      11.711  61.646   6.054  1.00  0.00     0.002 A 
HETATM   38  C18 UNL     1      12.065  62.602   5.108  1.00  0.00     0.000 A 
HETATM   39  C19 UNL     1      12.870  62.244   4.032  1.00  0.00     0.002 A 
HETATM   40  C20 UNL     1      13.314  60.927   3.901  1.00  0.00     0.031 A 
ENDBRANCH  34  35
ENDBRANCH  28  29
ENDBRANCH  27  28
ENDBRANCH   6  27
TORSDOF 7
ENDMDL
