MODEL 1
REMARK minimizedAffinity -7.73970747
REMARK  3 active torsions:
REMARK  status: ('A' for Active; 'I' for Inactive)
REMARK    1  A    between atoms: N1_1  and  C1_2 
REMARK    2  A    between atoms: C2_5  and  N3_6 
REMARK    3  A    between atoms: N3_6  and  C3_7 
ROOT
HETATM    1  C1  UNL     1      12.486  36.053  16.160  1.00  0.00     0.156 A 
HETATM    2  N2  UNL     1      13.476  35.458  16.853  1.00  0.00    -0.318 N 
ATOM      3  H2  UNL     1      14.420  35.413  16.470  1.00  0.00     0.170 HD
HETATM    4  C2  UNL     1      13.199  34.923  18.058  1.00  0.00     0.117 A 
HETATM    5  C9  UNL     1      11.926  34.997  18.546  1.00  0.00     0.018 A 
HETATM    6  C10 UNL     1      10.979  35.617  17.746  1.00  0.00     0.055 A 
HETATM    7  N4  UNL     1      11.213  36.146  16.547  1.00  0.00    -0.332 N 
ATOM      8  H4  UNL     1      10.487  36.580  15.977  1.00  0.00     0.168 HD
HETATM    9  C11 UNL     1       9.701  35.602  18.418  1.00  0.00    -0.002 A 
HETATM   10  C12 UNL     1       8.467  36.089  18.028  1.00  0.00     0.014 A 
HETATM   11  C13 UNL     1       7.388  35.928  18.903  1.00  0.00     0.001 A 
HETATM   12  C14 UNL     1       7.556  35.291  20.145  1.00  0.00     0.001 A 
HETATM   13  C15 UNL     1       8.804  34.801  20.540  1.00  0.00     0.008 A 
HETATM   14  C16 UNL     1       9.866  34.964  19.667  1.00  0.00    -0.041 A 
HETATM   15  C17 UNL     1      11.312  34.536  19.839  1.00  0.00     0.084 A 
ENDROOT
BRANCH   4  16
HETATM   16  N3  UNL     1      14.199  34.299  18.837  1.00  0.00    -0.342 N 
HETATM   17  H3  UNL     1      14.695  33.616  18.274  1.00  0.00     0.167 HD
BRANCH  16  18
HETATM   18  C3  UNL     1      15.037  34.875  19.819  1.00  0.00     0.035 A 
HETATM   19  C4  UNL     1      14.768  34.791  21.191  1.00  0.00     0.029 A 
HETATM   20  C5  UNL     1      15.653  35.318  22.138  1.00  0.00     0.004 A 
HETATM   21  C6  UNL     1      16.838  35.920  21.725  1.00  0.00     0.024 A 
HETATM   22  C7  UNL     1      17.135  35.981  20.368  1.00  0.00     0.036 A 
HETATM   23 CL1  UNL     1      18.609  36.703  19.849  1.00  0.00    -0.084 Cl
HETATM   24  C8  UNL     1      16.252  35.454  19.422  1.00  0.00     0.053 A 
ENDBRANCH  16  18
ENDBRANCH   4  16
BRANCH   1  25
HETATM   25  N1  UNL     1      12.810  36.567  14.922  1.00  0.00    -0.274 NA
HETATM   26  H1  UNL     1      13.623  36.089  14.559  1.00  0.00     0.127 HD
HETATM   27  H2  UNL     1      11.985  36.594  14.339  1.00  0.00     0.127 HD
ENDBRANCH   1  25
TORSDOF 3
ENDMDL
MODEL 2
REMARK minimizedAffinity -7.72959995
REMARK  3 active torsions:
REMARK  status: ('A' for Active; 'I' for Inactive)
REMARK    1  A    between atoms: N1_1  and  C1_2 
REMARK    2  A    between atoms: C2_5  and  N3_6 
REMARK    3  A    between atoms: N3_6  and  C3_7 
ROOT
HETATM    1  C1  UNL     1       9.885  35.589  17.767  1.00  0.00     0.156 A 
HETATM    2  N2  UNL     1      11.060  34.936  17.689  1.00  0.00    -0.318 N 
ATOM      3  H2  UNL     1      11.563  34.880  16.803  1.00  0.00     0.170 HD
HETATM    4  C2  UNL     1      11.561  34.359  18.799  1.00  0.00     0.117 A 
HETATM    5  C9  UNL     1      10.866  34.450  19.971  1.00  0.00     0.018 A 
HETATM    6  C10 UNL     1       9.660  35.132  19.939  1.00  0.00     0.055 A 
HETATM    7  N4  UNL     1       9.129  35.703  18.860  1.00  0.00    -0.332 N 
ATOM      8  H4  UNL     1       8.229  36.184  18.868  1.00  0.00     0.168 HD
HETATM    9  C11 UNL     1       9.071  35.126  21.256  1.00  0.00    -0.002 A 
HETATM   10  C12 UNL     1       7.886  35.665  21.722  1.00  0.00     0.014 A 
HETATM   11  C13 UNL     1       7.572  35.499  23.074  1.00  0.00     0.001 A 
HETATM   12  C14 UNL     1       8.439  34.805  23.936  1.00  0.00     0.001 A 
HETATM   13  C15 UNL     1       9.638  34.262  23.466  1.00  0.00     0.008 A 
HETATM   14  C16 UNL     1       9.940  34.430  22.126  1.00  0.00    -0.041 A 
HETATM   15  C17 UNL     1      11.160  33.953  21.360  1.00  0.00     0.084 A 
ENDROOT
BRANCH   4  16
HETATM   16  N3  UNL     1      12.795  33.672  18.783  1.00  0.00    -0.342 N 
HETATM   17  H3  UNL     1      12.742  32.887  18.143  1.00  0.00     0.167 HD
BRANCH  16  18
HETATM   18  C3  UNL     1      14.102  34.210  18.843  1.00  0.00     0.035 A 
HETATM   19  C4  UNL     1      14.862  34.226  20.019  1.00  0.00     0.029 A 
HETATM   20  C5  UNL     1      16.176  34.707  20.028  1.00  0.00     0.004 A 
HETATM   21  C6  UNL     1      16.759  35.161  18.848  1.00  0.00     0.024 A 
HETATM   22  C7  UNL     1      16.029  35.119  17.666  1.00  0.00     0.036 A 
HETATM   23 CL1  UNL     1      16.749  35.657  16.198  1.00  0.00    -0.084 Cl
HETATM   24  C8  UNL     1      14.717  34.638  17.656  1.00  0.00     0.053 A 
ENDBRANCH  16  18
ENDBRANCH   4  16
BRANCH   1  25
HETATM   25  N1  UNL     1       9.400  36.147  16.602  1.00  0.00    -0.274 NA
HETATM   26  H1  UNL     1       9.790  35.660  15.806  1.00  0.00     0.127 HD
HETATM   27  H2  UNL     1       8.394  36.222  16.655  1.00  0.00     0.127 HD
ENDBRANCH   1  25
TORSDOF 3
ENDMDL
MODEL 3
REMARK minimizedAffinity -7.58817625
REMARK  3 active torsions:
REMARK  status: ('A' for Active; 'I' for Inactive)
REMARK    1  A    between atoms: N1_1  and  C1_2 
REMARK    2  A    between atoms: C2_5  and  N3_6 
REMARK    3  A    between atoms: N3_6  and  C3_7 
ROOT
HETATM    1  C1  UNL     1      12.571  36.105  15.998  1.00  0.00     0.156 A 
HETATM    2  N2  UNL     1      13.667  35.458  16.436  1.00  0.00    -0.318 N 
ATOM      3  H2  UNL     1      14.534  35.484  15.898  1.00  0.00     0.170 HD
HETATM    4  C2  UNL     1      13.603  34.775  17.596  1.00  0.00     0.117 A 
HETATM    5  C9  UNL     1      12.430  34.757  18.296  1.00  0.00     0.018 A 
HETATM    6  C10 UNL     1      11.358  35.443  17.749  1.00  0.00     0.055 A 
HETATM    7  N4  UNL     1      11.382  36.118  16.601  1.00  0.00    -0.332 N 
ATOM      8  H4  UNL     1      10.567  36.598  16.218  1.00  0.00     0.168 HD
HETATM    9  C11 UNL     1      10.213  35.314  18.618  1.00  0.00    -0.002 A 
HETATM   10  C12 UNL     1       8.927  35.811  18.503  1.00  0.00     0.014 A 
HETATM   11  C13 UNL     1       8.014  35.518  19.520  1.00  0.00     0.001 A 
HETATM   12  C14 UNL     1       8.393  34.741  20.629  1.00  0.00     0.001 A 
HETATM   13  C15 UNL     1       9.693  34.241  20.746  1.00  0.00     0.008 A 
HETATM   14  C16 UNL     1      10.590  34.535  19.734  1.00  0.00    -0.041 A 
HETATM   15  C17 UNL     1      12.047  34.128  19.607  1.00  0.00     0.084 A 
ENDROOT
BRANCH   4  16
HETATM   16  N3  UNL     1      14.723  34.088  18.114  1.00  0.00    -0.342 N 
HETATM   17  H3  UNL     1      14.670  33.107  17.862  1.00  0.00     0.167 HD
BRANCH  16  18
HETATM   18  C3  UNL     1      16.062  34.532  18.204  1.00  0.00     0.035 A 
HETATM   19  C4  UNL     1      16.651  34.926  19.413  1.00  0.00     0.029 A 
HETATM   20  C5  UNL     1      17.998  35.298  19.477  1.00  0.00     0.004 A 
HETATM   21  C6  UNL     1      18.786  35.262  18.330  1.00  0.00     0.024 A 
HETATM   22  C7  UNL     1      18.225  34.840  17.130  1.00  0.00     0.036 A 
HETATM   23 CL1  UNL     1      19.197  34.769  15.711  1.00  0.00    -0.084 Cl
HETATM   24  C8  UNL     1      16.880  34.467  17.065  1.00  0.00     0.053 A 
ENDBRANCH  16  18
ENDBRANCH   4  16
BRANCH   1  25
HETATM   25  N1  UNL     1      12.678  36.773  14.795  1.00  0.00    -0.274 NA
HETATM   26  H1  UNL     1      13.420  36.363  14.245  1.00  0.00     0.127 HD
HETATM   27  H2  UNL     1      11.766  36.848  14.366  1.00  0.00     0.127 HD
ENDBRANCH   1  25
TORSDOF 3
ENDMDL
MODEL 4
REMARK minimizedAffinity -7.4323926
REMARK  3 active torsions:
REMARK  status: ('A' for Active; 'I' for Inactive)
REMARK    1  A    between atoms: N1_1  and  C1_2 
REMARK    2  A    between atoms: C2_5  and  N3_6 
REMARK    3  A    between atoms: N3_6  and  C3_7 
ROOT
HETATM    1  C1  UNL     1      13.153  34.432  19.657  1.00  0.00     0.156 A 
HETATM    2  N2  UNL     1      13.459  34.947  18.452  1.00  0.00    -0.318 N 
ATOM      3  H2  UNL     1      14.421  34.935  18.112  1.00  0.00     0.170 HD
HETATM    4  C2  UNL     1      12.474  35.477  17.699  1.00  0.00     0.117 A 
HETATM    5  C9  UNL     1      11.195  35.480  18.178  1.00  0.00     0.018 A 
HETATM    6  C10 UNL     1      10.992  34.939  19.438  1.00  0.00     0.055 A 
HETATM    7  N4  UNL     1      11.940  34.418  20.213  1.00  0.00    -0.332 N 
ATOM      8  H4  UNL     1      11.757  34.043  21.144  1.00  0.00     0.168 HD
HETATM    9  C11 UNL     1       9.592  35.027  19.776  1.00  0.00    -0.002 A 
HETATM   10  C12 UNL     1       8.907  34.632  20.911  1.00  0.00     0.014 A 
HETATM   11  C13 UNL     1       7.526  34.849  20.957  1.00  0.00     0.001 A 
HETATM   12  C14 UNL     1       6.854  35.451  19.879  1.00  0.00     0.001 A 
HETATM   13  C15 UNL     1       7.546  35.849  18.731  1.00  0.00     0.008 A 
HETATM   14  C16 UNL     1       8.912  35.631  18.695  1.00  0.00    -0.041 A 
HETATM   15  C17 UNL     1       9.897  35.958  17.587  1.00  0.00     0.084 A 
ENDROOT
BRANCH   4  16
HETATM   16  N3  UNL     1      12.731  36.020  16.421  1.00  0.00    -0.342 N 
HETATM   17  H3  UNL     1      11.934  36.569  16.115  1.00  0.00     0.167 HD
BRANCH  16  18
HETATM   18  C3  UNL     1      13.945  36.533  15.911  1.00  0.00     0.035 A 
HETATM   19  C4  UNL     1      14.311  37.879  16.032  1.00  0.00     0.029 A 
HETATM   20  C5  UNL     1      15.549  38.340  15.572  1.00  0.00     0.004 A 
HETATM   21  C6  UNL     1      16.455  37.451  15.002  1.00  0.00     0.024 A 
HETATM   22  C7  UNL     1      16.121  36.104  14.906  1.00  0.00     0.036 A 
HETATM   23 CL1  UNL     1      17.244  34.992  14.223  1.00  0.00    -0.084 Cl
HETATM   24  C8  UNL     1      14.885  35.643  15.365  1.00  0.00     0.053 A 
ENDBRANCH  16  18
ENDBRANCH   4  16
BRANCH   1  25
HETATM   25  N1  UNL     1      14.195  33.919  20.401  1.00  0.00    -0.274 NA
HETATM   26  H1  UNL     1      15.062  34.348  20.109  1.00  0.00     0.127 HD
HETATM   27  H2  UNL     1      13.963  33.958  21.384  1.00  0.00     0.127 HD
ENDBRANCH   1  25
TORSDOF 3
ENDMDL
MODEL 5
REMARK minimizedAffinity -7.37772799
REMARK  3 active torsions:
REMARK  status: ('A' for Active; 'I' for Inactive)
REMARK    1  A    between atoms: N1_1  and  C1_2 
REMARK    2  A    between atoms: C2_5  and  N3_6 
REMARK    3  A    between atoms: N3_6  and  C3_7 
ROOT
HETATM    1  C1  UNL     1      12.965  36.352  16.188  1.00  0.00     0.156 A 
HETATM    2  N2  UNL     1      11.903  35.755  16.760  1.00  0.00    -0.318 N 
ATOM      3  H2  UNL     1      11.045  35.605  16.229  1.00  0.00     0.170 HD
HETATM    4  C2  UNL     1      11.990  35.359  18.045  1.00  0.00     0.117 A 
HETATM    5  C9  UNL     1      13.151  35.573  18.733  1.00  0.00     0.018 A 
HETATM    6  C10 UNL     1      14.178  36.209  18.054  1.00  0.00     0.055 A 
HETATM    7  N4  UNL     1      14.123  36.625  16.790  1.00  0.00    -0.332 N 
ATOM      8  H4  UNL     1      14.894  37.106  16.327  1.00  0.00     0.168 HD
HETATM    9  C11 UNL     1      15.316  36.349  18.931  1.00  0.00    -0.002 A 
HETATM   10  C12 UNL     1      16.560  36.914  18.718  1.00  0.00     0.014 A 
HETATM   11  C13 UNL     1      17.478  36.905  19.772  1.00  0.00     0.001 A 
HETATM   12  C14 UNL     1      17.145  36.335  21.014  1.00  0.00     0.001 A 
HETATM   13  C15 UNL     1      15.887  35.763  21.229  1.00  0.00     0.008 A 
HETATM   14  C16 UNL     1      14.985  35.777  20.180  1.00  0.00    -0.041 A 
HETATM   15  C17 UNL     1      13.570  35.231  20.136  1.00  0.00     0.084 A 
ENDROOT
BRANCH   4  16
HETATM   16  N3  UNL     1      10.914  34.715  18.695  1.00  0.00    -0.342 N 
HETATM   17  H3  UNL     1      11.271  34.013  19.335  1.00  0.00     0.167 HD
BRANCH  16  18
HETATM   18  C3  UNL     1       9.704  35.278  19.160  1.00  0.00     0.035 A 
HETATM   19  C4  UNL     1       8.839  36.007  18.333  1.00  0.00     0.029 A 
HETATM   20  C5  UNL     1       7.618  36.496  18.810  1.00  0.00     0.004 A 
HETATM   21  C6  UNL     1       7.231  36.242  20.123  1.00  0.00     0.024 A 
HETATM   22  C7  UNL     1       8.063  35.491  20.946  1.00  0.00     0.036 A 
HETATM   23 CL1  UNL     1       7.584  35.152  22.564  1.00  0.00    -0.084 Cl
HETATM   24  C8  UNL     1       9.283  35.002  20.470  1.00  0.00     0.053 A 
ENDBRANCH  16  18
ENDBRANCH   4  16
BRANCH   1  25
HETATM   25  N1  UNL     1      12.823  36.760  14.877  1.00  0.00    -0.274 NA
HETATM   26  H1  UNL     1      11.844  36.902  14.671  1.00  0.00     0.127 HD
HETATM   27  H2  UNL     1      13.455  37.526  14.690  1.00  0.00     0.127 HD
ENDBRANCH   1  25
TORSDOF 3
ENDMDL
MODEL 6
REMARK minimizedAffinity -7.31931973
REMARK  3 active torsions:
REMARK  status: ('A' for Active; 'I' for Inactive)
REMARK    1  A    between atoms: N1_1  and  C1_2 
REMARK    2  A    between atoms: C2_5  and  N3_6 
REMARK    3  A    between atoms: N3_6  and  C3_7 
ROOT
HETATM    1  C1  UNL     1      13.175  34.465  19.891  1.00  0.00     0.156 A 
HETATM    2  N2  UNL     1      13.538  34.898  18.669  1.00  0.00    -0.318 N 
ATOM      3  H2  UNL     1      14.511  34.844  18.367  1.00  0.00     0.170 HD
HETATM    4  C2  UNL     1      12.595  35.404  17.849  1.00  0.00     0.117 A 
HETATM    5  C9  UNL     1      11.300  35.464  18.278  1.00  0.00     0.018 A 
HETATM    6  C10 UNL     1      11.037  35.006  19.559  1.00  0.00     0.055 A 
HETATM    7  N4  UNL     1      11.943  34.511  20.400  1.00  0.00    -0.332 N 
ATOM      8  H4  UNL     1      11.717  34.198  21.344  1.00  0.00     0.168 HD
HETATM    9  C11 UNL     1       9.628  35.146  19.838  1.00  0.00    -0.002 A 
HETATM   10  C12 UNL     1       8.892  34.836  20.967  1.00  0.00     0.014 A 
HETATM   11  C13 UNL     1       7.517  35.087  20.948  1.00  0.00     0.001 A 
HETATM   12  C14 UNL     1       6.900  35.637  19.811  1.00  0.00     0.001 A 
HETATM   13  C15 UNL     1       7.643  35.949  18.669  1.00  0.00     0.008 A 
HETATM   14  C16 UNL     1       9.004  35.698  18.697  1.00  0.00    -0.041 A 
HETATM   15  C17 UNL     1      10.037  35.935  17.611  1.00  0.00     0.084 A 
ENDROOT
BRANCH   4  16
HETATM   16  N3  UNL     1      12.912  35.862  16.551  1.00  0.00    -0.342 N 
HETATM   17  H3  UNL     1      12.110  36.336  16.150  1.00  0.00     0.167 HD
BRANCH  16  18
HETATM   18  C3  UNL     1      14.130  36.407  16.083  1.00  0.00     0.035 A 
HETATM   19  C4  UNL     1      15.127  35.629  15.480  1.00  0.00     0.029 A 
HETATM   20  C5  UNL     1      16.293  36.211  14.971  1.00  0.00     0.004 A 
HETATM   21  C6  UNL     1      16.469  37.590  15.037  1.00  0.00     0.024 A 
HETATM   22  C7  UNL     1      15.473  38.379  15.602  1.00  0.00     0.036 A 
HETATM   23 CL1  UNL     1      15.671  40.088  15.669  1.00  0.00    -0.084 Cl
HETATM   24  C8  UNL     1      14.308  37.799  16.111  1.00  0.00     0.053 A 
ENDBRANCH  16  18
ENDBRANCH   4  16
BRANCH   1  25
HETATM   25  N1  UNL     1      14.177  33.974  20.703  1.00  0.00    -0.274 NA
HETATM   26  H1  UNL     1      15.065  34.365  20.419  1.00  0.00     0.127 HD
HETATM   27  H2  UNL     1      13.910  34.078  21.672  1.00  0.00     0.127 HD
ENDBRANCH   1  25
TORSDOF 3
ENDMDL
MODEL 7
REMARK minimizedAffinity -7.15992498
REMARK  3 active torsions:
REMARK  status: ('A' for Active; 'I' for Inactive)
REMARK    1  A    between atoms: N1_1  and  C1_2 
REMARK    2  A    between atoms: C2_5  and  N3_6 
REMARK    3  A    between atoms: N3_6  and  C3_7 
ROOT
HETATM    1  C1  UNL     1      19.089  53.473   4.536  1.00  0.00     0.156 A 
HETATM    2  N2  UNL     1      18.685  52.384   5.218  1.00  0.00    -0.318 N 
ATOM      3  H2  UNL     1      19.361  51.683   5.522  1.00  0.00     0.170 HD
HETATM    4  C2  UNL     1      17.374  52.236   5.493  1.00  0.00     0.117 A 
HETATM    5  C9  UNL     1      16.491  53.189   5.074  1.00  0.00     0.018 A 
HETATM    6  C10 UNL     1      17.010  54.262   4.366  1.00  0.00     0.055 A 
HETATM    7  N4  UNL     1      18.295  54.436   4.066  1.00  0.00    -0.332 N 
ATOM      8  H4  UNL     1      18.641  55.231   3.528  1.00  0.00     0.168 HD
HETATM    9  C11 UNL     1      15.939  55.161   4.007  1.00  0.00    -0.002 A 
HETATM   10  C12 UNL     1      15.954  56.353   3.304  1.00  0.00     0.014 A 
HETATM   11  C13 UNL     1      14.739  57.016   3.107  1.00  0.00     0.001 A 
HETATM   12  C14 UNL     1      13.538  56.488   3.611  1.00  0.00     0.001 A 
HETATM   13  C15 UNL     1      13.524  55.285   4.324  1.00  0.00     0.008 A 
HETATM   14  C16 UNL     1      14.730  54.634   4.513  1.00  0.00    -0.041 A 
HETATM   15  C17 UNL     1      15.003  53.331   5.241  1.00  0.00     0.084 A 
ENDROOT
BRANCH   4  16
HETATM   16  N3  UNL     1      16.891  51.122   6.216  1.00  0.00    -0.342 N 
HETATM   17  H3  UNL     1      15.886  51.048   6.100  1.00  0.00     0.167 HD
BRANCH  16  18
HETATM   18  C3  UNL     1      17.494  49.854   6.383  1.00  0.00     0.035 A 
HETATM   19  C4  UNL     1      18.669  49.664   7.121  1.00  0.00     0.029 A 
HETATM   20  C5  UNL     1      19.203  48.386   7.320  1.00  0.00     0.004 A 
HETATM   21  C6  UNL     1      18.552  47.270   6.800  1.00  0.00     0.024 A 
HETATM   22  C7  UNL     1      17.365  47.441   6.095  1.00  0.00     0.036 A 
HETATM   23 CL1  UNL     1      16.541  46.066   5.468  1.00  0.00    -0.084 Cl
HETATM   24  C8  UNL     1      16.831  48.716   5.896  1.00  0.00     0.053 A 
ENDBRANCH  16  18
ENDBRANCH   4  16
BRANCH   1  25
HETATM   25  N1  UNL     1      20.437  53.573   4.259  1.00  0.00    -0.274 NA
HETATM   26  H1  UNL     1      20.852  52.652   4.264  1.00  0.00     0.127 HD
HETATM   27  H2  UNL     1      20.573  54.142   3.435  1.00  0.00     0.127 HD
ENDBRANCH   1  25
TORSDOF 3
ENDMDL
MODEL 8
REMARK minimizedAffinity -7.12427807
REMARK  3 active torsions:
REMARK  status: ('A' for Active; 'I' for Inactive)
REMARK    1  A    between atoms: N1_1  and  C1_2 
REMARK    2  A    between atoms: C2_5  and  N3_6 
REMARK    3  A    between atoms: N3_6  and  C3_7 
ROOT
HETATM    1  C1  UNL     1      13.509  34.262  20.084  1.00  0.00     0.156 A 
HETATM    2  N2  UNL     1      12.380  34.907  19.737  1.00  0.00    -0.318 N 
ATOM      3  H2  UNL     1      11.575  34.915  20.364  1.00  0.00     0.170 HD
HETATM    4  C2  UNL     1      12.329  35.543  18.550  1.00  0.00     0.117 A 
HETATM    5  C9  UNL     1      13.421  35.516  17.730  1.00  0.00     0.018 A 
HETATM    6  C10 UNL     1      14.527  34.810  18.176  1.00  0.00     0.055 A 
HETATM    7  N4  UNL     1      14.609  34.162  19.336  1.00  0.00    -0.332 N 
ATOM      8  H4  UNL     1      15.435  33.637  19.625  1.00  0.00     0.168 HD
HETATM    9  C11 UNL     1      15.576  34.890  17.188  1.00  0.00    -0.002 A 
HETATM   10  C12 UNL     1      16.850  34.353  17.173  1.00  0.00     0.014 A 
HETATM   11  C13 UNL     1      17.658  34.603  16.060  1.00  0.00     0.001 A 
HETATM   12  C14 UNL     1      17.189  35.381  14.987  1.00  0.00     0.001 A 
HETATM   13  C15 UNL     1      15.901  35.926  15.003  1.00  0.00     0.008 A 
HETATM   14  C16 UNL     1      15.108  35.672  16.108  1.00  0.00    -0.041 A 
HETATM   15  C17 UNL     1      13.689  36.135  16.386  1.00  0.00     0.084 A 
ENDROOT
BRANCH   4  16
HETATM   16  N3  UNL     1      11.176  36.248  18.137  1.00  0.00    -0.342 N 
HETATM   17  H3  UNL     1      11.129  36.264  17.124  1.00  0.00     0.167 HD
BRANCH  16  18
HETATM   18  C3  UNL     1       9.889  36.247  18.721  1.00  0.00     0.035 A 
HETATM   19  C4  UNL     1       8.713  36.335  17.965  1.00  0.00     0.029 A 
HETATM   20  C5  UNL     1       7.453  36.266  18.570  1.00  0.00     0.004 A 
HETATM   21  C6  UNL     1       7.351  36.084  19.946  1.00  0.00     0.024 A 
HETATM   22  C7  UNL     1       8.509  35.960  20.706  1.00  0.00     0.036 A 
HETATM   23 CL1  UNL     1       8.392  35.713  22.405  1.00  0.00    -0.084 Cl
HETATM   24  C8  UNL     1       9.767  36.029  20.102  1.00  0.00     0.053 A 
ENDBRANCH  16  18
ENDBRANCH   4  16
BRANCH   1  25
HETATM   25  N1  UNL     1      13.509  33.608  21.299  1.00  0.00    -0.274 NA
HETATM   26  H1  UNL     1      12.559  33.386  21.563  1.00  0.00     0.127 HD
HETATM   27  H2  UNL     1      14.177  32.850  21.277  1.00  0.00     0.127 HD
ENDBRANCH   1  25
TORSDOF 3
ENDMDL
MODEL 9
REMARK minimizedAffinity -7.05816698
REMARK  3 active torsions:
REMARK  status: ('A' for Active; 'I' for Inactive)
REMARK    1  A    between atoms: N1_1  and  C1_2 
REMARK    2  A    between atoms: C2_5  and  N3_6 
REMARK    3  A    between atoms: N3_6  and  C3_7 
ROOT
HETATM    1  C1  UNL     1       1.096  63.881  -2.889  1.00  0.00     0.156 A 
HETATM    2  N2  UNL     1       1.804  64.126  -4.008  1.00  0.00    -0.318 N 
ATOM      3  H2  UNL     1       2.033  63.369  -4.652  1.00  0.00     0.170 HD
HETATM    4  C2  UNL     1       2.205  65.387  -4.263  1.00  0.00     0.117 A 
HETATM    5  C9  UNL     1       1.885  66.381  -3.384  1.00  0.00     0.018 A 
HETATM    6  C10 UNL     1       1.166  66.018  -2.255  1.00  0.00     0.055 A 
HETATM    7  N4  UNL     1       0.764  64.783  -1.964  1.00  0.00    -0.332 N 
ATOM      8  H4  UNL     1       0.250  64.549  -1.115  1.00  0.00     0.168 HD
HETATM    9  C11 UNL     1       0.921  67.189  -1.447  1.00  0.00    -0.002 A 
HETATM   10  C12 UNL     1       0.259  67.335  -0.242  1.00  0.00     0.014 A 
HETATM   11  C13 UNL     1       0.178  68.615   0.315  1.00  0.00     0.001 A 
HETATM   12  C14 UNL     1       0.752  69.722  -0.335  1.00  0.00     0.001 A 
HETATM   13  C15 UNL     1       1.420  69.574  -1.554  1.00  0.00     0.008 A 
HETATM   14  C16 UNL     1       1.496  68.304  -2.097  1.00  0.00    -0.041 A 
HETATM   15  C17 UNL     1       2.151  67.862  -3.393  1.00  0.00     0.084 A 
ENDROOT
BRANCH   4  16
HETATM   16  N3  UNL     1       2.938  65.708  -5.427  1.00  0.00    -0.342 N 
HETATM   17  H3  UNL     1       2.628  66.603  -5.792  1.00  0.00     0.167 HD
BRANCH  16  18
HETATM   18  C3  UNL     1       4.308  65.483  -5.693  1.00  0.00     0.035 A 
HETATM   19  C4  UNL     1       5.162  64.841  -4.787  1.00  0.00     0.029 A 
HETATM   20  C5  UNL     1       6.498  64.577  -5.109  1.00  0.00     0.004 A 
HETATM   21  C6  UNL     1       6.996  64.933  -6.359  1.00  0.00     0.024 A 
HETATM   22  C7  UNL     1       6.151  65.539  -7.283  1.00  0.00     0.036 A 
HETATM   23 CL1  UNL     1       6.752  65.962  -8.840  1.00  0.00    -0.084 Cl
HETATM   24  C8  UNL     1       4.817  65.803  -6.962  1.00  0.00     0.053 A 
ENDBRANCH  16  18
ENDBRANCH   4  16
BRANCH   1  25
HETATM   25  N1  UNL     1       0.725  62.572  -2.657  1.00  0.00    -0.274 NA
HETATM   26  H1  UNL     1       1.356  61.951  -3.143  1.00  0.00     0.127 HD
HETATM   27  H2  UNL     1       0.597  62.426  -1.666  1.00  0.00     0.127 HD
ENDBRANCH   1  25
TORSDOF 3
ENDMDL
