MODEL 1
REMARK minimizedAffinity -8.7312746
REMARK  5 active torsions:
REMARK  status: ('A' for Active; 'I' for Inactive)
REMARK    1  A    between atoms: C2_2  and  C3_3 
REMARK    2  A    between atoms: C3_3  and  C4_4 
REMARK    3  A    between atoms: C4_4  and  N1_5 
REMARK    4  A    between atoms: N1_5  and  C5_6 
REMARK    5  A    between atoms: C9_12  and  C10_13 
ROOT
HETATM    1  C5  UNL     1       4.925  -4.989  29.155  1.00  0.00     0.158 A 
HETATM    2  N2  UNL     1       4.606  -3.903  29.871  1.00  0.00    -0.342 N 
ATOM      3  H2  UNL     1       3.707  -3.434  29.756  1.00  0.00     0.167 HD
HETATM    4  C6  UNL     1       5.524  -3.459  30.749  1.00  0.00     0.106 A 
HETATM    5  C7  UNL     1       6.744  -4.063  30.945  1.00  0.00     0.025 A 
HETATM    6  C8  UNL     1       7.731  -3.579  31.898  1.00  0.00     0.034 A 
HETATM    7  C9  UNL     1       8.896  -4.231  32.031  1.00  0.00     0.047 A 
HETATM    8  C16 UNL     1       9.191  -5.453  31.207  1.00  0.00     0.260 A 
HETATM    9  O1  UNL     1      10.268  -6.030  31.354  1.00  0.00    -0.267 OA
HETATM   10  N3  UNL     1       8.213  -5.864  30.316  1.00  0.00    -0.303 N 
HETATM   11  C17 UNL     1       8.436  -7.034  29.484  1.00  0.00     0.161 C 
HETATM   12  C18 UNL     1       6.978  -5.182  30.170  1.00  0.00     0.124 A 
HETATM   13  N4  UNL     1       6.079  -5.652  29.280  1.00  0.00    -0.318 N 
ATOM     14  H4  UNL     1       6.273  -6.484  28.723  1.00  0.00     0.170 HD
ENDROOT
BRANCH   7  15
HETATM   15  C10 UNL     1       9.901  -3.745  32.996  1.00  0.00     0.023 A 
HETATM   16  C11 UNL     1       9.858  -4.142  34.346  1.00  0.00     0.046 A 
HETATM   17 CL1  UNL     1       8.618  -5.186  34.953  1.00  0.00    -0.083 Cl
HETATM   18  C12 UNL     1      10.822  -3.693  35.256  1.00  0.00     0.025 A 
HETATM   19  C13 UNL     1      11.843  -2.843  34.835  1.00  0.00     0.003 A 
HETATM   20  C14 UNL     1      11.900  -2.439  33.503  1.00  0.00     0.025 A 
HETATM   21  C15 UNL     1      10.939  -2.886  32.590  1.00  0.00     0.046 A 
HETATM   22 CL2  UNL     1      11.077  -2.328  30.956  1.00  0.00    -0.083 Cl
ENDBRANCH   7  15
BRANCH   1  23
HETATM   23  N1  UNL     1       4.040  -5.503  28.219  1.00  0.00    -0.264 NA
HETATM   24  H10 UNL     1       4.506  -5.434  27.323  1.00  0.00     0.130 HD
BRANCH  23  25
HETATM   25  C4  UNL     1       3.468  -6.794  28.559  1.00  0.00     0.095 C 
BRANCH  25  26
HETATM   26  C3  UNL     1       1.997  -6.858  28.135  1.00  0.00     0.014 C 
BRANCH  26  27
HETATM   27  C2  UNL     1       1.472  -8.273  27.863  1.00  0.00    -0.003 C 
HETATM   28  C1  UNL     1       2.506  -9.235  27.306  1.00  0.00     0.005 C 
ENDBRANCH  26  27
ENDBRANCH  25  26
ENDBRANCH  23  25
ENDBRANCH   1  23
TORSDOF 5
ENDMDL
MODEL 2
REMARK minimizedAffinity -8.72590923
REMARK  5 active torsions:
REMARK  status: ('A' for Active; 'I' for Inactive)
REMARK    1  A    between atoms: C2_2  and  C3_3 
REMARK    2  A    between atoms: C3_3  and  C4_4 
REMARK    3  A    between atoms: C4_4  and  N1_5 
REMARK    4  A    between atoms: N1_5  and  C5_6 
REMARK    5  A    between atoms: C9_12  and  C10_13 
ROOT
HETATM    1  C5  UNL     1       4.935  -4.966  29.091  1.00  0.00     0.158 A 
HETATM    2  N2  UNL     1       4.624  -3.888  29.823  1.00  0.00    -0.342 N 
ATOM      3  H2  UNL     1       3.730  -3.409  29.713  1.00  0.00     0.167 HD
HETATM    4  C6  UNL     1       5.545  -3.466  30.710  1.00  0.00     0.106 A 
HETATM    5  C7  UNL     1       6.759  -4.083  30.899  1.00  0.00     0.025 A 
HETATM    6  C8  UNL     1       7.748  -3.622  31.861  1.00  0.00     0.034 A 
HETATM    7  C9  UNL     1       8.907  -4.286  31.986  1.00  0.00     0.047 A 
HETATM    8  C16 UNL     1       9.194  -5.497  31.144  1.00  0.00     0.260 A 
HETATM    9  O1  UNL     1      10.265  -6.086  31.284  1.00  0.00    -0.267 OA
HETATM   10  N3  UNL     1       8.214  -5.887  30.245  1.00  0.00    -0.303 N 
HETATM   11  C17 UNL     1       8.428  -7.045  29.395  1.00  0.00     0.161 C 
HETATM   12  C18 UNL     1       6.985  -5.191  30.106  1.00  0.00     0.124 A 
HETATM   13  N4  UNL     1       6.084  -5.640  29.208  1.00  0.00    -0.318 N 
ATOM     14  H4  UNL     1       6.272  -6.465  28.638  1.00  0.00     0.170 HD
ENDROOT
BRANCH   7  15
HETATM   15  C10 UNL     1       9.914  -3.824  32.960  1.00  0.00     0.023 A 
HETATM   16  C11 UNL     1      10.964  -2.973  32.566  1.00  0.00     0.046 A 
HETATM   17 CL1  UNL     1      11.152  -2.452  30.925  1.00  0.00    -0.083 Cl
HETATM   18  C12 UNL     1      11.909  -2.523  33.494  1.00  0.00     0.025 A 
HETATM   19  C13 UNL     1      11.822  -2.912  34.830  1.00  0.00     0.003 A 
HETATM   20  C14 UNL     1      10.790  -3.754  35.237  1.00  0.00     0.025 A 
HETATM   21  C15 UNL     1       9.843  -4.206  34.312  1.00  0.00     0.046 A 
HETATM   22 CL2  UNL     1       8.599  -5.258  34.900  1.00  0.00    -0.083 Cl
ENDBRANCH   7  15
BRANCH   1  23
HETATM   23  N1  UNL     1       4.048  -5.457  28.146  1.00  0.00    -0.264 NA
HETATM   24  H10 UNL     1       4.475  -5.286  27.243  1.00  0.00     0.130 HD
BRANCH  23  25
HETATM   25  C4  UNL     1       3.568  -6.805  28.396  1.00  0.00     0.095 C 
BRANCH  25  26
HETATM   26  C3  UNL     1       2.050  -6.878  28.205  1.00  0.00     0.014 C 
BRANCH  26  27
HETATM   27  C2  UNL     1       1.512  -8.282  27.904  1.00  0.00    -0.003 C 
HETATM   28  C1  UNL     1       2.521  -9.225  27.273  1.00  0.00     0.005 C 
ENDBRANCH  26  27
ENDBRANCH  25  26
ENDBRANCH  23  25
ENDBRANCH   1  23
TORSDOF 5
ENDMDL
MODEL 3
REMARK minimizedAffinity -8.49693871
REMARK  5 active torsions:
REMARK  status: ('A' for Active; 'I' for Inactive)
REMARK    1  A    between atoms: C2_2  and  C3_3 
REMARK    2  A    between atoms: C3_3  and  C4_4 
REMARK    3  A    between atoms: C4_4  and  N1_5 
REMARK    4  A    between atoms: N1_5  and  C5_6 
REMARK    5  A    between atoms: C9_12  and  C10_13 
ROOT
HETATM    1  C5  UNL     1       6.451  -6.879  28.297  1.00  0.00     0.158 A 
HETATM    2  N2  UNL     1       7.609  -7.541  28.420  1.00  0.00    -0.342 N 
ATOM      3  H2  UNL     1       7.817  -8.361  27.849  1.00  0.00     0.167 HD
HETATM    4  C6  UNL     1       8.485  -7.076  29.329  1.00  0.00     0.106 A 
HETATM    5  C7  UNL     1       8.252  -5.971  30.115  1.00  0.00     0.025 A 
HETATM    6  C8  UNL     1       9.205  -5.473  31.093  1.00  0.00     0.034 A 
HETATM    7  C9  UNL     1       8.901  -4.383  31.816  1.00  0.00     0.047 A 
HETATM    8  C16 UNL     1       7.589  -3.676  31.625  1.00  0.00     0.260 A 
HETATM    9  O1  UNL     1       7.341  -2.678  32.301  1.00  0.00    -0.267 OA
HETATM   10  N3  UNL     1       6.723  -4.199  30.678  1.00  0.00    -0.303 N 
HETATM   11  C17 UNL     1       5.435  -3.568  30.447  1.00  0.00     0.161 C 
HETATM   12  C18 UNL     1       7.036  -5.349  29.910  1.00  0.00     0.124 A 
HETATM   13  N4  UNL     1       6.136  -5.790  29.007  1.00  0.00    -0.318 N 
ATOM     14  H4  UNL     1       5.247  -5.310  28.869  1.00  0.00     0.170 HD
ENDROOT
BRANCH   7  15
HETATM   15  C10 UNL     1       9.864  -3.872  32.811  1.00  0.00     0.023 A 
HETATM   16  C11 UNL     1       9.805  -4.290  34.154  1.00  0.00     0.046 A 
HETATM   17 CL1  UNL     1       8.593  -5.390  34.718  1.00  0.00    -0.083 Cl
HETATM   18  C12 UNL     1      10.729  -3.817  35.093  1.00  0.00     0.025 A 
HETATM   19  C13 UNL     1      11.726  -2.922  34.708  1.00  0.00     0.003 A 
HETATM   20  C14 UNL     1      11.798  -2.498  33.383  1.00  0.00     0.025 A 
HETATM   21  C15 UNL     1      10.876  -2.969  32.441  1.00  0.00     0.046 A 
HETATM   22 CL2  UNL     1      11.030  -2.382  30.819  1.00  0.00    -0.083 Cl
ENDBRANCH   7  15
BRANCH   1  23
HETATM   23  N1  UNL     1       5.488  -7.301  27.393  1.00  0.00    -0.264 NA
HETATM   24  H10 UNL     1       5.964  -7.411  26.506  1.00  0.00     0.130 HD
BRANCH  23  25
HETATM   25  C4  UNL     1       4.674  -8.418  27.841  1.00  0.00     0.095 C 
BRANCH  25  26
HETATM   26  C3  UNL     1       3.433  -8.567  26.954  1.00  0.00     0.014 C 
BRANCH  26  27
HETATM   27  C2  UNL     1       2.119  -8.144  27.621  1.00  0.00    -0.003 C 
HETATM   28  C1  UNL     1       2.169  -6.799  28.323  1.00  0.00     0.005 C 
ENDBRANCH  26  27
ENDBRANCH  25  26
ENDBRANCH  23  25
ENDBRANCH   1  23
TORSDOF 5
ENDMDL
MODEL 4
REMARK minimizedAffinity -8.42535496
REMARK  5 active torsions:
REMARK  status: ('A' for Active; 'I' for Inactive)
REMARK    1  A    between atoms: C2_2  and  C3_3 
REMARK    2  A    between atoms: C3_3  and  C4_4 
REMARK    3  A    between atoms: C4_4  and  N1_5 
REMARK    4  A    between atoms: N1_5  and  C5_6 
REMARK    5  A    between atoms: C9_12  and  C10_13 
ROOT
HETATM    1  C5  UNL     1       6.409  -6.923  28.342  1.00  0.00     0.158 A 
HETATM    2  N2  UNL     1       7.563  -7.593  28.459  1.00  0.00    -0.342 N 
ATOM      3  H2  UNL     1       7.759  -8.420  27.894  1.00  0.00     0.167 HD
HETATM    4  C6  UNL     1       8.452  -7.126  29.354  1.00  0.00     0.106 A 
HETATM    5  C7  UNL     1       8.237  -6.012  30.132  1.00  0.00     0.025 A 
HETATM    6  C8  UNL     1       9.204  -5.512  31.096  1.00  0.00     0.034 A 
HETATM    7  C9  UNL     1       8.915  -4.414  31.811  1.00  0.00     0.047 A 
HETATM    8  C16 UNL     1       7.607  -3.698  31.626  1.00  0.00     0.260 A 
HETATM    9  O1  UNL     1       7.374  -2.692  32.295  1.00  0.00    -0.267 OA
HETATM   10  N3  UNL     1       6.727  -4.223  30.694  1.00  0.00    -0.303 N 
HETATM   11  C17 UNL     1       5.442  -3.584  30.470  1.00  0.00     0.161 C 
HETATM   12  C18 UNL     1       7.023  -5.382  29.933  1.00  0.00     0.124 A 
HETATM   13  N4  UNL     1       6.110  -5.825  29.044  1.00  0.00    -0.318 N 
ATOM     14  H4  UNL     1       5.223  -5.339  28.911  1.00  0.00     0.170 HD
ENDROOT
BRANCH   7  15
HETATM   15  C10 UNL     1       9.892  -3.901  32.791  1.00  0.00     0.023 A 
HETATM   16  C11 UNL     1      10.909  -3.010  32.400  1.00  0.00     0.046 A 
HETATM   17 CL1  UNL     1      11.092  -2.495  30.756  1.00  0.00    -0.083 Cl
HETATM   18  C12 UNL     1      11.825  -2.512  33.333  1.00  0.00     0.025 A 
HETATM   19  C13 UNL     1      11.740  -2.893  34.671  1.00  0.00     0.003 A 
HETATM   20  C14 UNL     1      10.741  -3.774  35.076  1.00  0.00     0.025 A 
HETATM   21  C15 UNL     1       9.823  -4.274  34.145  1.00  0.00     0.046 A 
HETATM   22 CL2  UNL     1       8.619  -5.373  34.730  1.00  0.00    -0.083 Cl
ENDBRANCH   7  15
BRANCH   1  23
HETATM   23  N1  UNL     1       5.434  -7.347  27.451  1.00  0.00    -0.264 NA
HETATM   24  H10 UNL     1       5.905  -7.939  26.779  1.00  0.00     0.130 HD
BRANCH  23  25
HETATM   25  C4  UNL     1       4.233  -7.884  28.067  1.00  0.00     0.095 C 
BRANCH  25  26
HETATM   26  C3  UNL     1       3.175  -6.787  28.227  1.00  0.00     0.014 C 
BRANCH  26  27
HETATM   27  C2  UNL     1       1.757  -7.204  27.820  1.00  0.00    -0.003 C 
HETATM   28  C1  UNL     1       1.579  -8.693  27.584  1.00  0.00     0.005 C 
ENDBRANCH  26  27
ENDBRANCH  25  26
ENDBRANCH  23  25
ENDBRANCH   1  23
TORSDOF 5
ENDMDL
MODEL 5
REMARK minimizedAffinity -7.77194452
REMARK  5 active torsions:
REMARK  status: ('A' for Active; 'I' for Inactive)
REMARK    1  A    between atoms: C2_2  and  C3_3 
REMARK    2  A    between atoms: C3_3  and  C4_4 
REMARK    3  A    between atoms: C4_4  and  N1_5 
REMARK    4  A    between atoms: N1_5  and  C5_6 
REMARK    5  A    between atoms: C9_12  and  C10_13 
ROOT
HETATM    1  C5  UNL     1       9.733  -2.701  32.189  1.00  0.00     0.158 A 
HETATM    2  N2  UNL     1       8.708  -3.207  32.887  1.00  0.00    -0.342 N 
ATOM      3  H2  UNL     1       8.469  -2.853  33.813  1.00  0.00     0.167 HD
HETATM    4  C6  UNL     1       8.009  -4.202  32.311  1.00  0.00     0.106 A 
HETATM    5  C7  UNL     1       8.288  -4.705  31.062  1.00  0.00     0.025 A 
HETATM    6  C8  UNL     1       7.526  -5.779  30.445  1.00  0.00     0.034 A 
HETATM    7  C9  UNL     1       7.863  -6.208  29.219  1.00  0.00     0.047 A 
HETATM    8  C16 UNL     1       9.018  -5.593  28.480  1.00  0.00     0.260 A 
HETATM    9  O1  UNL     1       9.300  -6.007  27.356  1.00  0.00    -0.267 OA
HETATM   10  N3  UNL     1       9.706  -4.575  29.120  1.00  0.00    -0.303 N 
HETATM   11  C17 UNL     1      10.837  -3.941  28.465  1.00  0.00     0.161 C 
HETATM   12  C18 UNL     1       9.356  -4.114  30.415  1.00  0.00     0.124 A 
HETATM   13  N4  UNL     1      10.078  -3.115  30.965  1.00  0.00    -0.318 N 
ATOM     14  H4  UNL     1      10.859  -2.691  30.465  1.00  0.00     0.170 HD
ENDROOT
BRANCH   7  15
HETATM   15  C10 UNL     1       7.094  -7.298  28.587  1.00  0.00     0.023 A 
HETATM   16  C11 UNL     1       7.597  -8.612  28.553  1.00  0.00     0.046 A 
HETATM   17 CL1  UNL     1       9.145  -9.016  29.213  1.00  0.00    -0.083 Cl
HETATM   18  C12 UNL     1       6.858  -9.647  27.968  1.00  0.00     0.025 A 
HETATM   19  C13 UNL     1       5.608  -9.388  27.410  1.00  0.00     0.003 A 
HETATM   20  C14 UNL     1       5.095  -8.093  27.434  1.00  0.00     0.025 A 
HETATM   21  C15 UNL     1       5.830  -7.056  28.018  1.00  0.00     0.046 A 
HETATM   22 CL2  UNL     1       5.125  -5.474  27.997  1.00  0.00    -0.083 Cl
ENDBRANCH   7  15
BRANCH   1  23
HETATM   23  N1  UNL     1      10.513  -1.683  32.716  1.00  0.00    -0.264 NA
HETATM   24  H10 UNL     1       9.975  -1.279  33.472  1.00  0.00     0.130 HD
BRANCH  23  25
HETATM   25  C4  UNL     1      11.885  -2.055  33.017  1.00  0.00     0.095 C 
BRANCH  25  26
HETATM   26  C3  UNL     1      11.930  -3.413  33.726  1.00  0.00     0.014 C 
BRANCH  26  27
HETATM   27  C2  UNL     1      11.912  -3.335  35.257  1.00  0.00    -0.003 C 
HETATM   28  C1  UNL     1      12.934  -2.385  35.854  1.00  0.00     0.005 C 
ENDBRANCH  26  27
ENDBRANCH  25  26
ENDBRANCH  23  25
ENDBRANCH   1  23
TORSDOF 5
ENDMDL
MODEL 6
REMARK minimizedAffinity -7.72984791
REMARK  5 active torsions:
REMARK  status: ('A' for Active; 'I' for Inactive)
REMARK    1  A    between atoms: C2_2  and  C3_3 
REMARK    2  A    between atoms: C3_3  and  C4_4 
REMARK    3  A    between atoms: C4_4  and  N1_5 
REMARK    4  A    between atoms: N1_5  and  C5_6 
REMARK    5  A    between atoms: C9_12  and  C10_13 
ROOT
HETATM    1  C5  UNL     1       9.749  -2.674  32.208  1.00  0.00     0.158 A 
HETATM    2  N2  UNL     1       8.706  -3.153  32.898  1.00  0.00    -0.342 N 
ATOM      3  H2  UNL     1       8.463  -2.788  33.819  1.00  0.00     0.167 HD
HETATM    4  C6  UNL     1       7.993  -4.138  32.321  1.00  0.00     0.106 A 
HETATM    5  C7  UNL     1       8.276  -4.656  31.079  1.00  0.00     0.025 A 
HETATM    6  C8  UNL     1       7.499  -5.719  30.461  1.00  0.00     0.034 A 
HETATM    7  C9  UNL     1       7.842  -6.164  29.242  1.00  0.00     0.047 A 
HETATM    8  C16 UNL     1       9.017  -5.578  28.512  1.00  0.00     0.260 A 
HETATM    9  O1  UNL     1       9.304  -6.006  27.395  1.00  0.00    -0.267 OA
HETATM   10  N3  UNL     1       9.719  -4.570  29.153  1.00  0.00    -0.303 N 
HETATM   11  C17 UNL     1      10.870  -3.964  28.507  1.00  0.00     0.161 C 
HETATM   12  C18 UNL     1       9.364  -4.092  30.440  1.00  0.00     0.124 A 
HETATM   13  N4  UNL     1      10.100  -3.104  30.991  1.00  0.00    -0.318 N 
ATOM     14  H4  UNL     1      10.895  -2.700  30.497  1.00  0.00     0.170 HD
ENDROOT
BRANCH   7  15
HETATM   15  C10 UNL     1       7.057  -7.242  28.609  1.00  0.00     0.023 A 
HETATM   16  C11 UNL     1       5.811  -6.974  28.012  1.00  0.00     0.046 A 
HETATM   17 CL1  UNL     1       5.118  -5.387  28.015  1.00  0.00    -0.083 Cl
HETATM   18  C12 UNL     1       5.076  -7.994  27.398  1.00  0.00     0.025 A 
HETATM   19  C13 UNL     1       5.572  -9.296  27.368  1.00  0.00     0.003 A 
HETATM   20  C14 UNL     1       6.803  -9.580  27.955  1.00  0.00     0.025 A 
HETATM   21  C15 UNL     1       7.541  -8.562  28.570  1.00  0.00     0.046 A 
HETATM   22 CL2  UNL     1       9.056  -9.002  29.284  1.00  0.00    -0.083 Cl
ENDBRANCH   7  15
BRANCH   1  23
HETATM   23  N1  UNL     1      10.544  -1.669  32.737  1.00  0.00    -0.264 NA
HETATM   24  H10 UNL     1      10.026  -1.281  33.516  1.00  0.00     0.130 HD
BRANCH  23  25
HETATM   25  C4  UNL     1      11.923  -2.047  32.994  1.00  0.00     0.095 C 
BRANCH  25  26
HETATM   26  C3  UNL     1      11.982  -3.374  33.760  1.00  0.00     0.014 C 
BRANCH  26  27
HETATM   27  C2  UNL     1      11.743  -3.249  35.269  1.00  0.00    -0.003 C 
HETATM   28  C1  UNL     1      10.485  -3.935  35.770  1.00  0.00     0.005 C 
ENDBRANCH  26  27
ENDBRANCH  25  26
ENDBRANCH  23  25
ENDBRANCH   1  23
TORSDOF 5
ENDMDL
MODEL 7
REMARK minimizedAffinity -7.62336779
REMARK  5 active torsions:
REMARK  status: ('A' for Active; 'I' for Inactive)
REMARK    1  A    between atoms: C2_2  and  C3_3 
REMARK    2  A    between atoms: C3_3  and  C4_4 
REMARK    3  A    between atoms: C4_4  and  N1_5 
REMARK    4  A    between atoms: N1_5  and  C5_6 
REMARK    5  A    between atoms: C9_12  and  C10_13 
ROOT
HETATM    1  C5  UNL     1      11.183  -2.998  30.526  1.00  0.00     0.158 A 
HETATM    2  N2  UNL     1      11.624  -3.513  29.371  1.00  0.00    -0.342 N 
ATOM      3  H2  UNL     1      12.512  -3.223  28.962  1.00  0.00     0.167 HD
HETATM    4  C6  UNL     1      10.842  -4.432  28.775  1.00  0.00     0.106 A 
HETATM    5  C7  UNL     1       9.641  -4.861  29.291  1.00  0.00     0.025 A 
HETATM    6  C8  UNL     1       8.802  -5.855  28.642  1.00  0.00     0.034 A 
HETATM    7  C9  UNL     1       7.647  -6.222  29.217  1.00  0.00     0.047 A 
HETATM    8  C16 UNL     1       7.211  -5.615  30.521  1.00  0.00     0.260 A 
HETATM    9  O1  UNL     1       6.147  -5.974  31.024  1.00  0.00    -0.267 OA
HETATM   10  N3  UNL     1       8.052  -4.672  31.090  1.00  0.00    -0.303 N 
HETATM   11  C17 UNL     1       7.689  -4.042  32.347  1.00  0.00     0.161 C 
HETATM   12  C18 UNL     1       9.276  -4.280  30.490  1.00  0.00     0.124 A 
HETATM   13  N4  UNL     1      10.036  -3.356  31.113  1.00  0.00    -0.318 N 
ATOM     14  H4  UNL     1       9.748  -2.946  32.001  1.00  0.00     0.170 HD
ENDROOT
BRANCH   7  15
HETATM   15  C10 UNL     1       6.791  -7.231  28.563  1.00  0.00     0.023 A 
HETATM   16  C11 UNL     1       5.580  -6.862  27.948  1.00  0.00     0.046 A 
HETATM   17 CL1  UNL     1       5.013  -5.226  27.951  1.00  0.00    -0.083 Cl
HETATM   18  C12 UNL     1       4.777  -7.818  27.315  1.00  0.00     0.025 A 
HETATM   19  C13 UNL     1       5.170  -9.155  27.283  1.00  0.00     0.003 A 
HETATM   20  C14 UNL     1       6.365  -9.537  27.888  1.00  0.00     0.025 A 
HETATM   21  C15 UNL     1       7.170  -8.585  28.522  1.00  0.00     0.046 A 
HETATM   22 CL2  UNL     1       8.634  -9.146  29.258  1.00  0.00    -0.083 Cl
ENDBRANCH   7  15
BRANCH   1  23
HETATM   23  N1  UNL     1      11.923  -2.036  31.197  1.00  0.00    -0.264 NA
HETATM   24  H10 UNL     1      11.830  -1.183  30.659  1.00  0.00     0.130 HD
BRANCH  23  25
HETATM   25  C4  UNL     1      11.655  -1.941  32.622  1.00  0.00     0.095 C 
BRANCH  25  26
HETATM   26  C3  UNL     1      11.907  -3.289  33.307  1.00  0.00     0.014 C 
BRANCH  26  27
HETATM   27  C2  UNL     1      11.655  -3.293  34.819  1.00  0.00    -0.003 C 
HETATM   28  C1  UNL     1      12.748  -2.638  35.644  1.00  0.00     0.005 C 
ENDBRANCH  26  27
ENDBRANCH  25  26
ENDBRANCH  23  25
ENDBRANCH   1  23
TORSDOF 5
ENDMDL
MODEL 8
REMARK minimizedAffinity -7.59471893
REMARK  5 active torsions:
REMARK  status: ('A' for Active; 'I' for Inactive)
REMARK    1  A    between atoms: C2_2  and  C3_3 
REMARK    2  A    between atoms: C3_3  and  C4_4 
REMARK    3  A    between atoms: C4_4  and  N1_5 
REMARK    4  A    between atoms: N1_5  and  C5_6 
REMARK    5  A    between atoms: C9_12  and  C10_13 
ROOT
HETATM    1  C5  UNL     1      10.831  -4.321  32.413  1.00  0.00     0.158 A 
HETATM    2  N2  UNL     1       9.823  -4.574  33.258  1.00  0.00    -0.342 N 
ATOM      3  H2  UNL     1       9.905  -4.385  34.257  1.00  0.00     0.167 HD
HETATM    4  C6  UNL     1       8.697  -5.088  32.728  1.00  0.00     0.106 A 
HETATM    5  C7  UNL     1       8.537  -5.351  31.388  1.00  0.00     0.025 A 
HETATM    6  C8  UNL     1       7.316  -5.905  30.824  1.00  0.00     0.034 A 
HETATM    7  C9  UNL     1       7.241  -6.127  29.502  1.00  0.00     0.047 A 
HETATM    8  C16 UNL     1       8.403  -5.811  28.603  1.00  0.00     0.260 A 
HETATM    9  O1  UNL     1       8.303  -6.024  27.395  1.00  0.00    -0.267 OA
HETATM   10  N3  UNL     1       9.539  -5.288  29.200  1.00  0.00    -0.303 N 
HETATM   11  C17 UNL     1      10.701  -4.966  28.390  1.00  0.00     0.161 C 
HETATM   12  C18 UNL     1       9.626  -5.048  30.595  1.00  0.00     0.124 A 
HETATM   13  N4  UNL     1      10.769  -4.533  31.094  1.00  0.00    -0.318 N 
ATOM     14  H4  UNL     1      11.558  -4.312  30.487  1.00  0.00     0.170 HD
ENDROOT
BRANCH   7  15
HETATM   15  C10 UNL     1       6.006  -6.688  28.923  1.00  0.00     0.023 A 
HETATM   16  C11 UNL     1       4.854  -5.893  28.770  1.00  0.00     0.046 A 
HETATM   17 CL1  UNL     1       4.810  -4.238  29.278  1.00  0.00    -0.083 Cl
HETATM   18  C12 UNL     1       3.688  -6.423  28.205  1.00  0.00     0.025 A 
HETATM   19  C13 UNL     1       3.652  -7.750  27.783  1.00  0.00     0.003 A 
HETATM   20  C14 UNL     1       4.782  -8.551  27.928  1.00  0.00     0.025 A 
HETATM   21  C15 UNL     1       5.950  -8.025  28.492  1.00  0.00     0.046 A 
HETATM   22 CL2  UNL     1       7.307  -9.092  28.645  1.00  0.00    -0.083 Cl
ENDBRANCH   7  15
BRANCH   1  23
HETATM   23  N1  UNL     1      12.030  -3.804  32.879  1.00  0.00    -0.264 NA
HETATM   24  H10 UNL     1      12.703  -3.939  32.135  1.00  0.00     0.130 HD
BRANCH  23  25
HETATM   25  C4  UNL     1      11.943  -2.470  33.446  1.00  0.00     0.095 C 
BRANCH  25  26
HETATM   26  C3  UNL     1      12.213  -1.411  32.372  1.00  0.00     0.014 C 
BRANCH  26  27
HETATM   27  C2  UNL     1      10.976  -0.978  31.577  1.00  0.00    -0.003 C 
HETATM   28  C1  UNL     1       9.664  -1.103  32.331  1.00  0.00     0.005 C 
ENDBRANCH  26  27
ENDBRANCH  25  26
ENDBRANCH  23  25
ENDBRANCH   1  23
TORSDOF 5
ENDMDL
MODEL 9
REMARK minimizedAffinity -7.06655645
REMARK  5 active torsions:
REMARK  status: ('A' for Active; 'I' for Inactive)
REMARK    1  A    between atoms: C2_2  and  C3_3 
REMARK    2  A    between atoms: C3_3  and  C4_4 
REMARK    3  A    between atoms: C4_4  and  N1_5 
REMARK    4  A    between atoms: N1_5  and  C5_6 
REMARK    5  A    between atoms: C9_12  and  C10_13 
ROOT
HETATM    1  C5  UNL     1      10.801  -5.101  30.054  1.00  0.00     0.158 A 
HETATM    2  N2  UNL     1      10.144  -5.624  31.097  1.00  0.00    -0.342 N 
ATOM      3  H2  UNL     1      10.481  -5.508  32.053  1.00  0.00     0.167 HD
HETATM    4  C6  UNL     1       9.018  -6.310  30.828  1.00  0.00     0.106 A 
HETATM    5  C7  UNL     1       8.519  -6.487  29.558  1.00  0.00     0.025 A 
HETATM    6  C8  UNL     1       7.301  -7.228  29.275  1.00  0.00     0.034 A 
HETATM    7  C9  UNL     1       6.881  -7.348  28.006  1.00  0.00     0.047 A 
HETATM    8  C16 UNL     1       7.656  -6.728  26.878  1.00  0.00     0.260 A 
HETATM    9  O1  UNL     1       7.243  -6.854  25.726  1.00  0.00    -0.267 OA
HETATM   10  N3  UNL     1       8.809  -6.035  27.211  1.00  0.00    -0.303 N 
HETATM   11  C17 UNL     1       9.609  -5.416  26.169  1.00  0.00     0.161 C 
HETATM   12  C18 UNL     1       9.259  -5.902  28.549  1.00  0.00     0.124 A 
HETATM   13  N4  UNL     1      10.392  -5.208  28.785  1.00  0.00    -0.318 N 
ATOM     14  H4  UNL     1      10.918  -4.780  28.024  1.00  0.00     0.170 HD
ENDROOT
BRANCH   7  15
HETATM   15  C10 UNL     1       5.645  -8.099  27.712  1.00  0.00     0.023 A 
HETATM   16  C11 UNL     1       4.380  -7.509  27.894  1.00  0.00     0.046 A 
HETATM   17 CL1  UNL     1       4.202  -5.897  28.501  1.00  0.00    -0.083 Cl
HETATM   18  C12 UNL     1       3.209  -8.217  27.600  1.00  0.00     0.025 A 
HETATM   19  C13 UNL     1       3.281  -9.522  27.116  1.00  0.00     0.003 A 
HETATM   20  C14 UNL     1       4.524 -10.122  26.930  1.00  0.00     0.025 A 
HETATM   21  C15 UNL     1       5.697  -9.417  27.224  1.00  0.00     0.046 A 
HETATM   22 CL2  UNL     1       7.200 -10.241  26.974  1.00  0.00    -0.083 Cl
ENDBRANCH   7  15
BRANCH   1  23
HETATM   23  N1  UNL     1      11.977  -4.391  30.245  1.00  0.00    -0.264 NA
HETATM   24  H10 UNL     1      12.413  -4.318  29.334  1.00  0.00     0.130 HD
BRANCH  23  25
HETATM   25  C4  UNL     1      11.834  -3.158  31.000  1.00  0.00     0.095 C 
BRANCH  25  26
HETATM   26  C3  UNL     1      11.503  -3.461  32.465  1.00  0.00     0.014 C 
BRANCH  26  27
HETATM   27  C2  UNL     1      11.679  -2.273  33.418  1.00  0.00    -0.003 C 
HETATM   28  C1  UNL     1      12.288  -2.625  34.763  1.00  0.00     0.005 C 
ENDBRANCH  26  27
ENDBRANCH  25  26
ENDBRANCH  23  25
ENDBRANCH   1  23
TORSDOF 5
ENDMDL
