MODEL 1
REMARK minimizedAffinity -6.51810265
REMARK  5 active torsions:
REMARK  status: ('A' for Active; 'I' for Inactive)
REMARK    1  A    between atoms: C2_2  and  C3_3 
REMARK    2  A    between atoms: C3_3  and  C4_5 
REMARK    3  A    between atoms: C4_5  and  C5_6 
REMARK    4  A    between atoms: C8_9  and  N1_10 
REMARK    5  A    between atoms: N1_10  and  C9_11 
ROOT
HETATM    1  C5  UNL     1       8.426  35.676  19.111  1.00  0.00     0.017 A 
HETATM    2  C6  UNL     1       9.605  35.240  19.705  1.00  0.00     0.043 A 
HETATM    3  C7  UNL     1      10.802  35.189  18.946  1.00  0.00     0.038 A 
HETATM    4  C8  UNL     1      12.057  34.767  19.429  1.00  0.00     0.119 A 
HETATM    5  N2  UNL     1      13.142  34.719  18.634  1.00  0.00    -0.338 N 
ATOM      6  H2  UNL     1      14.045  34.401  18.986  1.00  0.00     0.168 HD
HETATM    7  C15 UNL     1      12.988  35.108  17.366  1.00  0.00     0.182 A 
HETATM    8  N3  UNL     1      11.853  35.537  16.808  1.00  0.00    -0.350 N 
ATOM      9  H3  UNL     1      11.811  35.826  15.831  1.00  0.00     0.166 HD
HETATM   10  C16 UNL     1      10.773  35.568  17.602  1.00  0.00     0.062 A 
HETATM   11  C17 UNL     1       9.546  35.988  17.115  1.00  0.00     0.118 A 
HETATM   12  N4  UNL     1       8.384  36.057  17.817  1.00  0.00    -0.367 N 
ATOM     13  H4  UNL     1       7.518  36.383  17.385  1.00  0.00     0.165 HD
ENDROOT
BRANCH   4  14
HETATM   14  N1  UNL     1      12.173  34.390  20.794  1.00  0.00    -0.342 N 
HETATM   15  H7  UNL     1      12.134  33.378  20.864  1.00  0.00     0.167 HD
BRANCH  14  16
HETATM   16  C9  UNL     1      11.608  35.009  21.933  1.00  0.00     0.034 A 
HETATM   17  C10 UNL     1      12.272  36.002  22.665  1.00  0.00     0.029 A 
HETATM   18  C11 UNL     1      11.711  36.545  23.825  1.00  0.00     0.004 A 
HETATM   19  C12 UNL     1      10.482  36.083  24.288  1.00  0.00     0.019 A 
HETATM   20  C13 UNL     1       9.829  35.071  23.592  1.00  0.00     0.013 A 
HETATM   21 BR1  UNL     1       8.172  34.417  24.227  1.00  0.00    -0.051 Br
HETATM   22  C14 UNL     1      10.388  34.528  22.433  1.00  0.00     0.048 A 
ENDBRANCH  14  16
ENDBRANCH   4  14
BRANCH   1  23
HETATM   23  C4  UNL     1       7.142  35.751  19.889  1.00  0.00     0.140 C 
BRANCH  23  24
HETATM   24  C3  UNL     1       6.374  34.450  19.854  1.00  0.00     0.154 C 
HETATM   25  O1  UNL     1       6.594  33.559  20.679  1.00  0.00    -0.293 OA
BRANCH  24  26
HETATM   26  C2  UNL     1       5.340  34.202  18.811  1.00  0.00     0.040 C 
HETATM   27  C1  UNL     1       5.088  33.023  18.229  1.00  0.00     0.015 C 
ENDBRANCH  24  26
ENDBRANCH  23  24
ENDBRANCH   1  23
TORSDOF 5
ENDMDL
MODEL 2
REMARK minimizedAffinity -6.48764086
REMARK  5 active torsions:
REMARK  status: ('A' for Active; 'I' for Inactive)
REMARK    1  A    between atoms: C2_2  and  C3_3 
REMARK    2  A    between atoms: C3_3  and  C4_5 
REMARK    3  A    between atoms: C4_5  and  C5_6 
REMARK    4  A    between atoms: C8_9  and  N1_10 
REMARK    5  A    between atoms: N1_10  and  C9_11 
ROOT
HETATM    1  C5  UNL     1      17.762  47.845   6.212  1.00  0.00     0.017 A 
HETATM    2  C6  UNL     1      17.301  49.137   5.976  1.00  0.00     0.043 A 
HETATM    3  C7  UNL     1      17.967  50.242   6.564  1.00  0.00     0.038 A 
HETATM    4  C8  UNL     1      17.602  51.594   6.405  1.00  0.00     0.119 A 
HETATM    5  N2  UNL     1      18.269  52.586   7.021  1.00  0.00    -0.338 N 
ATOM      6  H2  UNL     1      17.991  53.561   6.912  1.00  0.00     0.168 HD
HETATM    7  C15 UNL     1      19.311  52.240   7.782  1.00  0.00     0.182 A 
HETATM    8  N3  UNL     1      19.752  50.998   7.992  1.00  0.00    -0.350 N 
ATOM      9  H3  UNL     1      20.563  50.808   8.582  1.00  0.00     0.166 HD
HETATM   10  C16 UNL     1      19.073  50.013   7.385  1.00  0.00     0.062 A 
HETATM   11  C17 UNL     1      19.447  48.689   7.548  1.00  0.00     0.118 A 
HETATM   12  N4  UNL     1      18.836  47.608   6.992  1.00  0.00    -0.367 N 
ATOM     13  H4  UNL     1      19.175  46.660   7.159  1.00  0.00     0.165 HD
ENDROOT
BRANCH   4  14
HETATM   14  N1  UNL     1      16.501  51.910   5.562  1.00  0.00    -0.342 N 
HETATM   15  H7  UNL     1      16.475  51.253   4.789  1.00  0.00     0.167 HD
BRANCH  14  16
HETATM   16  C9  UNL     1      16.022  53.183   5.176  1.00  0.00     0.034 A 
HETATM   17  C10 UNL     1      14.672  53.545   5.267  1.00  0.00     0.029 A 
HETATM   18  C11 UNL     1      14.222  54.789   4.813  1.00  0.00     0.004 A 
HETATM   19  C12 UNL     1      15.117  55.685   4.234  1.00  0.00     0.019 A 
HETATM   20  C13 UNL     1      16.454  55.325   4.103  1.00  0.00     0.013 A 
HETATM   21 BR1  UNL     1      17.672  56.523   3.295  1.00  0.00    -0.051 Br
HETATM   22  C14 UNL     1      16.904  54.082   4.556  1.00  0.00     0.048 A 
ENDBRANCH  14  16
ENDBRANCH   4  14
BRANCH   1  23
HETATM   23  C4  UNL     1      17.085  46.652   5.597  1.00  0.00     0.140 C 
BRANCH  23  24
HETATM   24  C3  UNL     1      16.730  45.602   6.624  1.00  0.00     0.154 C 
HETATM   25  O1  UNL     1      15.706  45.700   7.306  1.00  0.00    -0.293 OA
BRANCH  24  26
HETATM   26  C2  UNL     1      17.617  44.427   6.852  1.00  0.00     0.040 C 
HETATM   27  C1  UNL     1      18.325  44.191   7.962  1.00  0.00     0.015 C 
ENDBRANCH  24  26
ENDBRANCH  23  24
ENDBRANCH   1  23
TORSDOF 5
ENDMDL
MODEL 3
REMARK minimizedAffinity -6.35745811
REMARK  5 active torsions:
REMARK  status: ('A' for Active; 'I' for Inactive)
REMARK    1  A    between atoms: C2_2  and  C3_3 
REMARK    2  A    between atoms: C3_3  and  C4_5 
REMARK    3  A    between atoms: C4_5  and  C5_6 
REMARK    4  A    between atoms: C8_9  and  N1_10 
REMARK    5  A    between atoms: N1_10  and  C9_11 
ROOT
HETATM    1  C5  UNL     1      17.873  47.594   6.376  1.00  0.00     0.017 A 
HETATM    2  C6  UNL     1      17.433  48.889   6.120  1.00  0.00     0.043 A 
HETATM    3  C7  UNL     1      18.091  49.990   6.723  1.00  0.00     0.038 A 
HETATM    4  C8  UNL     1      17.744  51.345   6.546  1.00  0.00     0.119 A 
HETATM    5  N2  UNL     1      18.402  52.334   7.178  1.00  0.00    -0.338 N 
ATOM      6  H2  UNL     1      18.137  53.311   7.057  1.00  0.00     0.168 HD
HETATM    7  C15 UNL     1      19.417  51.981   7.972  1.00  0.00     0.182 A 
HETATM    8  N3  UNL     1      19.840  50.736   8.201  1.00  0.00    -0.350 N 
ATOM      9  H3  UNL     1      20.630  50.541   8.816  1.00  0.00     0.166 HD
HETATM   10  C16 UNL     1      19.169  49.755   7.578  1.00  0.00     0.062 A 
HETATM   11  C17 UNL     1      19.525  48.428   7.759  1.00  0.00     0.118 A 
HETATM   12  N4  UNL     1      18.921  47.350   7.190  1.00  0.00    -0.367 N 
ATOM     13  H4  UNL     1      19.246  46.400   7.371  1.00  0.00     0.165 HD
ENDROOT
BRANCH   4  14
HETATM   14  N1  UNL     1      16.673  51.667   5.669  1.00  0.00    -0.342 N 
HETATM   15  H7  UNL     1      16.655  50.999   4.906  1.00  0.00     0.167 HD
BRANCH  14  16
HETATM   16  C9  UNL     1      16.228  52.943   5.250  1.00  0.00     0.034 A 
HETATM   17  C10 UNL     1      14.878  53.316   5.259  1.00  0.00     0.029 A 
HETATM   18  C11 UNL     1      14.467  54.562   4.773  1.00  0.00     0.004 A 
HETATM   19  C12 UNL     1      15.402  55.448   4.246  1.00  0.00     0.019 A 
HETATM   20  C13 UNL     1      16.742  55.076   4.197  1.00  0.00     0.013 A 
HETATM   21 BR1  UNL     1      18.017  56.262   3.460  1.00  0.00    -0.051 Br
HETATM   22  C14 UNL     1      17.153  53.832   4.681  1.00  0.00     0.048 A 
ENDBRANCH  14  16
ENDBRANCH   4  14
BRANCH   1  23
HETATM   23  C4  UNL     1      17.203  46.405   5.746  1.00  0.00     0.140 C 
BRANCH  23  24
HETATM   24  C3  UNL     1      15.725  46.628   5.529  1.00  0.00     0.154 C 
HETATM   25  O1  UNL     1      14.950  46.733   6.484  1.00  0.00    -0.293 OA
BRANCH  24  26
HETATM   26  C2  UNL     1      15.159  46.709   4.153  1.00  0.00     0.040 C 
HETATM   27  C1  UNL     1      15.860  46.625   3.017  1.00  0.00     0.015 C 
ENDBRANCH  24  26
ENDBRANCH  23  24
ENDBRANCH   1  23
TORSDOF 5
ENDMDL
MODEL 4
REMARK minimizedAffinity -6.32116842
REMARK  5 active torsions:
REMARK  status: ('A' for Active; 'I' for Inactive)
REMARK    1  A    between atoms: C2_2  and  C3_3 
REMARK    2  A    between atoms: C3_3  and  C4_5 
REMARK    3  A    between atoms: C4_5  and  C5_6 
REMARK    4  A    between atoms: C8_9  and  N1_10 
REMARK    5  A    between atoms: N1_10  and  C9_11 
ROOT
HETATM    1  C5  UNL     1      17.061  53.754   5.228  1.00  0.00     0.017 A 
HETATM    2  C6  UNL     1      16.925  52.371   5.305  1.00  0.00     0.043 A 
HETATM    3  C7  UNL     1      17.788  51.623   6.145  1.00  0.00     0.038 A 
HETATM    4  C8  UNL     1      17.754  50.223   6.310  1.00  0.00     0.119 A 
HETATM    5  N2  UNL     1      18.629  49.582   7.106  1.00  0.00    -0.338 N 
ATOM      6  H2  UNL     1      18.607  48.568   7.211  1.00  0.00     0.168 HD
HETATM    7  C15 UNL     1      19.527  50.329   7.753  1.00  0.00     0.182 A 
HETATM    8  N3  UNL     1      19.641  51.658   7.682  1.00  0.00    -0.350 N 
ATOM      9  H3  UNL     1      20.349  52.165   8.213  1.00  0.00     0.166 HD
HETATM   10  C16 UNL     1      18.774  52.288   6.875  1.00  0.00     0.062 A 
HETATM   11  C17 UNL     1      18.818  53.665   6.726  1.00  0.00     0.118 A 
HETATM   12  N4  UNL     1      18.000  54.413   5.937  1.00  0.00    -0.367 N 
ATOM     13  H4  UNL     1      18.094  55.428   5.883  1.00  0.00     0.165 HD
ENDROOT
BRANCH   4  14
HETATM   14  N1  UNL     1      16.761  49.477   5.619  1.00  0.00    -0.342 N 
HETATM   15  H7  UNL     1      15.843  49.823   5.880  1.00  0.00     0.167 HD
BRANCH  14  16
HETATM   16  C9  UNL     1      16.730  48.090   5.344  1.00  0.00     0.034 A 
HETATM   17  C10 UNL     1      17.420  47.148   6.118  1.00  0.00     0.029 A 
HETATM   18  C11 UNL     1      17.423  45.791   5.776  1.00  0.00     0.004 A 
HETATM   19  C12 UNL     1      16.753  45.358   4.636  1.00  0.00     0.019 A 
HETATM   20  C13 UNL     1      16.094  46.287   3.838  1.00  0.00     0.013 A 
HETATM   21 BR1  UNL     1      15.203  45.713   2.272  1.00  0.00    -0.051 Br
HETATM   22  C14 UNL     1      16.091  47.642   4.177  1.00  0.00     0.048 A 
ENDBRANCH  14  16
ENDBRANCH   4  14
BRANCH   1  23
HETATM   23  C4  UNL     1      16.157  54.578   4.355  1.00  0.00     0.140 C 
BRANCH  23  24
HETATM   24  C3  UNL     1      14.737  54.610   4.868  1.00  0.00     0.154 C 
HETATM   25  O1  UNL     1      14.438  54.088   5.946  1.00  0.00    -0.293 OA
BRANCH  24  26
HETATM   26  C2  UNL     1      13.654  55.260   4.079  1.00  0.00     0.040 C 
HETATM   27  C1  UNL     1      13.648  56.532   3.665  1.00  0.00     0.015 C 
ENDBRANCH  24  26
ENDBRANCH  23  24
ENDBRANCH   1  23
TORSDOF 5
ENDMDL
MODEL 5
REMARK minimizedAffinity -6.27685165
REMARK  5 active torsions:
REMARK  status: ('A' for Active; 'I' for Inactive)
REMARK    1  A    between atoms: C2_2  and  C3_3 
REMARK    2  A    between atoms: C3_3  and  C4_5 
REMARK    3  A    between atoms: C4_5  and  C5_6 
REMARK    4  A    between atoms: C8_9  and  N1_10 
REMARK    5  A    between atoms: N1_10  and  C9_11 
ROOT
HETATM    1  C5  UNL     1      11.258  35.501  17.729  1.00  0.00     0.017 A 
HETATM    2  C6  UNL     1      12.360  35.939  17.002  1.00  0.00     0.043 A 
HETATM    3  C7  UNL     1      13.643  35.398  17.271  1.00  0.00     0.038 A 
HETATM    4  C8  UNL     1      14.834  35.756  16.609  1.00  0.00     0.119 A 
HETATM    5  N2  UNL     1      16.021  35.216  16.943  1.00  0.00    -0.338 N 
ATOM      6  H2  UNL     1      16.882  35.489  16.469  1.00  0.00     0.168 HD
HETATM    7  C15 UNL     1      16.024  34.308  17.922  1.00  0.00     0.182 A 
HETATM    8  N3  UNL     1      14.958  33.885  18.605  1.00  0.00    -0.350 N 
ATOM      9  H3  UNL     1      15.034  33.179  19.337  1.00  0.00     0.166 HD
HETATM   10  C16 UNL     1      13.781  34.438  18.276  1.00  0.00     0.062 A 
HETATM   11  C17 UNL     1      12.618  34.073  18.933  1.00  0.00     0.118 A 
HETATM   12  N4  UNL     1      11.372  34.565  18.694  1.00  0.00    -0.367 N 
ATOM     13  H4  UNL     1      10.561  34.241  19.221  1.00  0.00     0.165 HD
ENDROOT
BRANCH   4  14
HETATM   14  N1  UNL     1      14.772  36.709  15.556  1.00  0.00    -0.342 N 
HETATM   15  H7  UNL     1      14.608  36.225  14.679  1.00  0.00     0.167 HD
BRANCH  14  16
HETATM   16  C9  UNL     1      15.558  37.869  15.366  1.00  0.00     0.034 A 
HETATM   17  C10 UNL     1      16.742  37.869  14.616  1.00  0.00     0.029 A 
HETATM   18  C11 UNL     1      17.530  39.019  14.507  1.00  0.00     0.004 A 
HETATM   19  C12 UNL     1      17.158  40.186  15.168  1.00  0.00     0.019 A 
HETATM   20  C13 UNL     1      16.005  40.190  15.946  1.00  0.00     0.013 A 
HETATM   21 BR1  UNL     1      15.504  41.762  16.870  1.00  0.00    -0.051 Br
HETATM   22  C14 UNL     1      15.217  39.042  16.057  1.00  0.00     0.048 A 
ENDBRANCH  14  16
ENDBRANCH   4  14
BRANCH   1  23
HETATM   23  C4  UNL     1       9.883  36.047  17.463  1.00  0.00     0.140 C 
BRANCH  23  24
HETATM   24  C3  UNL     1       9.183  36.479  18.731  1.00  0.00     0.154 C 
HETATM   25  O1  UNL     1       9.823  36.887  19.703  1.00  0.00    -0.293 OA
BRANCH  24  26
HETATM   26  C2  UNL     1       7.699  36.408  18.847  1.00  0.00     0.040 C 
HETATM   27  C1  UNL     1       7.023  35.758  19.800  1.00  0.00     0.015 C 
ENDBRANCH  24  26
ENDBRANCH  23  24
ENDBRANCH   1  23
TORSDOF 5
ENDMDL
MODEL 6
REMARK minimizedAffinity -6.2645731
REMARK  5 active torsions:
REMARK  status: ('A' for Active; 'I' for Inactive)
REMARK    1  A    between atoms: C2_2  and  C3_3 
REMARK    2  A    between atoms: C3_3  and  C4_5 
REMARK    3  A    between atoms: C4_5  and  C5_6 
REMARK    4  A    between atoms: C8_9  and  N1_10 
REMARK    5  A    between atoms: N1_10  and  C9_11 
ROOT
HETATM    1  C5  UNL     1       6.846  64.173  -5.734  1.00  0.00     0.017 A 
HETATM    2  C6  UNL     1       5.717  64.349  -4.941  1.00  0.00     0.043 A 
HETATM    3  C7  UNL     1       4.728  65.291  -5.321  1.00  0.00     0.038 A 
HETATM    4  C8  UNL     1       3.543  65.563  -4.607  1.00  0.00     0.119 A 
HETATM    5  N2  UNL     1       2.666  66.496  -5.019  1.00  0.00    -0.338 N 
ATOM      6  H2  UNL     1       1.817  66.698  -4.491  1.00  0.00     0.168 HD
HETATM    7  C15 UNL     1       2.953  67.147  -6.150  1.00  0.00     0.182 A 
HETATM    8  N3  UNL     1       4.034  66.961  -6.910  1.00  0.00    -0.350 N 
ATOM      9  H3  UNL     1       4.185  67.491  -7.769  1.00  0.00     0.166 HD
HETATM   10  C16 UNL     1       4.911  66.040  -6.485  1.00  0.00     0.062 A 
HETATM   11  C17 UNL     1       6.069  65.781  -7.200  1.00  0.00     0.118 A 
HETATM   12  N4  UNL     1       7.032  64.879  -6.868  1.00  0.00    -0.367 N 
ATOM     13  H4  UNL     1       7.859  64.743  -7.451  1.00  0.00     0.165 HD
ENDROOT
BRANCH   4  14
HETATM   14  N1  UNL     1       3.272  64.823  -3.424  1.00  0.00    -0.342 N 
HETATM   15  H7  UNL     1       3.852  63.991  -3.413  1.00  0.00     0.167 HD
BRANCH  14  16
HETATM   16  C9  UNL     1       2.028  64.596  -2.790  1.00  0.00     0.034 A 
HETATM   17  C10 UNL     1       1.210  63.500  -3.096  1.00  0.00     0.029 A 
HETATM   18  C11 UNL     1      -0.045  63.343  -2.499  1.00  0.00     0.004 A 
HETATM   19  C12 UNL     1      -0.513  64.297  -1.599  1.00  0.00     0.019 A 
HETATM   20  C13 UNL     1       0.273  65.409  -1.314  1.00  0.00     0.013 A 
HETATM   21 BR1  UNL     1      -0.365  66.723  -0.114  1.00  0.00    -0.051 Br
HETATM   22  C14 UNL     1       1.526  65.567  -1.911  1.00  0.00     0.048 A 
ENDBRANCH  14  16
ENDBRANCH   4  14
BRANCH   1  23
HETATM   23  C4  UNL     1       7.909  63.176  -5.365  1.00  0.00     0.140 C 
BRANCH  23  24
HETATM   24  C3  UNL     1       7.875  61.948  -6.244  1.00  0.00     0.154 C 
HETATM   25  O1  UNL     1       8.028  62.036  -7.465  1.00  0.00    -0.293 OA
BRANCH  24  26
HETATM   26  C2  UNL     1       7.636  60.598  -5.662  1.00  0.00     0.040 C 
HETATM   27  C1  UNL     1       8.546  59.623  -5.559  1.00  0.00     0.015 C 
ENDBRANCH  24  26
ENDBRANCH  23  24
ENDBRANCH   1  23
TORSDOF 5
ENDMDL
MODEL 7
REMARK minimizedAffinity -6.26156759
REMARK  5 active torsions:
REMARK  status: ('A' for Active; 'I' for Inactive)
REMARK    1  A    between atoms: C2_2  and  C3_3 
REMARK    2  A    between atoms: C3_3  and  C4_5 
REMARK    3  A    between atoms: C4_5  and  C5_6 
REMARK    4  A    between atoms: C8_9  and  N1_10 
REMARK    5  A    between atoms: N1_10  and  C9_11 
ROOT
HETATM    1  C5  UNL     1       5.695  51.041  19.913  1.00  0.00     0.017 A 
HETATM    2  C6  UNL     1       6.815  51.828  19.665  1.00  0.00     0.043 A 
HETATM    3  C7  UNL     1       8.113  51.293  19.865  1.00  0.00     0.038 A 
HETATM    4  C8  UNL     1       9.322  51.984  19.651  1.00  0.00     0.119 A 
HETATM    5  N2  UNL     1      10.517  51.414  19.892  1.00  0.00    -0.338 N 
ATOM      6  H2  UNL     1      11.388  51.924  19.748  1.00  0.00     0.168 HD
HETATM    7  C15 UNL     1      10.514  50.152  20.329  1.00  0.00     0.182 A 
HETATM    8  N3  UNL     1       9.433  49.401  20.552  1.00  0.00    -0.350 N 
ATOM      9  H3  UNL     1       9.507  48.437  20.880  1.00  0.00     0.166 HD
HETATM   10  C16 UNL     1       8.246  49.981  20.323  1.00  0.00     0.062 A 
HETATM   11  C17 UNL     1       7.065  49.287  20.534  1.00  0.00     0.118 A 
HETATM   12  N4  UNL     1       5.807  49.767  20.344  1.00  0.00    -0.367 N 
ATOM     13  H4  UNL     1       4.984  49.190  20.520  1.00  0.00     0.165 HD
ENDROOT
BRANCH   4  14
HETATM   14  N1  UNL     1       9.271  53.317  19.159  1.00  0.00    -0.342 N 
HETATM   15  H7  UNL     1       9.765  53.365  18.274  1.00  0.00     0.167 HD
BRANCH  14  16
HETATM   16  C9  UNL     1       9.383  54.529  19.880  1.00  0.00     0.034 A 
HETATM   17  C10 UNL     1      10.612  55.042  20.315  1.00  0.00     0.029 A 
HETATM   18  C11 UNL     1      10.679  56.208  21.084  1.00  0.00     0.004 A 
HETATM   19  C12 UNL     1       9.511  56.870  21.452  1.00  0.00     0.019 A 
HETATM   20  C13 UNL     1       8.282  56.352  21.058  1.00  0.00     0.013 A 
HETATM   21 BR1  UNL     1       6.688  57.228  21.574  1.00  0.00    -0.051 Br
HETATM   22  C14 UNL     1       8.213  55.187  20.290  1.00  0.00     0.048 A 
ENDBRANCH  14  16
ENDBRANCH   4  14
BRANCH   1  23
HETATM   23  C4  UNL     1       4.306  51.574  19.703  1.00  0.00     0.140 C 
BRANCH  23  24
HETATM   24  C3  UNL     1       3.575  50.849  18.596  1.00  0.00     0.154 C 
HETATM   25  O1  UNL     1       3.429  49.624  18.626  1.00  0.00    -0.293 OA
BRANCH  24  26
HETATM   26  C2  UNL     1       3.026  51.594  17.429  1.00  0.00     0.040 C 
HETATM   27  C1  UNL     1       2.714  52.895  17.412  1.00  0.00     0.015 C 
ENDBRANCH  24  26
ENDBRANCH  23  24
ENDBRANCH   1  23
TORSDOF 5
ENDMDL
MODEL 8
REMARK minimizedAffinity -6.25909758
REMARK  5 active torsions:
REMARK  status: ('A' for Active; 'I' for Inactive)
REMARK    1  A    between atoms: C2_2  and  C3_3 
REMARK    2  A    between atoms: C3_3  and  C4_5 
REMARK    3  A    between atoms: C4_5  and  C5_6 
REMARK    4  A    between atoms: C8_9  and  N1_10 
REMARK    5  A    between atoms: N1_10  and  C9_11 
ROOT
HETATM    1  C5  UNL     1      16.290  35.847  15.900  1.00  0.00     0.017 A 
HETATM    2  C6  UNL     1      15.049  35.458  16.394  1.00  0.00     0.043 A 
HETATM    3  C7  UNL     1      14.944  34.937  17.709  1.00  0.00     0.038 A 
HETATM    4  C8  UNL     1      13.751  34.508  18.324  1.00  0.00     0.119 A 
HETATM    5  N2  UNL     1      13.738  33.996  19.568  1.00  0.00    -0.338 N 
ATOM      6  H2  UNL     1      12.873  33.676  20.003  1.00  0.00     0.168 HD
HETATM    7  C15 UNL     1      14.907  33.926  20.210  1.00  0.00     0.182 A 
HETATM    8  N3  UNL     1      16.092  34.314  19.731  1.00  0.00    -0.350 N 
ATOM      9  H3  UNL     1      16.946  34.237  20.284  1.00  0.00     0.166 HD
HETATM   10  C16 UNL     1      16.097  34.809  18.485  1.00  0.00     0.062 A 
HETATM   11  C17 UNL     1      17.278  35.230  17.895  1.00  0.00     0.118 A 
HETATM   12  N4  UNL     1      17.411  35.742  16.642  1.00  0.00    -0.367 N 
ATOM     13  H4  UNL     1      18.320  36.034  16.279  1.00  0.00     0.165 HD
ENDROOT
BRANCH   4  14
HETATM   14  N1  UNL     1      12.529  34.630  17.607  1.00  0.00    -0.342 N 
HETATM   15  H7  UNL     1      12.716  35.049  16.701  1.00  0.00     0.167 HD
BRANCH  14  16
HETATM   16  C9  UNL     1      11.252  34.995  18.092  1.00  0.00     0.034 A 
HETATM   17  C10 UNL     1      10.368  35.806  17.368  1.00  0.00     0.029 A 
HETATM   18  C11 UNL     1       9.141  36.203  17.908  1.00  0.00     0.004 A 
HETATM   19  C12 UNL     1       8.787  35.814  19.196  1.00  0.00     0.019 A 
HETATM   20  C13 UNL     1       9.670  35.040  19.941  1.00  0.00     0.013 A 
HETATM   21 BR1  UNL     1       9.211  34.528  21.703  1.00  0.00    -0.051 Br
HETATM   22  C14 UNL     1      10.897  34.643  19.404  1.00  0.00     0.048 A 
ENDBRANCH  14  16
ENDBRANCH   4  14
BRANCH   1  23
HETATM   23  C4  UNL     1      16.434  36.412  14.515  1.00  0.00     0.140 C 
BRANCH  23  24
HETATM   24  C3  UNL     1      17.405  35.619  13.671  1.00  0.00     0.154 C 
HETATM   25  O1  UNL     1      18.575  35.985  13.535  1.00  0.00    -0.293 OA
BRANCH  24  26
HETATM   26  C2  UNL     1      16.969  34.381  12.965  1.00  0.00     0.040 C 
HETATM   27  C1  UNL     1      15.896  34.273  12.174  1.00  0.00     0.015 C 
ENDBRANCH  24  26
ENDBRANCH  23  24
ENDBRANCH   1  23
TORSDOF 5
ENDMDL
MODEL 9
REMARK minimizedAffinity -6.22586632
REMARK  5 active torsions:
REMARK  status: ('A' for Active; 'I' for Inactive)
REMARK    1  A    between atoms: C2_2  and  C3_3 
REMARK    2  A    between atoms: C3_3  and  C4_5 
REMARK    3  A    between atoms: C4_5  and  C5_6 
REMARK    4  A    between atoms: C8_9  and  N1_10 
REMARK    5  A    between atoms: N1_10  and  C9_11 
ROOT
HETATM    1  C5  UNL     1      12.000  35.506  17.288  1.00  0.00     0.017 A 
HETATM    2  C6  UNL     1      12.911  36.304  16.603  1.00  0.00     0.043 A 
HETATM    3  C7  UNL     1      14.300  36.044  16.712  1.00  0.00     0.038 A 
HETATM    4  C8  UNL     1      15.320  36.775  16.072  1.00  0.00     0.119 A 
HETATM    5  N2  UNL     1      16.622  36.483  16.250  1.00  0.00    -0.338 N 
ATOM      6  H2  UNL     1      17.356  37.025  15.794  1.00  0.00     0.168 HD
HETATM    7  C15 UNL     1      16.911  35.453  17.050  1.00  0.00     0.182 A 
HETATM    8  N3  UNL     1      16.029  34.686  17.694  1.00  0.00    -0.350 N 
ATOM      9  H3  UNL     1      16.324  33.908  18.284  1.00  0.00     0.166 HD
HETATM   10  C16 UNL     1      14.735  34.993  17.522  1.00  0.00     0.062 A 
HETATM   11  C17 UNL     1      13.743  34.262  18.156  1.00  0.00     0.118 A 
HETATM   12  N4  UNL     1      12.403  34.479  18.065  1.00  0.00    -0.367 N 
ATOM     13  H4  UNL     1      11.733  33.892  18.562  1.00  0.00     0.165 HD
ENDROOT
BRANCH   4  14
HETATM   14  N1  UNL     1      14.956  37.845  15.209  1.00  0.00    -0.342 N 
HETATM   15  H7  UNL     1      14.704  37.469  14.301  1.00  0.00     0.167 HD
BRANCH  14  16
HETATM   16  C9  UNL     1      15.547  39.126  15.093  1.00  0.00     0.034 A 
HETATM   17  C10 UNL     1      16.169  39.570  13.919  1.00  0.00     0.029 A 
HETATM   18  C11 UNL     1      16.802  40.816  13.860  1.00  0.00     0.004 A 
HETATM   19  C12 UNL     1      16.843  41.630  14.988  1.00  0.00     0.019 A 
HETATM   20  C13 UNL     1      16.262  41.187  16.171  1.00  0.00     0.013 A 
HETATM   21 BR1  UNL     1      16.335  42.274  17.717  1.00  0.00    -0.051 Br
HETATM   22  C14 UNL     1      15.630  39.942  16.231  1.00  0.00     0.048 A 
ENDBRANCH  14  16
ENDBRANCH   4  14
BRANCH   1  23
HETATM   23  C4  UNL     1      10.520  35.749  17.187  1.00  0.00     0.140 C 
BRANCH  23  24
HETATM   24  C3  UNL     1       9.829  35.642  18.526  1.00  0.00     0.154 C 
HETATM   25  O1  UNL     1      10.035  34.682  19.273  1.00  0.00    -0.293 OA
BRANCH  24  26
HETATM   26  C2  UNL     1       8.864  36.685  18.973  1.00  0.00     0.040 C 
HETATM   27  C1  UNL     1       7.539  36.528  19.077  1.00  0.00     0.015 C 
ENDBRANCH  24  26
ENDBRANCH  23  24
ENDBRANCH   1  23
TORSDOF 5
ENDMDL
