MODEL 1
REMARK minimizedAffinity -10.7767897
REMARK  1 active torsions:
REMARK  status: ('A' for Active; 'I' for Inactive)
REMARK    1  A    between atoms: C2_2  and  C3_3 
REMARK       I    between atoms: C3_3  and  N1_5 
ROOT
HETATM    1  C3  UNL     1      -7.979   6.316  13.888  1.00  0.00     0.247 C 
HETATM    2  O1  UNL     1      -8.838   6.214  13.010  1.00  0.00    -0.268 OA
HETATM    3  N1  UNL     1      -6.846   5.488  14.003  1.00  0.00    -0.315 N 
HETATM    4  C4  UNL     1      -5.727   5.794  14.913  1.00  0.00     0.132 C 
HETATM    5  C5  UNL     1      -4.896   7.008  14.472  1.00  0.00     0.020 C 
HETATM    6  C6  UNL     1      -4.014   7.505  15.622  1.00  0.00     0.002 C 
HETATM    7  C7  UNL     1      -3.319   8.842  15.336  1.00  0.00     0.002 C 
HETATM    8  C8  UNL     1      -2.302   8.818  14.194  1.00  0.00     0.020 C 
HETATM    9  C9  UNL     1      -1.061   7.977  14.506  1.00  0.00     0.128 C 
HETATM   10  N2  UNL     1      -0.758   7.041  13.436  1.00  0.00    -0.355 N 
HETATM   11  C10 UNL     1      -1.278   5.777  13.367  1.00  0.00     0.106 A 
HETATM   12  C11 UNL     1      -0.837   5.190  12.198  1.00  0.00     0.019 A 
HETATM   13  C12 UNL     1       0.002   6.146  11.537  1.00  0.00     0.005 A 
HETATM   14  C13 UNL     1       0.715   6.157  10.316  1.00  0.00     0.014 A 
HETATM   15  C14 UNL     1       1.453   7.287   9.949  1.00  0.00     0.001 A 
HETATM   16  C15 UNL     1       1.484   8.408  10.771  1.00  0.00     0.002 A 
HETATM   17  C16 UNL     1       0.775   8.433  11.976  1.00  0.00     0.030 A 
HETATM   18  C17 UNL     1       0.040   7.293  12.341  1.00  0.00     0.045 A 
HETATM   19  C18 UNL     1      -1.232   3.846  11.811  1.00  0.00     0.063 A 
HETATM   20  C19 UNL     1      -0.312   2.967  11.289  1.00  0.00     0.048 A 
HETATM   21  C20 UNL     1      -0.808   1.736  10.954  1.00  0.00     0.108 A 
HETATM   22  N3  UNL     1      -2.098   1.393  11.106  1.00  0.00    -0.202 N 
ATOM     23  H3  UNL     1      -2.435   0.468  10.836  1.00  0.00     0.183 HD
HETATM   24  C21 UNL     1      -2.930   2.313  11.628  1.00  0.00     0.683 A 
HETATM   25  N4  UNL     1      -2.531   3.532  12.005  1.00  0.00    -0.191 N 
ATOM     26  H4  UNL     1      -3.182   4.197  12.423  1.00  0.00     0.184 HD
HETATM   27  N5  UNL     1      -4.254   1.900  11.716  1.00  0.00    -0.192 N 
HETATM   28  C22 UNL     1      -5.449   2.487  12.149  1.00  0.00     0.051 A 
HETATM   29  C23 UNL     1      -6.644   1.814  11.856  1.00  0.00     0.030 A 
HETATM   30  C24 UNL     1      -7.876   2.340  12.230  1.00  0.00     0.004 A 
HETATM   31  C25 UNL     1      -7.932   3.552  12.916  1.00  0.00     0.030 A 
HETATM   32  C26 UNL     1      -6.766   4.261  13.238  1.00  0.00     0.039 A 
HETATM   33  C27 UNL     1      -5.530   3.710  12.836  1.00  0.00     0.059 A 
HETATM   34  H23 UNL     1      -4.322   0.980  11.306  1.00  0.00     0.184 HD
ENDROOT
BRANCH   1  35
HETATM   35  C2  UNL     1      -8.136   7.415  14.893  1.00  0.00     0.064 C 
HETATM   36  C1  UNL     1      -8.900   7.235  15.980  1.00  0.00     0.017 C 
ENDBRANCH   1  35
TORSDOF 1
ENDMDL
MODEL 2
REMARK minimizedAffinity -10.2763357
REMARK  1 active torsions:
REMARK  status: ('A' for Active; 'I' for Inactive)
REMARK    1  A    between atoms: C2_2  and  C3_3 
REMARK       I    between atoms: C3_3  and  N1_5 
ROOT
HETATM    1  C3  UNL     1      -5.562   8.172  14.797  1.00  0.00     0.247 C 
HETATM    2  O1  UNL     1      -6.496   8.453  14.044  1.00  0.00    -0.268 OA
HETATM    3  N1  UNL     1      -4.809   6.985  14.735  1.00  0.00    -0.315 N 
HETATM    4  C4  UNL     1      -3.555   6.797  15.488  1.00  0.00     0.132 C 
HETATM    5  C5  UNL     1      -2.395   7.657  14.968  1.00  0.00     0.020 C 
HETATM    6  C6  UNL     1      -1.261   7.715  15.996  1.00  0.00     0.002 C 
HETATM    7  C7  UNL     1      -0.162   8.726  15.650  1.00  0.00     0.002 C 
HETATM    8  C8  UNL     1       0.630   8.420  14.378  1.00  0.00     0.020 C 
HETATM    9  C9  UNL     1       1.502   7.167  14.496  1.00  0.00     0.128 C 
HETATM   10  N2  UNL     1       1.309   6.266  13.370  1.00  0.00    -0.355 N 
HETATM   11  C10 UNL     1       0.355   5.285  13.343  1.00  0.00     0.106 A 
HETATM   12  C11 UNL     1       0.405   4.666  12.110  1.00  0.00     0.019 A 
HETATM   13  C12 UNL     1       1.452   5.299  11.364  1.00  0.00     0.005 A 
HETATM   14  C13 UNL     1       1.968   5.141  10.057  1.00  0.00     0.014 A 
HETATM   15  C14 UNL     1       3.021   5.951   9.619  1.00  0.00     0.001 A 
HETATM   16  C15 UNL     1       3.561   6.921  10.457  1.00  0.00     0.002 A 
HETATM   17  C16 UNL     1       3.061   7.112  11.748  1.00  0.00     0.030 A 
HETATM   18  C17 UNL     1       2.006   6.292  12.182  1.00  0.00     0.045 A 
HETATM   19  C18 UNL     1      -0.501   3.588  11.749  1.00  0.00     0.063 A 
HETATM   20  C19 UNL     1      -0.039   2.477  11.083  1.00  0.00     0.048 A 
HETATM   21  C20 UNL     1      -0.989   1.537  10.789  1.00  0.00     0.108 A 
HETATM   22  N3  UNL     1      -2.288   1.674  11.110  1.00  0.00    -0.202 N 
ATOM     23  H3  UNL     1      -2.971   0.957  10.866  1.00  0.00     0.183 HD
HETATM   24  C21 UNL     1      -2.652   2.792  11.764  1.00  0.00     0.683 A 
HETATM   25  N4  UNL     1      -1.791   3.752  12.112  1.00  0.00    -0.191 N 
ATOM     26  H4  UNL     1      -2.095   4.575  12.632  1.00  0.00     0.184 HD
HETATM   27  N5  UNL     1      -4.015   2.881  12.023  1.00  0.00    -0.192 N 
HETATM   28  C22 UNL     1      -4.848   3.827  12.632  1.00  0.00     0.051 A 
HETATM   29  C23 UNL     1      -6.233   3.656  12.490  1.00  0.00     0.030 A 
HETATM   30  C24 UNL     1      -7.130   4.563  13.044  1.00  0.00     0.004 A 
HETATM   31  C25 UNL     1      -6.653   5.658  13.760  1.00  0.00     0.030 A 
HETATM   32  C26 UNL     1      -5.279   5.872  13.936  1.00  0.00     0.039 A 
HETATM   33  C27 UNL     1      -4.391   4.943  13.353  1.00  0.00     0.059 A 
HETATM   34  H23 UNL     1      -4.466   2.081  11.605  1.00  0.00     0.184 HD
ENDROOT
BRANCH   1  35
HETATM   35  C2  UNL     1      -5.182   9.177  15.841  1.00  0.00     0.064 C 
HETATM   36  C1  UNL     1      -4.517  10.290  15.501  1.00  0.00     0.017 C 
ENDBRANCH   1  35
TORSDOF 1
ENDMDL
MODEL 3
REMARK minimizedAffinity -9.63902855
REMARK  1 active torsions:
REMARK  status: ('A' for Active; 'I' for Inactive)
REMARK    1  A    between atoms: C2_2  and  C3_3 
REMARK       I    between atoms: C3_3  and  N1_5 
ROOT
HETATM    1  C3  UNL     1      -3.899   9.891  16.083  1.00  0.00     0.247 C 
HETATM    2  O1  UNL     1      -4.917  10.311  15.531  1.00  0.00    -0.268 OA
HETATM    3  N1  UNL     1      -3.347   8.612  15.885  1.00  0.00    -0.315 N 
HETATM    4  C4  UNL     1      -2.005   8.240  16.372  1.00  0.00     0.132 C 
HETATM    5  C5  UNL     1      -0.865   8.939  15.617  1.00  0.00     0.020 C 
HETATM    6  C6  UNL     1       0.449   8.822  16.396  1.00  0.00     0.002 C 
HETATM    7  C7  UNL     1       1.585   9.677  15.823  1.00  0.00     0.002 C 
HETATM    8  C8  UNL     1       2.055   9.286  14.420  1.00  0.00     0.020 C 
HETATM    9  C9  UNL     1       2.749   7.922  14.375  1.00  0.00     0.128 C 
HETATM   10  N2  UNL     1       2.210   7.075  13.322  1.00  0.00    -0.355 N 
HETATM   11  C10 UNL     1       1.143   6.236  13.500  1.00  0.00     0.106 A 
HETATM   12  C11 UNL     1       0.858   5.637  12.290  1.00  0.00     0.019 A 
HETATM   13  C12 UNL     1       1.810   6.131  11.340  1.00  0.00     0.005 A 
HETATM   14  C13 UNL     1       2.025   5.925   9.958  1.00  0.00     0.014 A 
HETATM   15  C14 UNL     1       3.071   6.588   9.307  1.00  0.00     0.001 A 
HETATM   16  C15 UNL     1       3.898   7.460  10.007  1.00  0.00     0.002 A 
HETATM   17  C16 UNL     1       3.700   7.697  11.370  1.00  0.00     0.030 A 
HETATM   18  C17 UNL     1       2.651   7.024  12.018  1.00  0.00     0.045 A 
HETATM   19  C18 UNL     1      -0.243   4.701  12.131  1.00  0.00     0.063 A 
HETATM   20  C19 UNL     1      -0.084   3.548  11.399  1.00  0.00     0.048 A 
HETATM   21  C20 UNL     1      -1.195   2.754  11.314  1.00  0.00     0.108 A 
HETATM   22  N3  UNL     1      -2.370   3.063  11.889  1.00  0.00    -0.202 N 
ATOM     23  H3  UNL     1      -3.181   2.452  11.797  1.00  0.00     0.183 HD
HETATM   24  C21 UNL     1      -2.437   4.210  12.590  1.00  0.00     0.683 A 
HETATM   25  N4  UNL     1      -1.398   5.036  12.746  1.00  0.00    -0.191 N 
ATOM     26  H4  UNL     1      -1.474   5.885  13.307  1.00  0.00     0.184 HD
HETATM   27  N5  UNL     1      -3.693   4.483  13.118  1.00  0.00    -0.192 N 
HETATM   28  C22 UNL     1      -4.247   5.525  13.871  1.00  0.00     0.051 A 
HETATM   29  C23 UNL     1      -5.642   5.550  14.013  1.00  0.00     0.030 A 
HETATM   30  C24 UNL     1      -6.275   6.563  14.726  1.00  0.00     0.004 A 
HETATM   31  C25 UNL     1      -5.516   7.570  15.318  1.00  0.00     0.030 A 
HETATM   32  C26 UNL     1      -4.117   7.588  15.210  1.00  0.00     0.039 A 
HETATM   33  C27 UNL     1      -3.503   6.554  14.471  1.00  0.00     0.059 A 
HETATM   34  H23 UNL     1      -4.326   3.760  12.808  1.00  0.00     0.184 HD
ENDROOT
BRANCH   1  35
HETATM   35  C2  UNL     1      -3.181  10.816  17.017  1.00  0.00     0.064 C 
HETATM   36  C1  UNL     1      -3.441  10.788  18.333  1.00  0.00     0.017 C 
ENDBRANCH   1  35
TORSDOF 1
ENDMDL
MODEL 4
REMARK minimizedAffinity -9.2857132
REMARK  1 active torsions:
REMARK  status: ('A' for Active; 'I' for Inactive)
REMARK    1  A    between atoms: C2_2  and  C3_3 
REMARK       I    between atoms: C3_3  and  N1_5 
ROOT
HETATM    1  C3  UNL     1       2.522   7.114  10.023  1.00  0.00     0.247 C 
HETATM    2  O1  UNL     1       2.798   8.162   9.436  1.00  0.00    -0.268 OA
HETATM    3  N1  UNL     1       2.116   7.028  11.367  1.00  0.00    -0.315 N 
HETATM    4  C4  UNL     1       1.564   5.793  11.955  1.00  0.00     0.132 C 
HETATM    5  C5  UNL     1       0.169   5.433  11.424  1.00  0.00     0.020 C 
HETATM    6  C6  UNL     1      -0.180   3.980  11.762  1.00  0.00     0.002 C 
HETATM    7  C7  UNL     1      -1.457   3.476  11.082  1.00  0.00     0.002 C 
HETATM    8  C8  UNL     1      -2.747   4.180  11.509  1.00  0.00     0.020 C 
HETATM    9  C9  UNL     1      -3.136   3.898  12.963  1.00  0.00     0.128 C 
HETATM   10  N2  UNL     1      -3.432   5.122  13.690  1.00  0.00    -0.355 N 
HETATM   11  C10 UNL     1      -2.486   5.853  14.357  1.00  0.00     0.106 A 
HETATM   12  C11 UNL     1      -3.094   6.978  14.876  1.00  0.00     0.019 A 
HETATM   13  C12 UNL     1      -4.479   6.912  14.515  1.00  0.00     0.005 A 
HETATM   14  C13 UNL     1      -5.595   7.757  14.719  1.00  0.00     0.014 A 
HETATM   15  C14 UNL     1      -6.847   7.395  14.212  1.00  0.00     0.001 A 
HETATM   16  C15 UNL     1      -7.004   6.213  13.496  1.00  0.00     0.002 A 
HETATM   17  C16 UNL     1      -5.917   5.366  13.262  1.00  0.00     0.030 A 
HETATM   18  C17 UNL     1      -4.663   5.734  13.779  1.00  0.00     0.045 A 
HETATM   19  C18 UNL     1      -2.355   7.980  15.625  1.00  0.00     0.063 A 
HETATM   20  C19 UNL     1      -2.881   8.529  16.771  1.00  0.00     0.048 A 
HETATM   21  C20 UNL     1      -2.094   9.469  17.381  1.00  0.00     0.108 A 
HETATM   22  N3  UNL     1      -0.896   9.851  16.905  1.00  0.00    -0.202 N 
ATOM     23  H3  UNL     1      -0.341  10.562  17.380  1.00  0.00     0.183 HD
HETATM   24  C21 UNL     1      -0.457   9.260  15.779  1.00  0.00     0.683 A 
HETATM   25  N4  UNL     1      -1.145   8.317  15.129  1.00  0.00    -0.191 N 
ATOM     26  H4  UNL     1      -0.771   7.869  14.292  1.00  0.00     0.184 HD
HETATM   27  N5  UNL     1       0.768   9.737  15.326  1.00  0.00    -0.192 N 
HETATM   28  C22 UNL     1       1.593   9.465  14.229  1.00  0.00     0.051 A 
HETATM   29  C23 UNL     1       2.662  10.341  13.990  1.00  0.00     0.030 A 
HETATM   30  C24 UNL     1       3.515  10.156  12.907  1.00  0.00     0.004 A 
HETATM   31  C25 UNL     1       3.316   9.080  12.045  1.00  0.00     0.030 A 
HETATM   32  C26 UNL     1       2.265   8.172  12.242  1.00  0.00     0.039 A 
HETATM   33  C27 UNL     1       1.408   8.391  13.341  1.00  0.00     0.059 A 
HETATM   34  H23 UNL     1       1.055  10.490  15.934  1.00  0.00     0.184 HD
ENDROOT
BRANCH   1  35
HETATM   35  C2  UNL     1       2.603   5.837   9.243  1.00  0.00     0.064 C 
HETATM   36  C1  UNL     1       2.689   5.864   7.905  1.00  0.00     0.017 C 
ENDBRANCH   1  35
TORSDOF 1
ENDMDL
MODEL 5
REMARK minimizedAffinity -9.19946289
REMARK  1 active torsions:
REMARK  status: ('A' for Active; 'I' for Inactive)
REMARK    1  A    between atoms: C2_2  and  C3_3 
REMARK       I    between atoms: C3_3  and  N1_5 
ROOT
HETATM    1  C3  UNL     1       1.567  10.394  18.001  1.00  0.00     0.247 C 
HETATM    2  O1  UNL     1       2.486   9.901  18.656  1.00  0.00    -0.268 OA
HETATM    3  N1  UNL     1       1.431  10.291  16.604  1.00  0.00    -0.315 N 
HETATM    4  C4  UNL     1       0.200  10.683  15.893  1.00  0.00     0.132 C 
HETATM    5  C5  UNL     1      -0.985   9.744  16.160  1.00  0.00     0.020 C 
HETATM    6  C6  UNL     1      -2.301  10.396  15.724  1.00  0.00     0.002 C 
HETATM    7  C7  UNL     1      -3.550   9.619  16.155  1.00  0.00     0.002 C 
HETATM    8  C8  UNL     1      -3.705   8.232  15.529  1.00  0.00     0.020 C 
HETATM    9  C9  UNL     1      -3.972   8.275  14.021  1.00  0.00     0.128 C 
HETATM   10  N2  UNL     1      -3.084   7.386  13.289  1.00  0.00    -0.355 N 
HETATM   11  C10 UNL     1      -1.855   7.764  12.820  1.00  0.00     0.106 A 
HETATM   12  C11 UNL     1      -1.258   6.666  12.235  1.00  0.00     0.019 A 
HETATM   13  C12 UNL     1      -2.182   5.576  12.346  1.00  0.00     0.005 A 
HETATM   14  C13 UNL     1      -2.150   4.212  11.974  1.00  0.00     0.014 A 
HETATM   15  C14 UNL     1      -3.248   3.389  12.243  1.00  0.00     0.001 A 
HETATM   16  C15 UNL     1      -4.372   3.898  12.886  1.00  0.00     0.002 A 
HETATM   17  C16 UNL     1      -4.426   5.238  13.281  1.00  0.00     0.030 A 
HETATM   18  C17 UNL     1      -3.321   6.060  13.003  1.00  0.00     0.045 A 
HETATM   19  C18 UNL     1       0.074   6.726  11.657  1.00  0.00     0.063 A 
HETATM   20  C19 UNL     1       0.344   6.119  10.453  1.00  0.00     0.048 A 
HETATM   21  C20 UNL     1       1.637   6.237  10.018  1.00  0.00     0.108 A 
HETATM   22  N3  UNL     1       2.592   6.886  10.707  1.00  0.00    -0.202 N 
ATOM     23  H3  UNL     1       3.548   6.945  10.358  1.00  0.00     0.183 HD
HETATM   24  C21 UNL     1       2.239   7.453  11.876  1.00  0.00     0.683 A 
HETATM   25  N4  UNL     1       0.998   7.409  12.367  1.00  0.00    -0.191 N 
ATOM     26  H4  UNL     1       0.757   7.873  13.244  1.00  0.00     0.184 HD
HETATM   27  N5  UNL     1       3.288   8.067  12.550  1.00  0.00    -0.192 N 
HETATM   28  C22 UNL     1       3.422   8.746  13.767  1.00  0.00     0.051 A 
HETATM   29  C23 UNL     1       4.722   9.021  14.215  1.00  0.00     0.030 A 
HETATM   30  C24 UNL     1       4.944   9.671  15.424  1.00  0.00     0.004 A 
HETATM   31  C25 UNL     1       3.860  10.066  16.207  1.00  0.00     0.030 A 
HETATM   32  C26 UNL     1       2.541   9.818  15.802  1.00  0.00     0.039 A 
HETATM   33  C27 UNL     1       2.345   9.147  14.576  1.00  0.00     0.059 A 
HETATM   34  H23 UNL     1       4.135   7.907  12.024  1.00  0.00     0.184 HD
ENDROOT
BRANCH   1  35
HETATM   35  C2  UNL     1       0.502  11.139  18.745  1.00  0.00     0.064 C 
HETATM   36  C1  UNL     1       0.434  11.070  20.082  1.00  0.00     0.017 C 
ENDBRANCH   1  35
TORSDOF 1
ENDMDL
MODEL 6
REMARK minimizedAffinity -9.18082142
REMARK  1 active torsions:
REMARK  status: ('A' for Active; 'I' for Inactive)
REMARK    1  A    between atoms: C2_2  and  C3_3 
REMARK       I    between atoms: C3_3  and  N1_5 
ROOT
HETATM    1  C3  UNL     1       3.077   7.422   8.798  1.00  0.00     0.247 C 
HETATM    2  O1  UNL     1       3.354   8.413   8.121  1.00  0.00    -0.268 OA
HETATM    3  N1  UNL     1       3.193   7.347  10.199  1.00  0.00    -0.315 N 
HETATM    4  C4  UNL     1       2.624   6.237  10.986  1.00  0.00     0.132 C 
HETATM    5  C5  UNL     1       1.089   6.243  11.032  1.00  0.00     0.020 C 
HETATM    6  C6  UNL     1       0.558   4.891  11.519  1.00  0.00     0.002 C 
HETATM    7  C7  UNL     1      -0.962   4.739  11.385  1.00  0.00     0.002 C 
HETATM    8  C8  UNL     1      -1.792   5.693  12.246  1.00  0.00     0.020 C 
HETATM    9  C9  UNL     1      -1.666   5.417  13.747  1.00  0.00     0.128 C 
HETATM   10  N2  UNL     1      -1.370   6.627  14.497  1.00  0.00    -0.355 N 
HETATM   11  C10 UNL     1      -0.099   7.076  14.736  1.00  0.00     0.106 A 
HETATM   12  C11 UNL     1      -0.184   8.276  15.413  1.00  0.00     0.019 A 
HETATM   13  C12 UNL     1      -1.577   8.555  15.603  1.00  0.00     0.005 A 
HETATM   14  C13 UNL     1      -2.301   9.619  16.188  1.00  0.00     0.014 A 
HETATM   15  C14 UNL     1      -3.699   9.589  16.201  1.00  0.00     0.001 A 
HETATM   16  C15 UNL     1      -4.388   8.523  15.632  1.00  0.00     0.002 A 
HETATM   17  C16 UNL     1      -3.700   7.464  15.031  1.00  0.00     0.030 A 
HETATM   18  C17 UNL     1      -2.296   7.499  15.026  1.00  0.00     0.045 A 
HETATM   19  C18 UNL     1       0.996   9.031  15.799  1.00  0.00     0.063 A 
HETATM   20  C19 UNL     1       1.082   9.612  17.042  1.00  0.00     0.048 A 
HETATM   21  C20 UNL     1       2.238  10.305  17.283  1.00  0.00     0.108 A 
HETATM   22  N3  UNL     1       3.226  10.430  16.380  1.00  0.00    -0.202 N 
ATOM     23  H3  UNL     1       4.070  10.963  16.590  1.00  0.00     0.183 HD
HETATM   24  C21 UNL     1       3.060   9.827  15.188  1.00  0.00     0.683 A 
HETATM   25  N4  UNL     1       1.976   9.111  14.874  1.00  0.00    -0.191 N 
ATOM     26  H4  UNL     1       1.893   8.643  13.971  1.00  0.00     0.184 HD
HETATM   27  N5  UNL     1       4.103  10.036  14.293  1.00  0.00    -0.192 N 
HETATM   28  C22 UNL     1       4.369   9.652  12.974  1.00  0.00     0.051 A 
HETATM   29  C23 UNL     1       5.447  10.271  12.325  1.00  0.00     0.030 A 
HETATM   30  C24 UNL     1       5.765   9.963  11.006  1.00  0.00     0.004 A 
HETATM   31  C25 UNL     1       5.010   9.019  10.314  1.00  0.00     0.030 A 
HETATM   32  C26 UNL     1       3.925   8.368  10.919  1.00  0.00     0.039 A 
HETATM   33  C27 UNL     1       3.618   8.708  12.254  1.00  0.00     0.059 A 
HETATM   34  H23 UNL     1       4.765  10.663  14.727  1.00  0.00     0.184 HD
ENDROOT
BRANCH   1  35
HETATM   35  C2  UNL     1       2.555   6.213   8.083  1.00  0.00     0.064 C 
HETATM   36  C1  UNL     1       2.314   6.257   6.765  1.00  0.00     0.017 C 
ENDBRANCH   1  35
TORSDOF 1
ENDMDL
MODEL 7
REMARK minimizedAffinity -9.06708622
REMARK  1 active torsions:
REMARK  status: ('A' for Active; 'I' for Inactive)
REMARK    1  A    between atoms: C2_2  and  C3_3 
REMARK       I    between atoms: C3_3  and  N1_5 
ROOT
HETATM    1  C3  UNL     1      -5.721   3.604  11.639  1.00  0.00     0.247 C 
HETATM    2  O1  UNL     1      -5.540   3.366  10.444  1.00  0.00    -0.268 OA
HETATM    3  N1  UNL     1      -4.699   3.883  12.567  1.00  0.00    -0.315 N 
HETATM    4  C4  UNL     1      -4.973   4.399  13.921  1.00  0.00     0.132 C 
HETATM    5  C5  UNL     1      -5.490   5.845  13.932  1.00  0.00     0.020 C 
HETATM    6  C6  UNL     1      -6.111   6.186  15.290  1.00  0.00     0.002 C 
HETATM    7  C7  UNL     1      -6.845   7.532  15.313  1.00  0.00     0.002 C 
HETATM    8  C8  UNL     1      -5.962   8.762  15.092  1.00  0.00     0.020 C 
HETATM    9  C9  UNL     1      -4.981   9.016  16.240  1.00  0.00     0.128 C 
HETATM   10  N2  UNL     1      -3.624   9.219  15.757  1.00  0.00    -0.355 N 
HETATM   11  C10 UNL     1      -2.731   8.201  15.563  1.00  0.00     0.106 A 
HETATM   12  C11 UNL     1      -1.571   8.736  15.041  1.00  0.00     0.019 A 
HETATM   13  C12 UNL     1      -1.773  10.150  14.928  1.00  0.00     0.005 A 
HETATM   14  C13 UNL     1      -0.989  11.225  14.449  1.00  0.00     0.014 A 
HETATM   15  C14 UNL     1      -1.501  12.526  14.469  1.00  0.00     0.001 A 
HETATM   16  C15 UNL     1      -2.783  12.773  14.947  1.00  0.00     0.002 A 
HETATM   17  C16 UNL     1      -3.589  11.729  15.411  1.00  0.00     0.030 A 
HETATM   18  C17 UNL     1      -3.066  10.425  15.392  1.00  0.00     0.045 A 
HETATM   19  C18 UNL     1      -0.425   7.910  14.696  1.00  0.00     0.063 A 
HETATM   20  C19 UNL     1       0.851   8.314  15.012  1.00  0.00     0.048 A 
HETATM   21  C20 UNL     1       1.845   7.456  14.626  1.00  0.00     0.108 A 
HETATM   22  N3  UNL     1       1.615   6.302  13.977  1.00  0.00    -0.202 N 
ATOM     23  H3  UNL     1       2.382   5.691  13.696  1.00  0.00     0.183 HD
HETATM   24  C21 UNL     1       0.335   5.983  13.711  1.00  0.00     0.683 A 
HETATM   25  N4  UNL     1      -0.701   6.747  14.069  1.00  0.00    -0.191 N 
ATOM     26  H4  UNL     1      -1.662   6.462  13.876  1.00  0.00     0.184 HD
HETATM   27  N5  UNL     1       0.179   4.798  13.000  1.00  0.00    -0.192 N 
HETATM   28  C22 UNL     1      -0.911   4.086  12.487  1.00  0.00     0.051 A 
HETATM   29  C23 UNL     1      -0.638   3.028  11.607  1.00  0.00     0.030 A 
HETATM   30  C24 UNL     1      -1.664   2.285  11.035  1.00  0.00     0.004 A 
HETATM   31  C25 UNL     1      -2.990   2.585  11.341  1.00  0.00     0.030 A 
HETATM   32  C26 UNL     1      -3.317   3.629  12.218  1.00  0.00     0.039 A 
HETATM   33  C27 UNL     1      -2.256   4.374  12.776  1.00  0.00     0.059 A 
HETATM   34  H23 UNL     1       1.098   4.440  12.783  1.00  0.00     0.184 HD
ENDROOT
BRANCH   1  35
HETATM   35  C2  UNL     1      -7.132   3.622  12.140  1.00  0.00     0.064 C 
HETATM   36  C1  UNL     1      -7.610   2.597  12.860  1.00  0.00     0.017 C 
ENDBRANCH   1  35
TORSDOF 1
ENDMDL
MODEL 8
REMARK minimizedAffinity -8.82608223
REMARK  1 active torsions:
REMARK  status: ('A' for Active; 'I' for Inactive)
REMARK    1  A    between atoms: C2_2  and  C3_3 
REMARK       I    between atoms: C3_3  and  N1_5 
ROOT
HETATM    1  C3  UNL     1      -2.524  14.767   1.963  1.00  0.00     0.247 C 
HETATM    2  O1  UNL     1      -2.906  13.916   2.768  1.00  0.00    -0.268 OA
HETATM    3  N1  UNL     1      -1.200  15.230   1.851  1.00  0.00    -0.315 N 
HETATM    4  C4  UNL     1      -0.741  16.060   0.722  1.00  0.00     0.132 C 
HETATM    5  C5  UNL     1      -0.675  15.300  -0.610  1.00  0.00     0.020 C 
HETATM    6  C6  UNL     1      -0.573  16.277  -1.786  1.00  0.00     0.002 C 
HETATM    7  C7  UNL     1      -0.723  15.612  -3.159  1.00  0.00     0.002 C 
HETATM    8  C8  UNL     1       0.378  14.615  -3.526  1.00  0.00     0.020 C 
HETATM    9  C9  UNL     1       1.743  15.275  -3.740  1.00  0.00     0.128 C 
HETATM   10  N2  UNL     1       2.793  14.601  -2.994  1.00  0.00    -0.355 N 
HETATM   11  C10 UNL     1       3.130  14.920  -1.706  1.00  0.00     0.106 A 
HETATM   12  C11 UNL     1       4.113  14.047  -1.286  1.00  0.00     0.019 A 
HETATM   13  C12 UNL     1       4.390  13.166  -2.381  1.00  0.00     0.005 A 
HETATM   14  C13 UNL     1       5.255  12.064  -2.567  1.00  0.00     0.014 A 
HETATM   15  C14 UNL     1       5.278  11.394  -3.795  1.00  0.00     0.001 A 
HETATM   16  C15 UNL     1       4.447  11.796  -4.835  1.00  0.00     0.002 A 
HETATM   17  C16 UNL     1       3.568  12.871  -4.675  1.00  0.00     0.030 A 
HETATM   18  C17 UNL     1       3.554  13.543  -3.441  1.00  0.00     0.045 A 
HETATM   19  C18 UNL     1       4.676  14.103   0.054  1.00  0.00     0.063 A 
HETATM   20  C19 UNL     1       6.030  13.968   0.251  1.00  0.00     0.048 A 
HETATM   21  C20 UNL     1       6.436  14.028   1.557  1.00  0.00     0.108 A 
HETATM   22  N3  UNL     1       5.590  14.197   2.588  1.00  0.00    -0.202 N 
ATOM     23  H3  UNL     1       5.927  14.227   3.550  1.00  0.00     0.183 HD
HETATM   24  C21 UNL     1       4.280  14.324   2.303  1.00  0.00     0.683 A 
HETATM   25  N4  UNL     1       3.795  14.300   1.058  1.00  0.00    -0.191 N 
ATOM     26  H4  UNL     1       2.799  14.427   0.874  1.00  0.00     0.184 HD
HETATM   27  N5  UNL     1       3.464  14.451   3.421  1.00  0.00    -0.192 N 
HETATM   28  C22 UNL     1       2.087  14.581   3.632  1.00  0.00     0.051 A 
HETATM   29  C23 UNL     1       1.618  14.446   4.948  1.00  0.00     0.030 A 
HETATM   30  C24 UNL     1       0.262  14.538   5.241  1.00  0.00     0.004 A 
HETATM   31  C25 UNL     1      -0.653  14.776   4.218  1.00  0.00     0.030 A 
HETATM   32  C26 UNL     1      -0.236  14.923   2.887  1.00  0.00     0.039 A 
HETATM   33  C27 UNL     1       1.144  14.814   2.616  1.00  0.00     0.059 A 
HETATM   34  H23 UNL     1       4.044  14.368   4.243  1.00  0.00     0.184 HD
ENDROOT
BRANCH   1  35
HETATM   35  C2  UNL     1      -3.537  15.335   1.018  1.00  0.00     0.064 C 
HETATM   36  C1  UNL     1      -4.847  15.231   1.284  1.00  0.00     0.017 C 
ENDBRANCH   1  35
TORSDOF 1
ENDMDL
MODEL 9
REMARK minimizedAffinity -8.6087656
REMARK  1 active torsions:
REMARK  status: ('A' for Active; 'I' for Inactive)
REMARK    1  A    between atoms: C2_2  and  C3_3 
REMARK       I    between atoms: C3_3  and  N1_5 
ROOT
HETATM    1  C3  UNL     1      -1.925   4.700  12.235  1.00  0.00     0.247 C 
HETATM    2  O1  UNL     1      -2.387   3.930  13.078  1.00  0.00    -0.268 OA
HETATM    3  N1  UNL     1      -1.428   5.988  12.509  1.00  0.00    -0.315 N 
HETATM    4  C4  UNL     1      -0.666   6.774  11.520  1.00  0.00     0.132 C 
HETATM    5  C5  UNL     1       0.732   6.206  11.234  1.00  0.00     0.020 C 
HETATM    6  C6  UNL     1       1.310   6.815   9.953  1.00  0.00     0.002 C 
HETATM    7  C7  UNL     1       2.603   6.144   9.477  1.00  0.00     0.002 C 
HETATM    8  C8  UNL     1       3.799   6.288  10.420  1.00  0.00     0.020 C 
HETATM    9  C9  UNL     1       4.314   7.726  10.527  1.00  0.00     0.128 C 
HETATM   10  N2  UNL     1       4.472   8.142  11.912  1.00  0.00    -0.355 N 
HETATM   11  C10 UNL     1       3.472   8.721  12.646  1.00  0.00     0.106 A 
HETATM   12  C11 UNL     1       3.939   8.927  13.928  1.00  0.00     0.019 A 
HETATM   13  C12 UNL     1       5.293   8.462  13.962  1.00  0.00     0.005 A 
HETATM   14  C13 UNL     1       6.283   8.375  14.968  1.00  0.00     0.014 A 
HETATM   15  C14 UNL     1       7.541   7.844  14.667  1.00  0.00     0.001 A 
HETATM   16  C15 UNL     1       7.826   7.388  13.384  1.00  0.00     0.002 A 
HETATM   17  C16 UNL     1       6.863   7.444  12.373  1.00  0.00     0.030 A 
HETATM   18  C17 UNL     1       5.603   7.983  12.682  1.00  0.00     0.045 A 
HETATM   19  C18 UNL     1       3.108   9.508  14.969  1.00  0.00     0.063 A 
HETATM   20  C19 UNL     1       3.617  10.456  15.826  1.00  0.00     0.048 A 
HETATM   21  C20 UNL     1       2.740  10.919  16.769  1.00  0.00     0.108 A 
HETATM   22  N3  UNL     1       1.472  10.485  16.876  1.00  0.00    -0.202 N 
ATOM     23  H3  UNL     1       0.849  10.845  17.598  1.00  0.00     0.183 HD
HETATM   24  C21 UNL     1       1.056   9.558  15.994  1.00  0.00     0.683 A 
HETATM   25  N4  UNL     1       1.833   9.065  15.025  1.00  0.00    -0.191 N 
ATOM     26  H4  UNL     1       1.479   8.383  14.355  1.00  0.00     0.184 HD
HETATM   27  N5  UNL     1      -0.251   9.128  16.193  1.00  0.00    -0.192 N 
HETATM   28  C22 UNL     1      -1.093   8.196  15.576  1.00  0.00     0.051 A 
HETATM   29  C23 UNL     1      -2.292   7.875  16.229  1.00  0.00     0.030 A 
HETATM   30  C24 UNL     1      -3.174   6.941  15.695  1.00  0.00     0.004 A 
HETATM   31  C25 UNL     1      -2.873   6.316  14.487  1.00  0.00     0.030 A 
HETATM   32  C26 UNL     1      -1.690   6.606  13.792  1.00  0.00     0.039 A 
HETATM   33  C27 UNL     1      -0.808   7.548  14.362  1.00  0.00     0.059 A 
HETATM   34  H23 UNL     1      -0.608   9.584  17.021  1.00  0.00     0.184 HD
ENDROOT
BRANCH   1  35
HETATM   35  C2  UNL     1      -1.865   4.224  10.816  1.00  0.00     0.064 C 
HETATM   36  C1  UNL     1      -2.879   3.520  10.293  1.00  0.00     0.017 C 
ENDBRANCH   1  35
TORSDOF 1
ENDMDL
