MODEL 1
REMARK minimizedAffinity -9.41890144
REMARK  6 active torsions:
REMARK  status: ('A' for Active; 'I' for Inactive)
REMARK    1  A    between atoms: C2_2  and  C3_3 
REMARK       I    between atoms: C3_3  and  N1_5 
REMARK    2  A    between atoms: C6_8  and  N2_9 
REMARK    3  A    between atoms: C7_12  and  C8_13 
REMARK    4  A    between atoms: C11_16  and  O2_17 
REMARK    5  A    between atoms: O2_17  and  C12_18 
REMARK    6  A    between atoms: C21_27  and  N4_28 
ROOT
HETATM    1  N2  UNL     1       6.407  -8.308  28.102  1.00  0.00    -0.270 N 
HETATM    2  N3  UNL     1       7.361  -7.549  28.683  1.00  0.00    -0.295 N 
ATOM      3  H3  UNL     1       8.364  -7.727  28.728  1.00  0.00     0.187 HD
HETATM    4  C7  UNL     1       6.685  -6.503  29.189  1.00  0.00     0.076 A 
HETATM    5  C20 UNL     1       5.297  -6.575  28.879  1.00  0.00     0.082 A 
HETATM    6  C21 UNL     1       4.137  -5.820  29.078  1.00  0.00     0.116 A 
HETATM    7  N5  UNL     1       2.971  -6.282  28.579  1.00  0.00    -0.338 N 
ATOM      8  H5  UNL     1       2.107  -5.753  28.700  1.00  0.00     0.168 HD
HETATM    9  C22 UNL     1       2.973  -7.455  27.919  1.00  0.00     0.183 A 
HETATM   10  N6  UNL     1       4.019  -8.259  27.662  1.00  0.00    -0.337 N 
ATOM     11  H6  UNL     1       3.957  -9.136  27.146  1.00  0.00     0.168 HD
HETATM   12  C23 UNL     1       5.157  -7.757  28.172  1.00  0.00     0.140 A 
ENDROOT
BRANCH   4  13
HETATM   13  C8  UNL     1       7.380  -5.466  29.939  1.00  0.00    -0.007 A 
HETATM   14  C9  UNL     1       8.763  -5.280  29.775  1.00  0.00     0.016 A 
HETATM   15  C10 UNL     1       9.428  -4.290  30.502  1.00  0.00     0.038 A 
HETATM   16  C11 UNL     1       8.719  -3.498  31.408  1.00  0.00     0.076 A 
HETATM   17  C18 UNL     1       7.339  -3.661  31.555  1.00  0.00     0.038 A 
HETATM   18  C19 UNL     1       6.671  -4.644  30.821  1.00  0.00     0.016 A 
BRANCH  16  19
HETATM   19  O2  UNL     1       9.303  -2.487  32.137  1.00  0.00    -0.311 OA
BRANCH  19  20
HETATM   20  C12 UNL     1      10.128  -2.840  33.183  1.00  0.00     0.076 A 
HETATM   21  C13 UNL     1       9.742  -3.728  34.195  1.00  0.00     0.037 A 
HETATM   22  C14 UNL     1      10.625  -4.013  35.240  1.00  0.00     0.003 A 
HETATM   23  C15 UNL     1      11.875  -3.394  35.285  1.00  0.00     0.000 A 
HETATM   24  C16 UNL     1      12.245  -2.487  34.291  1.00  0.00     0.003 A 
HETATM   25  C17 UNL     1      11.370  -2.205  33.242  1.00  0.00     0.037 A 
ENDBRANCH  19  20
ENDBRANCH  16  19
ENDBRANCH   4  13
BRANCH   1  26
HETATM   26  C6  UNL     1       6.778  -9.592  27.515  1.00  0.00     0.113 C 
HETATM   27  C5  UNL     1       8.117 -10.133  28.057  1.00  0.00     0.047 C 
HETATM   28  C4  UNL     1       9.108 -10.436  26.938  1.00  0.00     0.128 C 
HETATM   29  N1  UNL     1       8.483 -11.290  25.925  1.00  0.00    -0.349 N 
HETATM   30  C3  UNL     1       9.013 -12.452  25.394  1.00  0.00     0.242 C 
HETATM   31  C25 UNL     1       7.212 -10.836  25.371  1.00  0.00     0.128 C 
HETATM   32  O1  UNL     1       8.502 -13.074  24.465  1.00  0.00    -0.268 OA
HETATM   33  C24 UNL     1       6.721  -9.532  25.982  1.00  0.00     0.047 C 
BRANCH  30  34
HETATM   34  C2  UNL     1      10.277 -12.960  25.970  1.00  0.00     0.064 C 
HETATM   35  C1  UNL     1      10.255 -13.837  26.983  1.00  0.00     0.017 C 
ENDBRANCH  30  34
ENDBRANCH   1  26
BRANCH   6  36
HETATM   36  N4  UNL     1       4.088  -4.606  29.746  1.00  0.00    -0.385 N 
HETATM   37  H18 UNL     1       3.237  -4.101  29.534  1.00  0.00     0.157 HD
HETATM   38  H19 UNL     1       4.945  -4.068  29.759  1.00  0.00     0.157 HD
ENDBRANCH   6  36
TORSDOF 6
ENDMDL
MODEL 2
REMARK minimizedAffinity -9.40830135
REMARK  6 active torsions:
REMARK  status: ('A' for Active; 'I' for Inactive)
REMARK    1  A    between atoms: C2_2  and  C3_3 
REMARK       I    between atoms: C3_3  and  N1_5 
REMARK    2  A    between atoms: C6_8  and  N2_9 
REMARK    3  A    between atoms: C7_12  and  C8_13 
REMARK    4  A    between atoms: C11_16  and  O2_17 
REMARK    5  A    between atoms: O2_17  and  C12_18 
REMARK    6  A    between atoms: C21_27  and  N4_28 
ROOT
HETATM    1  N2  UNL     1       6.471  -8.285  28.292  1.00  0.00    -0.270 N 
HETATM    2  N3  UNL     1       7.460  -7.544  28.837  1.00  0.00    -0.295 N 
ATOM      3  H3  UNL     1       8.450  -7.777  28.911  1.00  0.00     0.187 HD
HETATM    4  C7  UNL     1       6.840  -6.430  29.260  1.00  0.00     0.076 A 
HETATM    5  C20 UNL     1       5.454  -6.442  28.932  1.00  0.00     0.082 A 
HETATM    6  C21 UNL     1       4.338  -5.608  29.061  1.00  0.00     0.116 A 
HETATM    7  N5  UNL     1       3.154  -6.035  28.575  1.00  0.00    -0.338 N 
ATOM      8  H5  UNL     1       2.322  -5.450  28.645  1.00  0.00     0.168 HD
HETATM    9  C22 UNL     1       3.095  -7.248  27.994  1.00  0.00     0.183 A 
HETATM   10  N6  UNL     1       4.095  -8.127  27.810  1.00  0.00    -0.337 N 
ATOM     11  H6  UNL     1       3.988  -9.032  27.353  1.00  0.00     0.168 HD
HETATM   12  C23 UNL     1       5.254  -7.659  28.304  1.00  0.00     0.140 A 
ENDROOT
BRANCH   4  13
HETATM   13  C8  UNL     1       7.586  -5.386  29.951  1.00  0.00    -0.007 A 
HETATM   14  C9  UNL     1       6.999  -4.682  31.016  1.00  0.00     0.016 A 
HETATM   15  C10 UNL     1       7.714  -3.677  31.671  1.00  0.00     0.038 A 
HETATM   16  C11 UNL     1       9.008  -3.358  31.252  1.00  0.00     0.076 A 
HETATM   17  C18 UNL     1       9.607  -4.074  30.211  1.00  0.00     0.038 A 
HETATM   18  C19 UNL     1       8.896  -5.086  29.563  1.00  0.00     0.016 A 
BRANCH  16  19
HETATM   19  O2  UNL     1       9.780  -2.399  31.867  1.00  0.00    -0.311 OA
BRANCH  19  20
HETATM   20  C12 UNL     1      10.408  -2.736  33.045  1.00  0.00     0.076 A 
HETATM   21  C13 UNL     1      11.653  -2.217  33.424  1.00  0.00     0.037 A 
HETATM   22  C14 UNL     1      12.241  -2.630  34.622  1.00  0.00     0.003 A 
HETATM   23  C15 UNL     1      11.599  -3.575  35.424  1.00  0.00     0.000 A 
HETATM   24  C16 UNL     1      10.374  -4.113  35.030  1.00  0.00     0.003 A 
HETATM   25  C17 UNL     1       9.779  -3.698  33.838  1.00  0.00     0.037 A 
ENDBRANCH  19  20
ENDBRANCH  16  19
ENDBRANCH   4  13
BRANCH   1  26
HETATM   26  C6  UNL     1       6.772  -9.625  27.799  1.00  0.00     0.113 C 
HETATM   27  C5  UNL     1       8.076 -10.200  28.390  1.00  0.00     0.047 C 
HETATM   28  C4  UNL     1       9.056 -10.634  27.305  1.00  0.00     0.128 C 
HETATM   29  N1  UNL     1       8.390 -11.520  26.346  1.00  0.00    -0.349 N 
HETATM   30  C3  UNL     1       8.857 -12.744  25.901  1.00  0.00     0.242 C 
HETATM   31  C25 UNL     1       7.149 -11.036  25.750  1.00  0.00     0.128 C 
HETATM   32  O1  UNL     1       8.318 -13.399  25.013  1.00  0.00    -0.268 OA
HETATM   33  C24 UNL     1       6.728  -9.668  26.265  1.00  0.00     0.047 C 
BRANCH  30  34
HETATM   34  C2  UNL     1      10.087 -13.280  26.523  1.00  0.00     0.064 C 
HETATM   35  C1  UNL     1      10.816 -12.516  27.349  1.00  0.00     0.017 C 
ENDBRANCH  30  34
ENDBRANCH   1  26
BRANCH   6  36
HETATM   36  N4  UNL     1       4.353  -4.351  29.646  1.00  0.00    -0.385 N 
HETATM   37  H18 UNL     1       3.535  -3.813  29.387  1.00  0.00     0.157 HD
HETATM   38  H19 UNL     1       5.240  -3.864  29.637  1.00  0.00     0.157 HD
ENDBRANCH   6  36
TORSDOF 6
ENDMDL
MODEL 3
REMARK minimizedAffinity -9.38682652
REMARK  6 active torsions:
REMARK  status: ('A' for Active; 'I' for Inactive)
REMARK    1  A    between atoms: C2_2  and  C3_3 
REMARK       I    between atoms: C3_3  and  N1_5 
REMARK    2  A    between atoms: C6_8  and  N2_9 
REMARK    3  A    between atoms: C7_12  and  C8_13 
REMARK    4  A    between atoms: C11_16  and  O2_17 
REMARK    5  A    between atoms: O2_17  and  C12_18 
REMARK    6  A    between atoms: C21_27  and  N4_28 
ROOT
HETATM    1  N2  UNL     1       4.866  -7.722  27.719  1.00  0.00    -0.270 N 
HETATM    2  N3  UNL     1       5.042  -7.034  28.868  1.00  0.00    -0.295 N 
ATOM      3  H3  UNL     1       4.397  -6.951  29.654  1.00  0.00     0.187 HD
HETATM    4  C7  UNL     1       6.261  -6.484  28.738  1.00  0.00     0.076 A 
HETATM    5  C20 UNL     1       6.885  -6.870  27.517  1.00  0.00     0.082 A 
HETATM    6  C21 UNL     1       8.099  -6.673  26.851  1.00  0.00     0.116 A 
HETATM    7  N5  UNL     1       8.282  -7.267  25.654  1.00  0.00    -0.338 N 
ATOM      8  H5  UNL     1       9.158  -7.150  25.143  1.00  0.00     0.168 HD
HETATM    9  C22 UNL     1       7.285  -8.017  25.146  1.00  0.00     0.183 A 
HETATM   10  N6  UNL     1       6.087  -8.281  25.695  1.00  0.00    -0.337 N 
ATOM     11  H6  UNL     1       5.373  -8.867  25.262  1.00  0.00     0.168 HD
HETATM   12  C23 UNL     1       5.951  -7.674  26.887  1.00  0.00     0.140 A 
ENDROOT
BRANCH   4  13
HETATM   13  C8  UNL     1       6.797  -5.619  29.781  1.00  0.00    -0.007 A 
HETATM   14  C9  UNL     1       8.028  -5.919  30.387  1.00  0.00     0.016 A 
HETATM   15  C10 UNL     1       8.535  -5.092  31.392  1.00  0.00     0.038 A 
HETATM   16  C11 UNL     1       7.805  -3.977  31.808  1.00  0.00     0.076 A 
HETATM   17  C18 UNL     1       6.593  -3.658  31.189  1.00  0.00     0.038 A 
HETATM   18  C19 UNL     1       6.091  -4.478  30.177  1.00  0.00     0.016 A 
BRANCH  16  19
HETATM   19  O2  UNL     1       8.255  -3.104  32.772  1.00  0.00    -0.311 OA
BRANCH  19  20
HETATM   20  C12 UNL     1       9.533  -2.607  32.647  1.00  0.00     0.076 A 
HETATM   21  C13 UNL     1      10.605  -3.047  33.435  1.00  0.00     0.037 A 
HETATM   22  C14 UNL     1      11.868  -2.473  33.269  1.00  0.00     0.003 A 
HETATM   23  C15 UNL     1      12.052  -1.449  32.338  1.00  0.00     0.000 A 
HETATM   24  C16 UNL     1      10.976  -0.993  31.577  1.00  0.00     0.003 A 
HETATM   25  C17 UNL     1       9.715  -1.568  31.733  1.00  0.00     0.037 A 
ENDBRANCH  19  20
ENDBRANCH  16  19
ENDBRANCH   4  13
BRANCH   1  26
HETATM   26  C6  UNL     1       3.591  -8.388  27.475  1.00  0.00     0.113 C 
HETATM   27  C5  UNL     1       3.477  -8.954  26.044  1.00  0.00     0.047 C 
HETATM   28  C4  UNL     1       2.238  -8.437  25.319  1.00  0.00     0.128 C 
HETATM   29  N1  UNL     1       1.045  -8.648  26.144  1.00  0.00    -0.349 N 
HETATM   30  C3  UNL     1      -0.143  -9.225  25.732  1.00  0.00     0.242 C 
HETATM   31  C25 UNL     1       1.087  -8.137  27.510  1.00  0.00     0.128 C 
HETATM   32  O1  UNL     1      -1.154  -9.278  26.429  1.00  0.00    -0.268 OA
HETATM   33  C24 UNL     1       2.414  -7.484  27.867  1.00  0.00     0.047 C 
BRANCH  30  34
HETATM   34  C2  UNL     1      -0.197  -9.793  24.368  1.00  0.00     0.064 C 
HETATM   35  C1  UNL     1       0.849  -9.666  23.540  1.00  0.00     0.017 C 
ENDBRANCH  30  34
ENDBRANCH   1  26
BRANCH   6  36
HETATM   36  N4  UNL     1       9.153  -5.915  27.336  1.00  0.00    -0.385 N 
HETATM   37  H18 UNL     1      10.017  -6.130  26.853  1.00  0.00     0.157 HD
HETATM   38  H19 UNL     1       9.207  -5.815  28.341  1.00  0.00     0.157 HD
ENDBRANCH   6  36
TORSDOF 6
ENDMDL
MODEL 4
REMARK minimizedAffinity -9.35277081
REMARK  6 active torsions:
REMARK  status: ('A' for Active; 'I' for Inactive)
REMARK    1  A    between atoms: C2_2  and  C3_3 
REMARK       I    between atoms: C3_3  and  N1_5 
REMARK    2  A    between atoms: C6_8  and  N2_9 
REMARK    3  A    between atoms: C7_12  and  C8_13 
REMARK    4  A    between atoms: C11_16  and  O2_17 
REMARK    5  A    between atoms: O2_17  and  C12_18 
REMARK    6  A    between atoms: C21_27  and  N4_28 
ROOT
HETATM    1  N2  UNL     1       5.069  -7.819  27.155  1.00  0.00    -0.270 N 
HETATM    2  N3  UNL     1       5.113  -7.135  28.318  1.00  0.00    -0.295 N 
ATOM      3  H3  UNL     1       4.377  -7.039  29.018  1.00  0.00     0.187 HD
HETATM    4  C7  UNL     1       6.349  -6.608  28.343  1.00  0.00     0.076 A 
HETATM    5  C20 UNL     1       7.113  -7.007  27.210  1.00  0.00     0.082 A 
HETATM    6  C21 UNL     1       8.405  -6.834  26.701  1.00  0.00     0.116 A 
HETATM    7  N5  UNL     1       8.725  -7.431  25.535  1.00  0.00    -0.338 N 
ATOM      8  H5  UNL     1       9.660  -7.332  25.139  1.00  0.00     0.168 HD
HETATM    9  C22 UNL     1       7.785  -8.161  24.905  1.00  0.00     0.183 A 
HETATM   10  N6  UNL     1       6.523  -8.402  25.298  1.00  0.00    -0.337 N 
ATOM     11  H6  UNL     1       5.858  -8.974  24.778  1.00  0.00     0.168 HD
HETATM   12  C23 UNL     1       6.251  -7.793  26.465  1.00  0.00     0.140 A 
ENDROOT
BRANCH   4  13
HETATM   13  C8  UNL     1       6.767  -5.754  29.447  1.00  0.00    -0.007 A 
HETATM   14  C9  UNL     1       5.982  -4.652  29.825  1.00  0.00     0.016 A 
HETATM   15  C10 UNL     1       6.389  -3.830  30.879  1.00  0.00     0.038 A 
HETATM   16  C11 UNL     1       7.590  -4.094  31.543  1.00  0.00     0.076 A 
HETATM   17  C18 UNL     1       8.360  -5.206  31.188  1.00  0.00     0.038 A 
HETATM   18  C19 UNL     1       7.948  -6.033  30.142  1.00  0.00     0.016 A 
BRANCH  16  19
HETATM   19  O2  UNL     1       8.040  -3.344  32.605  1.00  0.00    -0.311 OA
BRANCH  19  20
HETATM   20  C12 UNL     1       9.298  -2.791  32.518  1.00  0.00     0.076 A 
HETATM   21  C13 UNL     1      10.389  -3.250  33.267  1.00  0.00     0.037 A 
HETATM   22  C14 UNL     1      11.628  -2.617  33.144  1.00  0.00     0.003 A 
HETATM   23  C15 UNL     1      11.769  -1.516  32.297  1.00  0.00     0.000 A 
HETATM   24  C16 UNL     1      10.673  -1.042  31.576  1.00  0.00     0.003 A 
HETATM   25  C17 UNL     1       9.435  -1.676  31.688  1.00  0.00     0.037 A 
ENDBRANCH  19  20
ENDBRANCH  16  19
ENDBRANCH   4  13
BRANCH   1  26
HETATM   26  C6  UNL     1       3.822  -8.461  26.751  1.00  0.00     0.113 C 
HETATM   27  C5  UNL     1       2.573  -7.674  27.201  1.00  0.00     0.047 C 
HETATM   28  C4  UNL     1       1.618  -8.535  28.021  1.00  0.00     0.128 C 
HETATM   29  N1  UNL     1       1.318  -9.779  27.307  1.00  0.00    -0.349 N 
HETATM   30  C3  UNL     1       0.061 -10.310  27.079  1.00  0.00     0.242 C 
HETATM   31  C25 UNL     1       2.456 -10.572  26.853  1.00  0.00     0.128 C 
HETATM   32  O1  UNL     1      -0.133 -11.413  26.574  1.00  0.00    -0.268 OA
HETATM   33  C24 UNL     1       3.800  -9.935  27.177  1.00  0.00     0.047 C 
BRANCH  30  34
HETATM   34  C2  UNL     1      -1.111  -9.506  27.487  1.00  0.00     0.064 C 
HETATM   35  C1  UNL     1      -1.756  -9.781  28.629  1.00  0.00     0.017 C 
ENDBRANCH  30  34
ENDBRANCH   1  26
BRANCH   6  36
HETATM   36  N4  UNL     1       9.405  -6.097  27.316  1.00  0.00    -0.385 N 
HETATM   37  H18 UNL     1      10.318  -6.328  26.945  1.00  0.00     0.157 HD
HETATM   38  H19 UNL     1       9.334  -5.997  28.321  1.00  0.00     0.157 HD
ENDBRANCH   6  36
TORSDOF 6
ENDMDL
MODEL 5
REMARK minimizedAffinity -9.28393078
REMARK  6 active torsions:
REMARK  status: ('A' for Active; 'I' for Inactive)
REMARK    1  A    between atoms: C2_2  and  C3_3 
REMARK       I    between atoms: C3_3  and  N1_5 
REMARK    2  A    between atoms: C6_8  and  N2_9 
REMARK    3  A    between atoms: C7_12  and  C8_13 
REMARK    4  A    between atoms: C11_16  and  O2_17 
REMARK    5  A    between atoms: O2_17  and  C12_18 
REMARK    6  A    between atoms: C21_27  and  N4_28 
ROOT
HETATM    1  N2  UNL     1       4.712  -8.049  27.805  1.00  0.00    -0.270 N 
HETATM    2  N3  UNL     1       4.785  -6.968  28.611  1.00  0.00    -0.295 N 
ATOM      3  H3  UNL     1       4.034  -6.330  28.875  1.00  0.00     0.187 HD
HETATM    4  C7  UNL     1       6.074  -6.925  28.987  1.00  0.00     0.076 A 
HETATM    5  C20 UNL     1       6.813  -8.021  28.456  1.00  0.00     0.082 A 
HETATM    6  C21 UNL     1       8.115  -8.531  28.505  1.00  0.00     0.116 A 
HETATM    7  N5  UNL     1       8.392  -9.660  27.822  1.00  0.00    -0.338 N 
ATOM      8  H5  UNL     1       9.329 -10.064  27.841  1.00  0.00     0.168 HD
HETATM    9  C22 UNL     1       7.406 -10.244  27.113  1.00  0.00     0.183 A 
HETATM   10  N6  UNL     1       6.126  -9.851  26.998  1.00  0.00    -0.337 N 
ATOM     11  H6  UNL     1       5.421 -10.343  26.450  1.00  0.00     0.168 HD
HETATM   12  C23 UNL     1       5.895  -8.727  27.698  1.00  0.00     0.140 A 
ENDROOT
BRANCH   4  13
HETATM   13  C8  UNL     1       6.559  -5.853  29.846  1.00  0.00    -0.007 A 
HETATM   14  C9  UNL     1       7.822  -5.948  30.454  1.00  0.00     0.016 A 
HETATM   15  C10 UNL     1       8.280  -4.922  31.283  1.00  0.00     0.038 A 
HETATM   16  C11 UNL     1       7.471  -3.809  31.524  1.00  0.00     0.076 A 
HETATM   17  C18 UNL     1       6.225  -3.696  30.900  1.00  0.00     0.038 A 
HETATM   18  C19 UNL     1       5.771  -4.717  30.062  1.00  0.00     0.016 A 
BRANCH  16  19
HETATM   19  O2  UNL     1       7.868  -2.749  32.307  1.00  0.00    -0.311 OA
BRANCH  19  20
HETATM   20  C12 UNL     1       9.215  -2.475  32.388  1.00  0.00     0.076 A 
HETATM   21  C13 UNL     1      10.067  -3.095  33.311  1.00  0.00     0.037 A 
HETATM   22  C14 UNL     1      11.418  -2.742  33.351  1.00  0.00     0.003 A 
HETATM   23  C15 UNL     1      11.908  -1.758  32.491  1.00  0.00     0.000 A 
HETATM   24  C16 UNL     1      11.051  -1.122  31.594  1.00  0.00     0.003 A 
HETATM   25  C17 UNL     1       9.703  -1.476  31.544  1.00  0.00     0.037 A 
ENDBRANCH  19  20
ENDBRANCH  16  19
ENDBRANCH   4  13
BRANCH   1  26
HETATM   26  C6  UNL     1       3.452  -8.355  27.135  1.00  0.00     0.113 C 
HETATM   27  C5  UNL     1       2.300  -7.426  27.574  1.00  0.00     0.047 C 
HETATM   28  C4  UNL     1       1.097  -8.209  28.088  1.00  0.00     0.128 C 
HETATM   29  N1  UNL     1       0.704  -9.231  27.114  1.00  0.00    -0.349 N 
HETATM   30  C3  UNL     1      -0.574  -9.458  26.636  1.00  0.00     0.242 C 
HETATM   31  C25 UNL     1       1.747 -10.143  26.656  1.00  0.00     0.128 C 
HETATM   32  O1  UNL     1      -0.873 -10.400  25.905  1.00  0.00    -0.268 OA
HETATM   33  C24 UNL     1       3.112  -9.847  27.259  1.00  0.00     0.047 C 
BRANCH  30  34
HETATM   34  C2  UNL     1      -1.641  -8.521  27.048  1.00  0.00     0.064 C 
HETATM   35  C1  UNL     1      -2.637  -8.935  27.843  1.00  0.00     0.017 C 
ENDBRANCH  30  34
ENDBRANCH   1  26
BRANCH   6  36
HETATM   36  N4  UNL     1       9.158  -7.968  29.224  1.00  0.00    -0.385 N 
HETATM   37  H18 UNL     1       9.914  -8.628  29.357  1.00  0.00     0.157 HD
HETATM   38  H19 UNL     1       8.898  -7.407  30.025  1.00  0.00     0.157 HD
ENDBRANCH   6  36
TORSDOF 6
ENDMDL
MODEL 6
REMARK minimizedAffinity -9.15222168
REMARK  6 active torsions:
REMARK  status: ('A' for Active; 'I' for Inactive)
REMARK    1  A    between atoms: C2_2  and  C3_3 
REMARK       I    between atoms: C3_3  and  N1_5 
REMARK    2  A    between atoms: C6_8  and  N2_9 
REMARK    3  A    between atoms: C7_12  and  C8_13 
REMARK    4  A    between atoms: C11_16  and  O2_17 
REMARK    5  A    between atoms: O2_17  and  C12_18 
REMARK    6  A    between atoms: C21_27  and  N4_28 
ROOT
HETATM    1  N2  UNL     1       5.134  -8.633  27.572  1.00  0.00    -0.270 N 
HETATM    2  N3  UNL     1       5.046  -7.498  28.297  1.00  0.00    -0.295 N 
ATOM      3  H3  UNL     1       4.234  -6.894  28.421  1.00  0.00     0.187 HD
HETATM    4  C7  UNL     1       6.275  -7.346  28.818  1.00  0.00     0.076 A 
HETATM    5  C20 UNL     1       7.134  -8.424  28.462  1.00  0.00     0.082 A 
HETATM    6  C21 UNL     1       8.447  -8.844  28.703  1.00  0.00     0.116 A 
HETATM    7  N5  UNL     1       8.869  -9.997  28.144  1.00  0.00    -0.338 N 
ATOM      8  H5  UNL     1       9.818 -10.336  28.305  1.00  0.00     0.168 HD
HETATM    9  C22 UNL     1       8.012 -10.690  27.370  1.00  0.00     0.183 A 
HETATM   10  N6  UNL     1       6.736 -10.391  27.075  1.00  0.00    -0.337 N 
ATOM     11  H6  UNL     1       6.132 -10.964  26.486  1.00  0.00     0.168 HD
HETATM   12  C23 UNL     1       6.357  -9.239  27.657  1.00  0.00     0.140 A 
ENDROOT
BRANCH   4  13
HETATM   13  C8  UNL     1       6.590  -6.188  29.644  1.00  0.00    -0.007 A 
HETATM   14  C9  UNL     1       5.558  -5.414  30.201  1.00  0.00     0.016 A 
HETATM   15  C10 UNL     1       5.863  -4.300  30.987  1.00  0.00     0.038 A 
HETATM   16  C11 UNL     1       7.197  -3.944  31.201  1.00  0.00     0.076 A 
HETATM   17  C18 UNL     1       8.227  -4.727  30.672  1.00  0.00     0.038 A 
HETATM   18  C19 UNL     1       7.923  -5.847  29.895  1.00  0.00     0.016 A 
BRANCH  16  19
HETATM   19  O2  UNL     1       7.571  -2.877  31.985  1.00  0.00    -0.311 OA
BRANCH  19  20
HETATM   20  C12 UNL     1       8.917  -2.667  32.189  1.00  0.00     0.076 A 
HETATM   21  C13 UNL     1       9.686  -3.436  33.073  1.00  0.00     0.037 A 
HETATM   22  C14 UNL     1      11.040  -3.142  33.248  1.00  0.00     0.003 A 
HETATM   23  C15 UNL     1      11.617  -2.072  32.561  1.00  0.00     0.000 A 
HETATM   24  C16 UNL     1      10.842  -1.290  31.704  1.00  0.00     0.003 A 
HETATM   25  C17 UNL     1       9.490  -1.584  31.520  1.00  0.00     0.037 A 
ENDBRANCH  19  20
ENDBRANCH  16  19
ENDBRANCH   4  13
BRANCH   1  26
HETATM   26  C6  UNL     1       3.985  -9.066  26.783  1.00  0.00     0.113 C 
HETATM   27  C5  UNL     1       4.328  -9.281  25.294  1.00  0.00     0.047 C 
HETATM   28  C4  UNL     1       3.425  -8.467  24.373  1.00  0.00     0.128 C 
HETATM   29  N1  UNL     1       2.018  -8.707  24.703  1.00  0.00    -0.349 N 
HETATM   30  C3  UNL     1       1.010  -9.027  23.811  1.00  0.00     0.242 C 
HETATM   31  C25 UNL     1       1.625  -8.522  26.097  1.00  0.00     0.128 C 
HETATM   32  O1  UNL     1      -0.176  -9.109  24.121  1.00  0.00    -0.268 OA
HETATM   33  C24 UNL     1       2.785  -8.134  27.002  1.00  0.00     0.047 C 
BRANCH  30  34
HETATM   34  C2  UNL     1       1.388  -9.266  22.402  1.00  0.00     0.064 C 
HETATM   35  C1  UNL     1       1.011  -8.407  21.445  1.00  0.00     0.017 C 
ENDBRANCH  30  34
ENDBRANCH   1  26
BRANCH   6  36
HETATM   36  N4  UNL     1       9.361  -8.167  29.495  1.00  0.00    -0.385 N 
HETATM   37  H18 UNL     1      10.131  -8.765  29.766  1.00  0.00     0.157 HD
HETATM   38  H19 UNL     1       8.974  -7.570  30.215  1.00  0.00     0.157 HD
ENDBRANCH   6  36
TORSDOF 6
ENDMDL
MODEL 7
REMARK minimizedAffinity -9.0289793
REMARK  6 active torsions:
REMARK  status: ('A' for Active; 'I' for Inactive)
REMARK    1  A    between atoms: C2_2  and  C3_3 
REMARK       I    between atoms: C3_3  and  N1_5 
REMARK    2  A    between atoms: C6_8  and  N2_9 
REMARK    3  A    between atoms: C7_12  and  C8_13 
REMARK    4  A    between atoms: C11_16  and  O2_17 
REMARK    5  A    between atoms: O2_17  and  C12_18 
REMARK    6  A    between atoms: C21_27  and  N4_28 
ROOT
HETATM    1  N2  UNL     1       8.857  -7.709  28.198  1.00  0.00    -0.270 N 
HETATM    2  N3  UNL     1       9.551  -8.219  29.238  1.00  0.00    -0.295 N 
ATOM      3  H3  UNL     1       9.418  -8.032  30.232  1.00  0.00     0.187 HD
HETATM    4  C7  UNL     1      10.456  -9.028  28.663  1.00  0.00     0.076 A 
HETATM    5  C20 UNL     1      10.299  -9.073  27.248  1.00  0.00     0.082 A 
HETATM    6  C21 UNL     1      10.874  -9.718  26.149  1.00  0.00     0.116 A 
HETATM    7  N5  UNL     1      10.382  -9.460  24.919  1.00  0.00    -0.338 N 
ATOM      8  H5  UNL     1      10.773  -9.918  24.095  1.00  0.00     0.168 HD
HETATM    9  C22 UNL     1       9.364  -8.586  24.802  1.00  0.00     0.183 A 
HETATM   10  N6  UNL     1       8.732  -7.916  25.780  1.00  0.00    -0.337 N 
ATOM     11  H6  UNL     1       7.958  -7.270  25.628  1.00  0.00     0.168 HD
HETATM   12  C23 UNL     1       9.251  -8.207  26.986  1.00  0.00     0.140 A 
ENDROOT
BRANCH   4  13
HETATM   13  C8  UNL     1      11.432  -9.741  29.477  1.00  0.00    -0.007 A 
HETATM   14  C9  UNL     1      12.528  -9.057  30.030  1.00  0.00     0.016 A 
HETATM   15  C10 UNL     1      13.466  -9.745  30.803  1.00  0.00     0.038 A 
HETATM   16  C11 UNL     1      13.324 -11.120  31.007  1.00  0.00     0.076 A 
HETATM   17  C18 UNL     1      12.222 -11.800  30.482  1.00  0.00     0.038 A 
HETATM   18  C19 UNL     1      11.278 -11.110  29.718  1.00  0.00     0.016 A 
BRANCH  16  19
HETATM   19  O2  UNL     1      14.194 -11.856  31.779  1.00  0.00    -0.311 OA
BRANCH  19  20
HETATM   20  C12 UNL     1      15.056 -11.174  32.609  1.00  0.00     0.076 A 
HETATM   21  C13 UNL     1      16.297 -10.682  32.186  1.00  0.00     0.037 A 
HETATM   22  C14 UNL     1      17.129 -10.026  33.096  1.00  0.00     0.003 A 
HETATM   23  C15 UNL     1      16.732  -9.885  34.427  1.00  0.00     0.000 A 
HETATM   24  C16 UNL     1      15.509 -10.402  34.853  1.00  0.00     0.003 A 
HETATM   25  C17 UNL     1      14.671 -11.051  33.946  1.00  0.00     0.037 A 
ENDBRANCH  19  20
ENDBRANCH  16  19
ENDBRANCH   4  13
BRANCH   1  26
HETATM   26  C6  UNL     1       7.828  -6.705  28.450  1.00  0.00     0.113 C 
HETATM   27  C5  UNL     1       8.407  -5.379  28.987  1.00  0.00     0.047 C 
HETATM   28  C4  UNL     1       7.762  -4.964  30.305  1.00  0.00     0.128 C 
HETATM   29  N1  UNL     1       6.302  -4.974  30.180  1.00  0.00    -0.349 N 
HETATM   30  C3  UNL     1       5.441  -3.958  30.555  1.00  0.00     0.242 C 
HETATM   31  C25 UNL     1       5.690  -6.199  29.676  1.00  0.00     0.128 C 
HETATM   32  O1  UNL     1       4.216  -4.058  30.533  1.00  0.00    -0.268 OA
HETATM   33  C24 UNL     1       6.704  -7.278  29.324  1.00  0.00     0.047 C 
BRANCH  30  34
HETATM   34  C2  UNL     1       6.036  -2.689  31.025  1.00  0.00     0.064 C 
HETATM   35  C1  UNL     1       7.108  -2.701  31.830  1.00  0.00     0.017 C 
ENDBRANCH  30  34
ENDBRANCH   1  26
BRANCH   6  36
HETATM   36  N4  UNL     1      11.917 -10.628  26.221  1.00  0.00    -0.385 N 
HETATM   37  H18 UNL     1      11.989 -11.178  25.375  1.00  0.00     0.157 HD
HETATM   38  H19 UNL     1      12.017 -11.125  27.097  1.00  0.00     0.157 HD
ENDBRANCH   6  36
TORSDOF 6
ENDMDL
MODEL 8
REMARK minimizedAffinity -8.94317818
REMARK  6 active torsions:
REMARK  status: ('A' for Active; 'I' for Inactive)
REMARK    1  A    between atoms: C2_2  and  C3_3 
REMARK       I    between atoms: C3_3  and  N1_5 
REMARK    2  A    between atoms: C6_8  and  N2_9 
REMARK    3  A    between atoms: C7_12  and  C8_13 
REMARK    4  A    between atoms: C11_16  and  O2_17 
REMARK    5  A    between atoms: O2_17  and  C12_18 
REMARK    6  A    between atoms: C21_27  and  N4_28 
ROOT
HETATM    1  N2  UNL     1       9.327  -6.511  29.970  1.00  0.00    -0.270 N 
HETATM    2  N3  UNL     1       8.067  -6.087  29.739  1.00  0.00    -0.295 N 
ATOM      3  H3  UNL     1       7.663  -5.175  29.953  1.00  0.00     0.187 HD
HETATM    4  C7  UNL     1       7.465  -7.142  29.164  1.00  0.00     0.076 A 
HETATM    5  C20 UNL     1       8.370  -8.227  28.981  1.00  0.00     0.082 A 
HETATM    6  C21 UNL     1       8.365  -9.516  28.438  1.00  0.00     0.116 A 
HETATM    7  N5  UNL     1       9.508 -10.233  28.468  1.00  0.00    -0.338 N 
ATOM      8  H5  UNL     1       9.542 -11.174  28.075  1.00  0.00     0.168 HD
HETATM    9  C22 UNL     1      10.601  -9.681  29.027  1.00  0.00     0.183 A 
HETATM   10  N6  UNL     1      10.725  -8.457  29.570  1.00  0.00    -0.337 N 
ATOM     11  H6  UNL     1      11.587  -8.091  29.972  1.00  0.00     0.168 HD
HETATM   12  C23 UNL     1       9.566  -7.778  29.513  1.00  0.00     0.140 A 
ENDROOT
BRANCH   4  13
HETATM   13  C8  UNL     1       6.056  -7.081  28.798  1.00  0.00    -0.007 A 
HETATM   14  C9  UNL     1       5.169  -6.274  29.529  1.00  0.00     0.016 A 
HETATM   15  C10 UNL     1       3.817  -6.225  29.180  1.00  0.00     0.038 A 
HETATM   16  C11 UNL     1       3.345  -6.995  28.115  1.00  0.00     0.076 A 
HETATM   17  C18 UNL     1       4.229  -7.778  27.367  1.00  0.00     0.038 A 
HETATM   18  C19 UNL     1       5.582  -7.820  27.709  1.00  0.00     0.016 A 
BRANCH  16  19
HETATM   19  O2  UNL     1       2.034  -6.975  27.699  1.00  0.00    -0.311 OA
BRANCH  19  20
HETATM   20  C12 UNL     1       1.412  -8.182  27.466  1.00  0.00     0.076 A 
HETATM   21  C13 UNL     1       0.020  -8.325  27.395  1.00  0.00     0.037 A 
HETATM   22  C14 UNL     1      -0.536  -9.589  27.185  1.00  0.00     0.003 A 
HETATM   23  C15 UNL     1       0.293 -10.706  27.072  1.00  0.00     0.000 A 
HETATM   24  C16 UNL     1       1.677 -10.565  27.174  1.00  0.00     0.003 A 
HETATM   25  C17 UNL     1       2.238  -9.304  27.375  1.00  0.00     0.037 A 
ENDBRANCH  19  20
ENDBRANCH  16  19
ENDBRANCH   4  13
BRANCH   1  26
HETATM   26  C6  UNL     1      10.256  -5.635  30.677  1.00  0.00     0.113 C 
HETATM   27  C5  UNL     1      10.114  -5.725  32.211  1.00  0.00     0.047 C 
HETATM   28  C4  UNL     1       9.865  -4.361  32.845  1.00  0.00     0.128 C 
HETATM   29  N1  UNL     1      10.876  -3.401  32.392  1.00  0.00    -0.349 N 
HETATM   30  C3  UNL     1      11.624  -2.560  33.196  1.00  0.00     0.242 C 
HETATM   31  C25 UNL     1      11.062  -3.267  30.951  1.00  0.00     0.128 C 
HETATM   32  O1  UNL     1      12.379  -1.693  32.762  1.00  0.00    -0.268 OA
HETATM   33  C24 UNL     1      10.174  -4.199  30.141  1.00  0.00     0.047 C 
BRANCH  30  34
HETATM   34  C2  UNL     1      11.489  -2.707  34.661  1.00  0.00     0.064 C 
HETATM   35  C1  UNL     1      12.534  -3.103  35.401  1.00  0.00     0.017 C 
ENDBRANCH  30  34
ENDBRANCH   1  26
BRANCH   6  36
HETATM   36  N4  UNL     1       7.267 -10.123  27.849  1.00  0.00    -0.385 N 
HETATM   37  H18 UNL     1       7.541 -10.914  27.281  1.00  0.00     0.157 HD
HETATM   38  H19 UNL     1       6.569  -9.503  27.459  1.00  0.00     0.157 HD
ENDBRANCH   6  36
TORSDOF 6
ENDMDL
MODEL 9
REMARK minimizedAffinity -8.7715416
REMARK  6 active torsions:
REMARK  status: ('A' for Active; 'I' for Inactive)
REMARK    1  A    between atoms: C2_2  and  C3_3 
REMARK       I    between atoms: C3_3  and  N1_5 
REMARK    2  A    between atoms: C6_8  and  N2_9 
REMARK    3  A    between atoms: C7_12  and  C8_13 
REMARK    4  A    between atoms: C11_16  and  O2_17 
REMARK    5  A    between atoms: O2_17  and  C12_18 
REMARK    6  A    between atoms: C21_27  and  N4_28 
ROOT
HETATM    1  N2  UNL     1       9.065  -7.002  26.143  1.00  0.00    -0.270 N 
HETATM    2  N3  UNL     1       9.426  -6.341  27.264  1.00  0.00    -0.295 N 
ATOM      3  H3  UNL     1      10.326  -5.907  27.474  1.00  0.00     0.187 HD
HETATM    4  C7  UNL     1       8.331  -6.388  28.040  1.00  0.00     0.076 A 
HETATM    5  C20 UNL     1       7.247  -7.037  27.382  1.00  0.00     0.082 A 
HETATM    6  C21 UNL     1       5.908  -7.354  27.630  1.00  0.00     0.116 A 
HETATM    7  N5  UNL     1       5.210  -8.003  26.675  1.00  0.00    -0.338 N 
ATOM      8  H5  UNL     1       4.230  -8.244  26.819  1.00  0.00     0.168 HD
HETATM    9  C22 UNL     1       5.836  -8.326  25.527  1.00  0.00     0.183 A 
HETATM   10  N6  UNL     1       7.108  -8.069  25.177  1.00  0.00    -0.337 N 
ATOM     11  H6  UNL     1       7.524  -8.333  24.284  1.00  0.00     0.168 HD
HETATM   12  C23 UNL     1       7.762  -7.418  26.155  1.00  0.00     0.140 A 
ENDROOT
BRANCH   4  13
HETATM   13  C8  UNL     1       8.345  -5.804  29.375  1.00  0.00    -0.007 A 
HETATM   14  C9  UNL     1       7.394  -4.835  29.735  1.00  0.00     0.016 A 
HETATM   15  C10 UNL     1       7.415  -4.272  31.013  1.00  0.00     0.038 A 
HETATM   16  C11 UNL     1       8.398  -4.659  31.927  1.00  0.00     0.076 A 
HETATM   17  C18 UNL     1       9.330  -5.643  31.583  1.00  0.00     0.038 A 
HETATM   18  C19 UNL     1       9.302  -6.214  30.309  1.00  0.00     0.016 A 
BRANCH  16  19
HETATM   19  O2  UNL     1       8.464  -4.167  33.210  1.00  0.00    -0.311 OA
BRANCH  19  20
HETATM   20  C12 UNL     1       9.649  -3.598  33.623  1.00  0.00     0.076 A 
HETATM   21  C13 UNL     1      10.349  -2.652  32.863  1.00  0.00     0.037 A 
HETATM   22  C14 UNL     1      11.560  -2.143  33.337  1.00  0.00     0.003 A 
HETATM   23  C15 UNL     1      12.081  -2.596  34.550  1.00  0.00     0.000 A 
HETATM   24  C16 UNL     1      11.397  -3.560  35.290  1.00  0.00     0.003 A 
HETATM   25  C17 UNL     1      10.182  -4.066  34.825  1.00  0.00     0.037 A 
ENDBRANCH  19  20
ENDBRANCH  16  19
ENDBRANCH   4  13
BRANCH   1  26
HETATM   26  C6  UNL     1      10.056  -7.224  25.095  1.00  0.00     0.113 C 
HETATM   27  C5  UNL     1       9.758  -8.478  24.246  1.00  0.00     0.047 C 
HETATM   28  C4  UNL     1      10.936  -9.445  24.219  1.00  0.00     0.128 C 
HETATM   29  N1  UNL     1      12.161  -8.739  23.834  1.00  0.00    -0.349 N 
HETATM   30  C3  UNL     1      13.063  -9.134  22.862  1.00  0.00     0.242 C 
HETATM   31  C25 UNL     1      12.502  -7.543  24.597  1.00  0.00     0.128 C 
HETATM   32  O1  UNL     1      14.133  -8.568  22.653  1.00  0.00    -0.268 OA
HETATM   33  C24 UNL     1      11.479  -7.203  25.671  1.00  0.00     0.047 C 
BRANCH  30  34
HETATM   34  C2  UNL     1      12.719 -10.316  22.042  1.00  0.00     0.064 C 
HETATM   35  C1  UNL     1      12.103 -10.165  20.862  1.00  0.00     0.017 C 
ENDBRANCH  30  34
ENDBRANCH   1  26
BRANCH   6  36
HETATM   36  N4  UNL     1       5.222  -7.038  28.793  1.00  0.00    -0.385 N 
HETATM   37  H18 UNL     1       4.220  -7.097  28.659  1.00  0.00     0.157 HD
HETATM   38  H19 UNL     1       5.566  -6.241  29.312  1.00  0.00     0.157 HD
ENDBRANCH   6  36
TORSDOF 6
ENDMDL
