MODEL 1
REMARK minimizedAffinity -10.1064625
REMARK CNNscore 0.909528375
REMARK CNNaffinity 7.6313386
REMARK  7 active torsions:
REMARK  status: ('A' for Active; 'I' for Inactive)
REMARK    1  A    between atoms: O1_2  and  C2_3 
REMARK    2  A    between atoms: C3_4  and  N1_5 
REMARK    3  A    between atoms: N1_5  and  C5_7 
REMARK    4  A    between atoms: C5_7  and  C6_8 
REMARK    5  A    between atoms: C6_8  and  O3_10 
REMARK    6  A    between atoms: C8_12  and  N3_33 
REMARK    7  A    between atoms: C9_14  and  N2_16 
ROOT
HETATM    1  C2  UNL     1       8.964  -8.664  26.621  1.00  0.00     0.210 C 
HETATM    2  C3  UNL     1       9.623  -9.825  25.819  1.00  0.00     0.260 C 
HETATM    3  C7  UNL     1      11.130  -9.772  26.151  1.00  0.00     0.093 C 
HETATM    4  C8  UNL     1      11.397  -9.682  27.662  1.00  0.00     0.234 C 
HETATM    5  O4  UNL     1      10.234  -9.819  28.472  1.00  0.00    -0.333 OA
HETATM    6  C9  UNL     1       9.094  -8.986  28.148  1.00  0.00     0.168 C 
HETATM    7  C10 UNL     1       7.945  -9.927  28.583  1.00  0.00     0.074 C 
ENDROOT
BRANCH   2   8
HETATM    8  N1  UNL     1       9.310  -9.767  24.357  1.00  0.00     0.101 N 
HETATM    9  C4  UNL     1       8.570 -10.969  23.937  1.00  0.00     0.311 C 
BRANCH   8  10
HETATM   10  C5  UNL     1      10.511  -9.594  23.501  1.00  0.00     0.381 C 
BRANCH  10  11
HETATM   11  C6  UNL     1      10.563  -8.227  22.832  1.00  0.00     0.169 C 
HETATM   12  O2  UNL     1      10.138  -7.960  21.717  1.00  0.00    -0.649 OA
BRANCH  11  13
HETATM   13  O3  UNL     1      11.148  -7.275  23.589  1.00  0.00    -0.775 OA
HETATM   14  H11 UNL     1      11.095  -6.463  23.044  1.00  0.00     0.167 HD
ENDBRANCH  11  13
ENDBRANCH  10  11
ENDBRANCH   8  10
ENDBRANCH   2   8
BRANCH   1  15
HETATM   15  O1  UNL     1       9.666  -7.443  26.303  1.00  0.00    -0.384 OA
HETATM   16  C1  UNL     1       8.825  -6.401  25.834  1.00  0.00     0.202 C 
ENDBRANCH   1  15
BRANCH   6  17
HETATM   17  N2  UNL     1       9.161  -7.760  28.966  1.00  0.00    -0.308 N 
HETATM   18  C11 UNL     1      10.238  -7.259  29.697  1.00  0.00     0.049 A 
HETATM   19  C12 UNL     1      11.543  -7.735  29.919  1.00  0.00     0.030 A 
HETATM   20  C16 UNL     1       9.811  -6.053  30.289  1.00  0.00     0.004 A 
HETATM   21  C13 UNL     1      12.429  -6.968  30.684  1.00  0.00     0.002 A 
HETATM   22  C14 UNL     1      12.033  -5.759  31.236  1.00  0.00     0.001 A 
HETATM   23  C15 UNL     1      10.729  -5.298  31.053  1.00  0.00     0.014 A 
HETATM   24  C17 UNL     1       8.427  -5.896  30.006  1.00  0.00     0.015 A 
HETATM   25  C18 UNL     1       7.401  -5.001  30.352  1.00  0.00    -0.010 A 
HETATM   26  C28 UNL     1       8.069  -6.970  29.220  1.00  0.00     0.077 A 
HETATM   27  C19 UNL     1       6.045  -5.213  29.951  1.00  0.00     0.054 A 
HETATM   28  C30 UNL     1       7.479  -3.756  31.186  1.00  0.00     0.163 A 
HETATM   29  C20 UNL     1       5.594  -6.298  29.182  1.00  0.00     0.022 A 
HETATM   30  C29 UNL     1       5.252  -4.109  30.512  1.00  0.00     0.253 A 
HETATM   31  C21 UNL     1       4.373  -6.816  28.651  1.00  0.00     0.004 A 
HETATM   32  C27 UNL     1       6.587  -7.179  28.788  1.00  0.00     0.077 A 
HETATM   33  C22 UNL     1       3.022  -6.407  28.703  1.00  0.00     0.014 A 
HETATM   34  C26 UNL     1       4.682  -7.986  27.938  1.00  0.00     0.048 A 
HETATM   35  C23 UNL     1       2.033  -7.157  28.058  1.00  0.00     0.001 A 
HETATM   36  C24 UNL     1       2.366  -8.309  27.356  1.00  0.00     0.002 A 
HETATM   37  C25 UNL     1       3.692  -8.742  27.282  1.00  0.00     0.030 A 
HETATM   38  N3  UNL     1       6.054  -8.171  28.024  1.00  0.00    -0.316 N 
HETATM   39  O5  UNL     1       4.059  -3.915  30.408  1.00  0.00    -0.268 OA
HETATM   40  N4  UNL     1       6.120  -3.294  31.207  1.00  0.00    -0.353 N 
HETATM   41  H26 UNL     1       5.784  -2.471  31.688  1.00  0.00     0.163 HD
ENDBRANCH   6  17
TORSDOF 7
ENDMDL
MODEL 2
REMARK minimizedAffinity -9.68954277
REMARK CNNscore 0.863391519
REMARK CNNaffinity 7.72346258
REMARK  7 active torsions:
REMARK  status: ('A' for Active; 'I' for Inactive)
REMARK    1  A    between atoms: O1_2  and  C2_3 
REMARK    2  A    between atoms: C3_4  and  N1_5 
REMARK    3  A    between atoms: N1_5  and  C5_7 
REMARK    4  A    between atoms: C5_7  and  C6_8 
REMARK    5  A    between atoms: C6_8  and  O3_10 
REMARK    6  A    between atoms: C8_12  and  N3_33 
REMARK    7  A    between atoms: C9_14  and  N2_16 
ROOT
HETATM    1  C2  UNL     1      10.109  -8.933  26.997  1.00  0.00     0.210 C 
HETATM    2  C3  UNL     1      11.599  -8.489  27.082  1.00  0.00     0.260 C 
HETATM    3  C7  UNL     1      11.578  -6.956  27.263  1.00  0.00     0.093 C 
HETATM    4  C8  UNL     1      10.617  -6.507  28.374  1.00  0.00     0.234 C 
HETATM    5  O4  UNL     1      10.049  -7.575  29.125  1.00  0.00    -0.333 OA
HETATM    6  C9  UNL     1       9.434  -8.658  28.384  1.00  0.00     0.168 C 
HETATM    7  C10 UNL     1       9.722  -9.836  29.346  1.00  0.00     0.074 C 
ENDROOT
BRANCH   2   8
HETATM    8  N1  UNL     1      12.410  -8.963  25.918  1.00  0.00     0.101 N 
HETATM    9  C4  UNL     1      12.227 -10.410  25.712  1.00  0.00     0.311 C 
BRANCH   8  10
HETATM   10  C5  UNL     1      13.858  -8.654  26.039  1.00  0.00     0.381 C 
BRANCH  10  11
HETATM   11  C6  UNL     1      14.246  -7.372  25.315  1.00  0.00     0.169 C 
HETATM   12  O2  UNL     1      13.929  -7.072  24.173  1.00  0.00    -0.649 OA
BRANCH  11  13
HETATM   13  O3  UNL     1      15.015  -6.545  26.053  1.00  0.00    -0.775 OA
HETATM   14  H11 UNL     1      15.170  -5.771  25.473  1.00  0.00     0.167 HD
ENDBRANCH  11  13
ENDBRANCH  10  11
ENDBRANCH   8  10
ENDBRANCH   2   8
BRANCH   1  15
HETATM   15  O1  UNL     1       9.466  -8.156  25.964  1.00  0.00    -0.384 OA
HETATM   16  C1  UNL     1       9.466  -8.783  24.690  1.00  0.00     0.202 C 
ENDBRANCH   1  15
BRANCH   6  17
HETATM   17  N2  UNL     1       7.993  -8.376  28.249  1.00  0.00    -0.308 N 
HETATM   18  C11 UNL     1       7.059  -8.998  27.420  1.00  0.00     0.049 A 
HETATM   19  C12 UNL     1       7.167 -10.023  26.463  1.00  0.00     0.030 A 
HETATM   20  C16 UNL     1       5.813  -8.388  27.670  1.00  0.00     0.004 A 
HETATM   21  C13 UNL     1       6.014 -10.470  25.808  1.00  0.00     0.002 A 
HETATM   22  C14 UNL     1       4.776  -9.907  26.077  1.00  0.00     0.001 A 
HETATM   23  C15 UNL     1       4.665  -8.863  26.997  1.00  0.00     0.014 A 
HETATM   24  C17 UNL     1       6.030  -7.309  28.571  1.00  0.00     0.015 A 
HETATM   25  C18 UNL     1       5.268  -6.277  29.142  1.00  0.00    -0.010 A 
HETATM   26  C28 UNL     1       7.374  -7.325  28.875  1.00  0.00     0.077 A 
HETATM   27  C19 UNL     1       5.859  -5.265  29.961  1.00  0.00     0.054 A 
HETATM   28  C30 UNL     1       3.800  -5.999  28.997  1.00  0.00     0.163 A 
HETATM   29  C20 UNL     1       7.222  -5.191  30.289  1.00  0.00     0.022 A 
HETATM   30  C29 UNL     1       4.781  -4.344  30.352  1.00  0.00     0.253 A 
HETATM   31  C21 UNL     1       8.116  -4.347  31.017  1.00  0.00     0.004 A 
HETATM   32  C27 UNL     1       7.996  -6.217  29.776  1.00  0.00     0.077 A 
HETATM   33  C22 UNL     1       7.967  -3.149  31.750  1.00  0.00     0.014 A 
HETATM   34  C26 UNL     1       9.400  -4.911  30.930  1.00  0.00     0.048 A 
HETATM   35  C23 UNL     1       9.074  -2.555  32.364  1.00  0.00     0.001 A 
HETATM   36  C24 UNL     1      10.332  -3.136  32.265  1.00  0.00     0.002 A 
HETATM   37  C25 UNL     1      10.517  -4.322  31.550  1.00  0.00     0.030 A 
HETATM   38  N3  UNL     1       9.289  -6.071  30.176  1.00  0.00    -0.316 N 
HETATM   39  O5  UNL     1       4.860  -3.350  31.044  1.00  0.00    -0.268 OA
HETATM   40  N4  UNL     1       3.617  -4.810  29.781  1.00  0.00    -0.353 N 
HETATM   41  H26 UNL     1       2.744  -4.318  29.911  1.00  0.00     0.163 HD
ENDBRANCH   6  17
TORSDOF 7
ENDMDL
MODEL 3
REMARK minimizedAffinity -9.35408783
REMARK CNNscore 0.846946537
REMARK CNNaffinity 7.9031949
REMARK  7 active torsions:
REMARK  status: ('A' for Active; 'I' for Inactive)
REMARK    1  A    between atoms: O1_2  and  C2_3 
REMARK    2  A    between atoms: C3_4  and  N1_5 
REMARK    3  A    between atoms: N1_5  and  C5_7 
REMARK    4  A    between atoms: C5_7  and  C6_8 
REMARK    5  A    between atoms: C6_8  and  O3_10 
REMARK    6  A    between atoms: C8_12  and  N3_33 
REMARK    7  A    between atoms: C9_14  and  N2_16 
ROOT
HETATM    1  C2  UNL     1      11.254  -8.277  28.590  1.00  0.00     0.210 C 
HETATM    2  C3  UNL     1      11.117  -9.768  28.158  1.00  0.00     0.260 C 
HETATM    3  C7  UNL     1      10.007 -10.369  29.047  1.00  0.00     0.093 C 
HETATM    4  C8  UNL     1       8.742  -9.497  29.079  1.00  0.00     0.234 C 
HETATM    5  O4  UNL     1       8.766  -8.395  28.177  1.00  0.00    -0.333 OA
HETATM    6  C9  UNL     1       9.929  -7.533  28.210  1.00  0.00     0.168 C 
HETATM    7  C10 UNL     1       9.982  -7.099  26.726  1.00  0.00     0.074 C 
ENDROOT
BRANCH   2   8
HETATM    8  N1  UNL     1      12.417 -10.505  28.210  1.00  0.00     0.101 N 
HETATM    9  C4  UNL     1      13.115 -10.420  26.916  1.00  0.00     0.311 C 
BRANCH   8  10
HETATM   10  C5  UNL     1      12.275 -11.929  28.610  1.00  0.00     0.381 C 
BRANCH  10  11
HETATM   11  C6  UNL     1      12.837 -12.208  29.996  1.00  0.00     0.169 C 
HETATM   12  O2  UNL     1      12.179 -12.407  31.007  1.00  0.00    -0.649 OA
BRANCH  11  13
HETATM   13  O3  UNL     1      14.185 -12.215  30.044  1.00  0.00    -0.775 OA
HETATM   14  H11 UNL     1      14.397 -12.419  30.978  1.00  0.00     0.167 HD
ENDBRANCH  11  13
ENDBRANCH  10  11
ENDBRANCH   8  10
ENDBRANCH   2   8
BRANCH   1  15
HETATM   15  O1  UNL     1      11.460  -8.240  30.018  1.00  0.00    -0.384 OA
HETATM   16  C1  UNL     1      12.760  -8.644  30.422  1.00  0.00     0.202 C 
ENDBRANCH   1  15
BRANCH   6  17
HETATM   17  N2  UNL     1       9.652  -6.405  29.120  1.00  0.00    -0.308 N 
HETATM   18  C11 UNL     1      10.538  -5.722  29.953  1.00  0.00     0.049 A 
HETATM   19  C12 UNL     1      11.910  -5.881  30.223  1.00  0.00     0.030 A 
HETATM   20  C16 UNL     1       9.799  -4.714  30.606  1.00  0.00     0.004 A 
HETATM   21  C13 UNL     1      12.542  -4.991  31.097  1.00  0.00     0.002 A 
HETATM   22  C14 UNL     1      11.834  -3.969  31.712  1.00  0.00     0.001 A 
HETATM   23  C15 UNL     1      10.465  -3.828  31.481  1.00  0.00     0.014 A 
HETATM   24  C17 UNL     1       8.432  -4.877  30.248  1.00  0.00     0.015 A 
HETATM   25  C18 UNL     1       7.202  -4.294  30.593  1.00  0.00    -0.010 A 
HETATM   26  C28 UNL     1       8.388  -5.932  29.362  1.00  0.00     0.077 A 
HETATM   27  C19 UNL     1       5.960  -4.796  30.092  1.00  0.00     0.054 A 
HETATM   28  C30 UNL     1       6.931  -3.147  31.522  1.00  0.00     0.163 A 
HETATM   29  C20 UNL     1       5.828  -5.886  29.217  1.00  0.00     0.022 A 
HETATM   30  C29 UNL     1       4.894  -3.974  30.683  1.00  0.00     0.253 A 
HETATM   31  C21 UNL     1       4.799  -6.638  28.572  1.00  0.00     0.004 A 
HETATM   32  C27 UNL     1       7.025  -6.458  28.822  1.00  0.00     0.077 A 
HETATM   33  C22 UNL     1       3.388  -6.579  28.568  1.00  0.00     0.014 A 
HETATM   34  C26 UNL     1       5.420  -7.630  27.794  1.00  0.00     0.048 A 
HETATM   35  C23 UNL     1       2.646  -7.488  27.807  1.00  0.00     0.001 A 
HETATM   36  C24 UNL     1       3.286  -8.457  27.044  1.00  0.00     0.002 A 
HETATM   37  C25 UNL     1       4.679  -8.543  27.022  1.00  0.00     0.030 A 
HETATM   38  N3  UNL     1       6.790  -7.480  27.954  1.00  0.00    -0.316 N 
HETATM   39  O5  UNL     1       3.695  -4.070  30.518  1.00  0.00    -0.268 OA
HETATM   40  N4  UNL     1       5.499  -3.036  31.490  1.00  0.00    -0.353 N 
HETATM   41  H26 UNL     1       4.949  -2.366  32.009  1.00  0.00     0.163 HD
ENDBRANCH   6  17
TORSDOF 7
ENDMDL
MODEL 4
REMARK minimizedAffinity -9.35663509
REMARK CNNscore 0.671637893
REMARK CNNaffinity 7.56448126
REMARK  7 active torsions:
REMARK  status: ('A' for Active; 'I' for Inactive)
REMARK    1  A    between atoms: O1_2  and  C2_3 
REMARK    2  A    between atoms: C3_4  and  N1_5 
REMARK    3  A    between atoms: N1_5  and  C5_7 
REMARK    4  A    between atoms: C5_7  and  C6_8 
REMARK    5  A    between atoms: C6_8  and  O3_10 
REMARK    6  A    between atoms: C8_12  and  N3_33 
REMARK    7  A    between atoms: C9_14  and  N2_16 
ROOT
HETATM    1  C2  UNL     1      10.631  -8.454  29.149  1.00  0.00     0.210 C 
HETATM    2  C3  UNL     1      11.948  -9.226  28.841  1.00  0.00     0.260 C 
HETATM    3  C7  UNL     1      11.557 -10.373  27.885  1.00  0.00     0.093 C 
HETATM    4  C8  UNL     1      10.699  -9.891  26.706  1.00  0.00     0.234 C 
HETATM    5  O4  UNL     1      10.556  -8.476  26.625  1.00  0.00    -0.333 OA
HETATM    6  C9  UNL     1      10.135  -7.780  27.824  1.00  0.00     0.168 C 
HETATM    7  C10 UNL     1      10.867  -6.432  27.620  1.00  0.00     0.074 C 
ENDROOT
BRANCH   2   8
HETATM    8  N1  UNL     1      12.660  -9.668  30.080  1.00  0.00     0.101 N 
HETATM    9  C4  UNL     1      13.771  -8.755  30.396  1.00  0.00     0.311 C 
BRANCH   8  10
HETATM   10  C5  UNL     1      13.165 -11.064  30.006  1.00  0.00     0.381 C 
BRANCH  10  11
HETATM   11  C6  UNL     1      12.806 -11.883  31.238  1.00  0.00     0.169 C 
HETATM   12  O2  UNL     1      11.681 -12.242  31.555  1.00  0.00    -0.649 OA
BRANCH  11  13
HETATM   13  O3  UNL     1      13.869 -12.200  32.007  1.00  0.00    -0.775 OA
HETATM   14  H11 UNL     1      13.492 -12.730  32.739  1.00  0.00     0.167 HD
ENDBRANCH  11  13
ENDBRANCH  10  11
ENDBRANCH   8  10
ENDBRANCH   2   8
BRANCH   1  15
HETATM   15  O1  UNL     1       9.654  -9.404  29.625  1.00  0.00    -0.384 OA
HETATM   16  C1  UNL     1       9.781 -10.696  29.051  1.00  0.00     0.202 C 
ENDBRANCH   1  15
BRANCH   6  17
HETATM   17  N2  UNL     1       8.667  -7.637  27.795  1.00  0.00    -0.308 N 
HETATM   18  C11 UNL     1       7.747  -8.280  26.968  1.00  0.00     0.049 A 
HETATM   19  C12 UNL     1       7.892  -9.207  25.920  1.00  0.00     0.030 A 
HETATM   20  C16 UNL     1       6.466  -7.822  27.340  1.00  0.00     0.004 A 
HETATM   21  C13 UNL     1       6.748  -9.714  25.293  1.00  0.00     0.002 A 
HETATM   22  C14 UNL     1       5.481  -9.303  25.680  1.00  0.00     0.001 A 
HETATM   23  C15 UNL     1       5.329  -8.355  26.692  1.00  0.00     0.014 A 
HETATM   24  C17 UNL     1       6.636  -6.804  28.318  1.00  0.00     0.015 A 
HETATM   25  C18 UNL     1       5.816  -5.905  29.019  1.00  0.00    -0.010 A 
HETATM   26  C28 UNL     1       7.992  -6.708  28.545  1.00  0.00     0.077 A 
HETATM   27  C19 UNL     1       6.358  -4.909  29.890  1.00  0.00     0.054 A 
HETATM   28  C30 UNL     1       4.322  -5.767  28.981  1.00  0.00     0.163 A 
HETATM   29  C20 UNL     1       7.726  -4.724  30.147  1.00  0.00     0.022 A 
HETATM   30  C29 UNL     1       5.224  -4.137  30.420  1.00  0.00     0.253 A 
HETATM   31  C21 UNL     1       8.579  -3.856  30.895  1.00  0.00     0.004 A 
HETATM   32  C27 UNL     1       8.561  -5.621  29.503  1.00  0.00     0.077 A 
HETATM   33  C22 UNL     1       8.362  -2.743  31.737  1.00  0.00     0.014 A 
HETATM   34  C26 UNL     1       9.903  -4.278  30.687  1.00  0.00     0.048 A 
HETATM   35  C23 UNL     1       9.444  -2.092  32.339  1.00  0.00     0.001 A 
HETATM   36  C24 UNL     1      10.743  -2.532  32.118  1.00  0.00     0.002 A 
HETATM   37  C25 UNL     1      10.995  -3.630  31.293  1.00  0.00     0.030 A 
HETATM   38  N3  UNL     1       9.856  -5.377  29.842  1.00  0.00    -0.316 N 
HETATM   39  O5  UNL     1       5.250  -3.200  31.191  1.00  0.00    -0.268 OA
HETATM   40  N4  UNL     1       4.076  -4.671  29.876  1.00  0.00    -0.353 N 
HETATM   41  H26 UNL     1       3.169  -4.283  30.097  1.00  0.00     0.163 HD
ENDBRANCH   6  17
TORSDOF 7
ENDMDL
MODEL 5
REMARK minimizedAffinity -7.81519079
REMARK CNNscore 0.655189574
REMARK CNNaffinity 6.25314665
REMARK  7 active torsions:
REMARK  status: ('A' for Active; 'I' for Inactive)
REMARK    1  A    between atoms: O1_2  and  C2_3 
REMARK    2  A    between atoms: C3_4  and  N1_5 
REMARK    3  A    between atoms: N1_5  and  C5_7 
REMARK    4  A    between atoms: C5_7  and  C6_8 
REMARK    5  A    between atoms: C6_8  and  O3_10 
REMARK    6  A    between atoms: C8_12  and  N3_33 
REMARK    7  A    between atoms: C9_14  and  N2_16 
ROOT
HETATM    1  C2  UNL     1       1.303   8.015  35.951  1.00  0.00     0.210 C 
HETATM    2  C3  UNL     1       0.164   8.244  34.913  1.00  0.00     0.260 C 
HETATM    3  C7  UNL     1      -0.858   7.110  35.143  1.00  0.00     0.093 C 
HETATM    4  C8  UNL     1      -1.239   6.952  36.623  1.00  0.00     0.234 C 
HETATM    5  O4  UNL     1      -0.709   7.962  37.476  1.00  0.00    -0.333 OA
HETATM    6  C9  UNL     1       0.711   8.234  37.385  1.00  0.00     0.168 C 
HETATM    7  C10 UNL     1       0.715   9.744  37.726  1.00  0.00     0.074 C 
ENDROOT
BRANCH   2   8
HETATM    8  N1  UNL     1       0.674   8.341  33.510  1.00  0.00     0.101 N 
HETATM    9  C4  UNL     1       0.607   7.032  32.840  1.00  0.00     0.311 C 
BRANCH   8  10
HETATM   10  C5  UNL     1       2.056   8.881  33.418  1.00  0.00     0.381 C 
BRANCH  10  11
HETATM   11  C6  UNL     1       2.739   8.523  32.106  1.00  0.00     0.169 C 
HETATM   12  O2  UNL     1       2.477   9.000  31.011  1.00  0.00    -0.649 OA
BRANCH  11  13
HETATM   13  O3  UNL     1       3.703   7.587  32.234  1.00  0.00    -0.775 OA
HETATM   14  H11 UNL     1       4.056   7.474  31.327  1.00  0.00     0.167 HD
ENDBRANCH  11  13
ENDBRANCH  10  11
ENDBRANCH   8  10
ENDBRANCH   2   8
BRANCH   1  15
HETATM   15  O1  UNL     1       1.778   6.660  35.806  1.00  0.00    -0.384 OA
HETATM   16  C1  UNL     1       3.133   6.566  35.394  1.00  0.00     0.202 C 
ENDBRANCH   1  15
BRANCH   6  17
HETATM   17  N2  UNL     1       1.411   7.423  38.399  1.00  0.00    -0.308 N 
HETATM   18  C11 UNL     1       0.887   6.442  39.242  1.00  0.00     0.049 A 
HETATM   19  C12 UNL     1      -0.414   5.940  39.427  1.00  0.00     0.030 A 
HETATM   20  C16 UNL     1       1.957   5.945  40.014  1.00  0.00     0.004 A 
HETATM   21  C13 UNL     1      -0.621   4.901  40.341  1.00  0.00     0.002 A 
HETATM   22  C14 UNL     1       0.432   4.375  41.075  1.00  0.00     0.001 A 
HETATM   23  C15 UNL     1       1.719   4.893  40.926  1.00  0.00     0.014 A 
HETATM   24  C17 UNL     1       3.109   6.724  39.712  1.00  0.00     0.015 A 
HETATM   25  C18 UNL     1       4.434   6.819  40.167  1.00  0.00    -0.010 A 
HETATM   26  C28 UNL     1       2.722   7.626  38.744  1.00  0.00     0.077 A 
HETATM   27  C19 UNL     1       5.327   7.827  39.688  1.00  0.00     0.054 A 
HETATM   28  C30 UNL     1       5.136   5.989  41.201  1.00  0.00     0.163 A 
HETATM   29  C20 UNL     1       5.001   8.802  38.731  1.00  0.00     0.022 A 
HETATM   30  C29 UNL     1       6.602   7.646  40.398  1.00  0.00     0.253 A 
HETATM   31  C21 UNL     1       5.602   9.921  38.078  1.00  0.00     0.004 A 
HETATM   32  C27 UNL     1       3.714   8.711  38.230  1.00  0.00     0.077 A 
HETATM   33  C22 UNL     1       6.867  10.545  38.150  1.00  0.00     0.014 A 
HETATM   34  C26 UNL     1       4.653  10.455  37.189  1.00  0.00     0.048 A 
HETATM   35  C23 UNL     1       7.151  11.658  37.352  1.00  0.00     0.001 A 
HETATM   36  C24 UNL     1       6.196  12.163  36.479  1.00  0.00     0.002 A 
HETATM   37  C25 UNL     1       4.935  11.571  36.381  1.00  0.00     0.030 A 
HETATM   38  N3  UNL     1       3.509   9.676  37.292  1.00  0.00    -0.316 N 
HETATM   39  O5  UNL     1       7.621   8.295  40.286  1.00  0.00    -0.268 OA
HETATM   40  N4  UNL     1       6.447   6.574  41.251  1.00  0.00    -0.353 N 
HETATM   41  H26 UNL     1       7.203   6.276  41.851  1.00  0.00     0.163 HD
ENDBRANCH   6  17
TORSDOF 7
ENDMDL
MODEL 6
REMARK minimizedAffinity -6.79536104
REMARK CNNscore 0.591229618
REMARK CNNaffinity 6.48532629
REMARK  7 active torsions:
REMARK  status: ('A' for Active; 'I' for Inactive)
REMARK    1  A    between atoms: O1_2  and  C2_3 
REMARK    2  A    between atoms: C3_4  and  N1_5 
REMARK    3  A    between atoms: N1_5  and  C5_7 
REMARK    4  A    between atoms: C5_7  and  C6_8 
REMARK    5  A    between atoms: C6_8  and  O3_10 
REMARK    6  A    between atoms: C8_12  and  N3_33 
REMARK    7  A    between atoms: C9_14  and  N2_16 
ROOT
HETATM    1  C2  UNL     1       4.534   7.692  42.483  1.00  0.00     0.210 C 
HETATM    2  C3  UNL     1       5.770   8.220  41.695  1.00  0.00     0.260 C 
HETATM    3  C7  UNL     1       6.869   8.478  42.746  1.00  0.00     0.093 C 
HETATM    4  C8  UNL     1       7.064   7.288  43.699  1.00  0.00     0.234 C 
HETATM    5  O4  UNL     1       6.317   6.127  43.348  1.00  0.00    -0.333 OA
HETATM    6  C9  UNL     1       4.901   6.297  43.094  1.00  0.00     0.168 C 
HETATM    7  C10 UNL     1       4.686   5.190  42.034  1.00  0.00     0.074 C 
ENDROOT
BRANCH   2   8
HETATM    8  N1  UNL     1       5.445   9.401  40.837  1.00  0.00     0.101 N 
HETATM    9  C4  UNL     1       4.030   9.375  40.429  1.00  0.00     0.311 C 
BRANCH   8  10
HETATM   10  C5  UNL     1       6.311   9.517  39.635  1.00  0.00     0.381 C 
BRANCH  10  11
HETATM   11  C6  UNL     1       7.707  10.025  39.964  1.00  0.00     0.169 C 
HETATM   12  O2  UNL     1       7.990  11.162  40.314  1.00  0.00    -0.649 OA
BRANCH  11  13
HETATM   13  O3  UNL     1       8.670   9.090  39.830  1.00  0.00    -0.775 OA
HETATM   14  H11 UNL     1       9.496   9.550  40.085  1.00  0.00     0.167 HD
ENDBRANCH  11  13
ENDBRANCH  10  11
ENDBRANCH   8  10
ENDBRANCH   2   8
BRANCH   1  15
HETATM   15  O1  UNL     1       4.234   8.637  43.532  1.00  0.00    -0.384 OA
HETATM   16  C1  UNL     1       2.911   9.148  43.485  1.00  0.00     0.202 C 
ENDBRANCH   1  15
BRANCH   6  17
HETATM   17  N2  UNL     1       4.164   6.033  44.345  1.00  0.00    -0.308 N 
HETATM   18  C11 UNL     1       4.665   5.914  45.641  1.00  0.00     0.049 A 
HETATM   19  C12 UNL     1       5.969   5.970  46.169  1.00  0.00     0.030 A 
HETATM   20  C16 UNL     1       3.565   5.683  46.491  1.00  0.00     0.004 A 
HETATM   21  C13 UNL     1       6.151   5.854  47.551  1.00  0.00     0.002 A 
HETATM   22  C14 UNL     1       5.071   5.669  48.401  1.00  0.00     0.001 A 
HETATM   23  C15 UNL     1       3.779   5.573  47.883  1.00  0.00     0.014 A 
HETATM   24  C17 UNL     1       2.408   5.541  45.675  1.00  0.00     0.015 A 
HETATM   25  C18 UNL     1       1.053   5.224  45.858  1.00  0.00    -0.010 A 
HETATM   26  C28 UNL     1       2.826   5.738  44.376  1.00  0.00     0.077 A 
HETATM   27  C19 UNL     1       0.157   5.066  44.755  1.00  0.00     0.054 A 
HETATM   28  C30 UNL     1       0.313   4.956  47.136  1.00  0.00     0.163 A 
HETATM   29  C20 UNL     1       0.511   5.214  43.405  1.00  0.00     0.022 A 
HETATM   30  C29 UNL     1      -1.156   4.708  45.314  1.00  0.00     0.253 A 
HETATM   31  C21 UNL     1      -0.085   5.104  42.111  1.00  0.00     0.004 A 
HETATM   32  C27 UNL     1       1.832   5.568  43.189  1.00  0.00     0.077 A 
HETATM   33  C22 UNL     1      -1.375   4.769  41.643  1.00  0.00     0.014 A 
HETATM   34  C26 UNL     1       0.901   5.417  41.160  1.00  0.00     0.048 A 
HETATM   35  C23 UNL     1      -1.645   4.753  40.271  1.00  0.00     0.001 A 
HETATM   36  C24 UNL     1      -0.652   5.069  39.352  1.00  0.00     0.002 A 
HETATM   37  C25 UNL     1       0.634   5.408  39.779  1.00  0.00     0.030 A 
HETATM   38  N3  UNL     1       2.063   5.717  41.856  1.00  0.00    -0.316 N 
HETATM   39  O5  UNL     1      -2.188   4.484  44.717  1.00  0.00    -0.268 OA
HETATM   40  N4  UNL     1      -1.019   4.664  46.684  1.00  0.00    -0.353 N 
HETATM   41  H26 UNL     1      -1.802   4.424  47.276  1.00  0.00     0.163 HD
ENDBRANCH   6  17
TORSDOF 7
ENDMDL
MODEL 7
REMARK minimizedAffinity -8.07395554
REMARK CNNscore 0.590096354
REMARK CNNaffinity 6.46780396
REMARK  7 active torsions:
REMARK  status: ('A' for Active; 'I' for Inactive)
REMARK    1  A    between atoms: O1_2  and  C2_3 
REMARK    2  A    between atoms: C3_4  and  N1_5 
REMARK    3  A    between atoms: N1_5  and  C5_7 
REMARK    4  A    between atoms: C5_7  and  C6_8 
REMARK    5  A    between atoms: C6_8  and  O3_10 
REMARK    6  A    between atoms: C8_12  and  N3_33 
REMARK    7  A    between atoms: C9_14  and  N2_16 
ROOT
HETATM    1  C2  UNL     1       2.737   8.527  36.028  1.00  0.00     0.210 C 
HETATM    2  C3  UNL     1       2.371   9.109  34.630  1.00  0.00     0.260 C 
HETATM    3  C7  UNL     1       1.255   8.202  34.068  1.00  0.00     0.093 C 
HETATM    4  C8  UNL     1       0.124   7.964  35.080  1.00  0.00     0.234 C 
HETATM    5  O4  UNL     1       0.232   8.735  36.272  1.00  0.00    -0.333 OA
HETATM    6  C9  UNL     1       1.500   8.705  36.973  1.00  0.00     0.168 C 
HETATM    7  C10 UNL     1       1.505  10.131  37.575  1.00  0.00     0.074 C 
ENDROOT
BRANCH   2   8
HETATM    8  N1  UNL     1       3.561   9.252  33.736  1.00  0.00     0.101 N 
HETATM    9  C4  UNL     1       3.525   8.250  32.658  1.00  0.00     0.311 C 
BRANCH   8  10
HETATM   10  C5  UNL     1       4.858   9.165  34.457  1.00  0.00     0.381 C 
BRANCH  10  11
HETATM   11  C6  UNL     1       5.932  10.049  33.841  1.00  0.00     0.169 C 
HETATM   12  O2  UNL     1       5.780  11.203  33.466  1.00  0.00    -0.649 OA
BRANCH  11  13
HETATM   13  O3  UNL     1       7.131   9.441  33.718  1.00  0.00    -0.775 OA
HETATM   14  H11 UNL     1       7.714  10.125  33.328  1.00  0.00     0.167 HD
ENDBRANCH  11  13
ENDBRANCH  10  11
ENDBRANCH   8  10
ENDBRANCH   2   8
BRANCH   1  15
HETATM   15  O1  UNL     1       3.046   7.126  35.864  1.00  0.00    -0.384 OA
HETATM   16  C1  UNL     1       2.203   6.456  34.939  1.00  0.00     0.202 C 
ENDBRANCH   1  15
BRANCH   6  17
HETATM   17  N2  UNL     1       1.441   7.654  38.007  1.00  0.00    -0.308 N 
HETATM   18  C11 UNL     1       0.351   6.877  38.396  1.00  0.00     0.049 A 
HETATM   19  C12 UNL     1      -0.995   6.848  37.985  1.00  0.00     0.030 A 
HETATM   20  C16 UNL     1       0.804   6.003  39.406  1.00  0.00     0.004 A 
HETATM   21  C13 UNL     1      -1.860   5.902  38.547  1.00  0.00     0.002 A 
HETATM   22  C14 UNL     1      -1.414   5.009  39.510  1.00  0.00     0.001 A 
HETATM   23  C15 UNL     1      -0.092   5.057  39.951  1.00  0.00     0.014 A 
HETATM   24  C17 UNL     1       2.150   6.349  39.706  1.00  0.00     0.015 A 
HETATM   25  C18 UNL     1       3.130   5.957  40.632  1.00  0.00    -0.010 A 
HETATM   26  C28 UNL     1       2.487   7.374  38.848  1.00  0.00     0.077 A 
HETATM   27  C19 UNL     1       4.397   6.615  40.717  1.00  0.00     0.054 A 
HETATM   28  C30 UNL     1       3.060   4.887  41.682  1.00  0.00     0.163 A 
HETATM   29  C20 UNL     1       4.802   7.687  39.906  1.00  0.00     0.022 A 
HETATM   30  C29 UNL     1       5.145   5.970  41.807  1.00  0.00     0.253 A 
HETATM   31  C21 UNL     1       5.922   8.559  39.743  1.00  0.00     0.004 A 
HETATM   32  C27 UNL     1       3.875   8.072  38.952  1.00  0.00     0.077 A 
HETATM   33  C22 UNL     1       7.166   8.701  40.397  1.00  0.00     0.014 A 
HETATM   34  C26 UNL     1       5.632   9.430  38.679  1.00  0.00     0.048 A 
HETATM   35  C23 UNL     1       8.071   9.684  39.984  1.00  0.00     0.001 A 
HETATM   36  C24 UNL     1       7.761  10.530  38.927  1.00  0.00     0.002 A 
HETATM   37  C25 UNL     1       6.541  10.417  38.256  1.00  0.00     0.030 A 
HETATM   38  N3  UNL     1       4.374   9.091  38.201  1.00  0.00    -0.316 N 
HETATM   39  O5  UNL     1       6.261   6.230  42.206  1.00  0.00    -0.268 OA
HETATM   40  N4  UNL     1       4.340   4.979  42.325  1.00  0.00    -0.353 N 
HETATM   41  H26 UNL     1       4.653   4.410  43.099  1.00  0.00     0.163 HD
ENDBRANCH   6  17
TORSDOF 7
ENDMDL
MODEL 8
REMARK minimizedAffinity -6.61875296
REMARK CNNscore 0.585021853
REMARK CNNaffinity 6.39464331
REMARK  7 active torsions:
REMARK  status: ('A' for Active; 'I' for Inactive)
REMARK    1  A    between atoms: O1_2  and  C2_3 
REMARK    2  A    between atoms: C3_4  and  N1_5 
REMARK    3  A    between atoms: N1_5  and  C5_7 
REMARK    4  A    between atoms: C5_7  and  C6_8 
REMARK    5  A    between atoms: C6_8  and  O3_10 
REMARK    6  A    between atoms: C8_12  and  N3_33 
REMARK    7  A    between atoms: C9_14  and  N2_16 
ROOT
HETATM    1  C2  UNL     1       2.922  10.475  35.761  1.00  0.00     0.210 C 
HETATM    2  C3  UNL     1       1.892  10.014  34.687  1.00  0.00     0.260 C 
HETATM    3  C7  UNL     1       2.123   8.500  34.497  1.00  0.00     0.093 C 
HETATM    4  C8  UNL     1       2.177   7.740  35.831  1.00  0.00     0.234 C 
HETATM    5  O4  UNL     1       1.855   8.532  36.971  1.00  0.00    -0.333 OA
HETATM    6  C9  UNL     1       2.550   9.794  37.122  1.00  0.00     0.168 C 
HETATM    7  C10 UNL     1       1.451  10.619  37.835  1.00  0.00     0.074 C 
ENDROOT
BRANCH   2   8
HETATM    8  N1  UNL     1       1.976  10.815  33.427  1.00  0.00     0.101 N 
HETATM    9  C4  UNL     1       0.734  11.577  33.212  1.00  0.00     0.311 C 
BRANCH   8  10
HETATM   10  C5  UNL     1       2.275   9.997  32.224  1.00  0.00     0.381 C 
BRANCH  10  11
HETATM   11  C6  UNL     1       1.089   9.890  31.276  1.00  0.00     0.169 C 
HETATM   12  O2  UNL     1       0.887  10.600  30.301  1.00  0.00    -0.649 OA
BRANCH  11  13
HETATM   13  O3  UNL     1       0.220   8.912  31.604  1.00  0.00    -0.775 OA
HETATM   14  H11 UNL     1      -0.469   8.953  30.909  1.00  0.00     0.167 HD
ENDBRANCH  11  13
ENDBRANCH  10  11
ENDBRANCH   8  10
ENDBRANCH   2   8
BRANCH   1  15
HETATM   15  O1  UNL     1       4.235  10.057  35.333  1.00  0.00    -0.384 OA
HETATM   16  C1  UNL     1       4.920  11.023  34.551  1.00  0.00     0.202 C 
ENDBRANCH   1  15
BRANCH   6  17
HETATM   17  N2  UNL     1       3.736   9.579  37.972  1.00  0.00    -0.308 N 
HETATM   18  C11 UNL     1       4.982  10.203  37.902  1.00  0.00     0.049 A 
HETATM   19  C12 UNL     1       5.516  11.171  37.031  1.00  0.00     0.030 A 
HETATM   20  C16 UNL     1       5.771   9.670  38.941  1.00  0.00     0.004 A 
HETATM   21  C13 UNL     1       6.816  11.641  37.247  1.00  0.00     0.002 A 
HETATM   22  C14 UNL     1       7.586  11.155  38.293  1.00  0.00     0.001 A 
HETATM   23  C15 UNL     1       7.079  10.167  39.138  1.00  0.00     0.014 A 
HETATM   24  C17 UNL     1       5.027   8.629  39.562  1.00  0.00     0.015 A 
HETATM   25  C18 UNL     1       5.241   7.668  40.563  1.00  0.00    -0.010 A 
HETATM   26  C28 UNL     1       3.806   8.594  38.924  1.00  0.00     0.077 A 
HETATM   27  C19 UNL     1       4.265   6.671  40.876  1.00  0.00     0.054 A 
HETATM   28  C30 UNL     1       6.453   7.457  41.422  1.00  0.00     0.163 A 
HETATM   29  C20 UNL     1       3.015   6.546  40.249  1.00  0.00     0.022 A 
HETATM   30  C29 UNL     1       4.835   5.827  41.936  1.00  0.00     0.253 A 
HETATM   31  C21 UNL     1       1.866   5.697  40.284  1.00  0.00     0.004 A 
HETATM   32  C27 UNL     1       2.753   7.504  39.285  1.00  0.00     0.077 A 
HETATM   33  C22 UNL     1       1.510   4.547  41.023  1.00  0.00     0.014 A 
HETATM   34  C26 UNL     1       0.943   6.191  39.347  1.00  0.00     0.048 A 
HETATM   35  C23 UNL     1       0.271   3.931  40.816  1.00  0.00     0.001 A 
HETATM   36  C24 UNL     1      -0.624   4.442  39.886  1.00  0.00     0.002 A 
HETATM   37  C25 UNL     1      -0.306   5.579  39.138  1.00  0.00     0.030 A 
HETATM   38  N3  UNL     1       1.511   7.314  38.763  1.00  0.00    -0.316 N 
HETATM   39  O5  UNL     1       4.332   4.867  42.483  1.00  0.00    -0.268 OA
HETATM   40  N4  UNL     1       6.090   6.321  42.222  1.00  0.00    -0.353 N 
HETATM   41  H26 UNL     1       6.673   5.881  42.920  1.00  0.00     0.163 HD
ENDBRANCH   6  17
TORSDOF 7
ENDMDL
MODEL 9
REMARK minimizedAffinity -7.66070652
REMARK CNNscore 0.521752477
REMARK CNNaffinity 6.58564329
REMARK  7 active torsions:
REMARK  status: ('A' for Active; 'I' for Inactive)
REMARK    1  A    between atoms: O1_2  and  C2_3 
REMARK    2  A    between atoms: C3_4  and  N1_5 
REMARK    3  A    between atoms: N1_5  and  C5_7 
REMARK    4  A    between atoms: C5_7  and  C6_8 
REMARK    5  A    between atoms: C6_8  and  O3_10 
REMARK    6  A    between atoms: C8_12  and  N3_33 
REMARK    7  A    between atoms: C9_14  and  N2_16 
ROOT
HETATM    1  C2  UNL     1       8.225 -17.535  41.909  1.00  0.00     0.210 C 
HETATM    2  C3  UNL     1       9.463 -16.597  42.017  1.00  0.00     0.260 C 
HETATM    3  C7  UNL     1       9.053 -15.269  41.346  1.00  0.00     0.093 C 
HETATM    4  C8  UNL     1       7.696 -14.750  41.847  1.00  0.00     0.234 C 
HETATM    5  O4  UNL     1       7.149 -15.493  42.932  1.00  0.00    -0.333 OA
HETATM    6  C9  UNL     1       7.074 -16.932  42.783  1.00  0.00     0.168 C 
HETATM    7  C10 UNL     1       7.260 -17.362  44.259  1.00  0.00     0.074 C 
ENDROOT
BRANCH   2   8
HETATM    8  N1  UNL     1      10.706 -17.214  41.457  1.00  0.00     0.101 N 
HETATM    9  C4  UNL     1      11.260 -18.206  42.394  1.00  0.00     0.311 C 
BRANCH   8  10
HETATM   10  C5  UNL     1      11.752 -16.221  41.102  1.00  0.00     0.381 C 
BRANCH  10  11
HETATM   11  C6  UNL     1      12.120 -16.259  39.625  1.00  0.00     0.169 C 
HETATM   12  O2  UNL     1      12.638 -15.349  38.994  1.00  0.00    -0.649 OA
BRANCH  11  13
HETATM   13  O3  UNL     1      11.812 -17.425  39.019  1.00  0.00    -0.775 OA
HETATM   14  H11 UNL     1      12.115 -17.308  38.096  1.00  0.00     0.167 HD
ENDBRANCH  11  13
ENDBRANCH  10  11
ENDBRANCH   8  10
ENDBRANCH   2   8
BRANCH   1  15
HETATM   15  O1  UNL     1       7.825 -17.593  40.523  1.00  0.00    -0.384 OA
HETATM   16  C1  UNL     1       8.646 -18.430  39.722  1.00  0.00     0.202 C 
ENDBRANCH   1  15
BRANCH   6  17
HETATM   17  N2  UNL     1       5.741 -17.281  42.256  1.00  0.00    -0.308 N 
HETATM   18  C11 UNL     1       5.402 -18.277  41.340  1.00  0.00     0.049 A 
HETATM   19  C12 UNL     1       6.168 -19.214  40.623  1.00  0.00     0.030 A 
HETATM   20  C16 UNL     1       4.002 -18.227  41.174  1.00  0.00     0.004 A 
HETATM   21  C13 UNL     1       5.519 -20.133  39.791  1.00  0.00     0.002 A 
HETATM   22  C14 UNL     1       4.139 -20.120  39.653  1.00  0.00     0.001 A 
HETATM   23  C15 UNL     1       3.374 -19.170  40.330  1.00  0.00     0.014 A 
HETATM   24  C17 UNL     1       3.518 -17.108  41.907  1.00  0.00     0.015 A 
HETATM   25  C18 UNL     1       2.288 -16.457  42.095  1.00  0.00    -0.010 A 
HETATM   26  C28 UNL     1       4.614 -16.550  42.528  1.00  0.00     0.077 A 
HETATM   27  C19 UNL     1       2.181 -15.249  42.853  1.00  0.00     0.054 A 
HETATM   28  C30 UNL     1       0.937 -16.820  41.552  1.00  0.00     0.163 A 
HETATM   29  C20 UNL     1       3.252 -14.599  43.486  1.00  0.00     0.022 A 
HETATM   30  C29 UNL     1       0.769 -14.839  42.811  1.00  0.00     0.253 A 
HETATM   31  C21 UNL     1       3.501 -13.424  44.259  1.00  0.00     0.004 A 
HETATM   32  C27 UNL     1       4.473 -15.238  43.356  1.00  0.00     0.077 A 
HETATM   33  C22 UNL     1       2.698 -12.358  44.723  1.00  0.00     0.014 A 
HETATM   34  C26 UNL     1       4.868 -13.408  44.582  1.00  0.00     0.048 A 
HETATM   35  C23 UNL     1       3.263 -11.327  45.481  1.00  0.00     0.001 A 
HETATM   36  C24 UNL     1       4.617 -11.339  45.789  1.00  0.00     0.002 A 
HETATM   37  C25 UNL     1       5.441 -12.377  45.349  1.00  0.00     0.030 A 
HETATM   38  N3  UNL     1       5.434 -14.548  44.029  1.00  0.00    -0.316 N 
HETATM   39  O5  UNL     1       0.255 -13.867  43.325  1.00  0.00    -0.268 OA
HETATM   40  N4  UNL     1       0.093 -15.775  42.059  1.00  0.00    -0.353 N 
HETATM   41  H26 UNL     1      -0.899 -15.684  41.888  1.00  0.00     0.163 HD
ENDBRANCH   6  17
TORSDOF 7
ENDMDL
