MODEL 1
REMARK minimizedAffinity -10.1450195
REMARK  4 active torsions:
REMARK  status: ('A' for Active; 'I' for Inactive)
REMARK    1  A    between atoms: O1_2  and  C2_3 
REMARK    2  A    between atoms: C7_8  and  N1_9 
REMARK    3  A    between atoms: N1_9  and  C8_10 
REMARK    4  A    between atoms: C12_16  and  C13_17 
ROOT
HETATM    1  C8  UNL     1       4.981  -5.192  29.105  1.00  0.00     0.684 A 
HETATM    2  N2  UNL     1       4.634  -4.113  29.824  1.00  0.00    -0.201 N 
ATOM      3  H2  UNL     1       3.725  -3.666  29.703  1.00  0.00     0.183 HD
HETATM    4  C9  UNL     1       5.531  -3.643  30.710  1.00  0.00     0.121 A 
HETATM    5  C10 UNL     1       6.769  -4.205  30.912  1.00  0.00     0.026 A 
HETATM    6  C11 UNL     1       7.733  -3.692  31.870  1.00  0.00     0.034 A 
HETATM    7  C12 UNL     1       8.921  -4.303  32.004  1.00  0.00     0.047 A 
HETATM    8  C19 UNL     1       9.262  -5.509  31.175  1.00  0.00     0.260 A 
HETATM    9  O2  UNL     1      10.359  -6.048  31.320  1.00  0.00    -0.267 OA
HETATM   10  N3  UNL     1       8.301  -5.950  30.278  1.00  0.00    -0.303 N 
HETATM   11  C20 UNL     1       8.565  -7.110  29.446  1.00  0.00     0.161 C 
HETATM   12  C21 UNL     1       7.044  -5.310  30.132  1.00  0.00     0.137 A 
HETATM   13  N4  UNL     1       6.166  -5.805  29.235  1.00  0.00    -0.175 N 
ATOM     14  H4  UNL     1       6.397  -6.623  28.672  1.00  0.00     0.186 HD
ENDROOT
BRANCH   1  15
HETATM   15  N1  UNL     1       4.021  -5.635  28.209  1.00  0.00    -0.189 N 
HETATM   16  H8  UNL     1       3.752  -4.896  27.570  1.00  0.00     0.184 HD
BRANCH  15  17
HETATM   17  C7  UNL     1       3.349  -6.848  27.986  1.00  0.00     0.082 A 
HETATM   18  C2  UNL     1       4.091  -7.938  27.468  1.00  0.00     0.095 A 
HETATM   19  C3  UNL     1       3.468  -9.169  27.228  1.00  0.00     0.039 A 
HETATM   20  C4  UNL     1       2.108  -9.329  27.498  1.00  0.00     0.003 A 
HETATM   21  C5  UNL     1       1.370  -8.265  28.006  1.00  0.00     0.002 A 
HETATM   22  C6  UNL     1       1.987  -7.035  28.247  1.00  0.00     0.033 A 
BRANCH  18  23
HETATM   23  O1  UNL     1       5.424  -7.676  27.238  1.00  0.00    -0.354 OA
HETATM   24  C1  UNL     1       5.960  -8.096  25.990  1.00  0.00     0.210 C 
ENDBRANCH  18  23
ENDBRANCH  15  17
ENDBRANCH   1  15
BRANCH   7  25
HETATM   25  C13 UNL     1       9.905  -3.788  32.976  1.00  0.00     0.023 A 
HETATM   26  C14 UNL     1       9.854  -4.170  34.329  1.00  0.00     0.046 A 
HETATM   27 CL1  UNL     1       8.624  -5.229  34.935  1.00  0.00    -0.083 Cl
HETATM   28  C15 UNL     1      10.798  -3.692  35.245  1.00  0.00     0.025 A 
HETATM   29  C16 UNL     1      11.808  -2.830  34.826  1.00  0.00     0.003 A 
HETATM   30  C17 UNL     1      11.875  -2.440  33.490  1.00  0.00     0.025 A 
HETATM   31  C18 UNL     1      10.933  -2.916  32.570  1.00  0.00     0.046 A 
HETATM   32 CL2  UNL     1      11.080  -2.374  30.932  1.00  0.00    -0.083 Cl
ENDBRANCH   7  25
TORSDOF 4
ENDMDL
MODEL 2
REMARK minimizedAffinity -10.1429348
REMARK  4 active torsions:
REMARK  status: ('A' for Active; 'I' for Inactive)
REMARK    1  A    between atoms: O1_2  and  C2_3 
REMARK    2  A    between atoms: C7_8  and  N1_9 
REMARK    3  A    between atoms: N1_9  and  C8_10 
REMARK    4  A    between atoms: C12_16  and  C13_17 
ROOT
HETATM    1  C8  UNL     1       4.990  -5.172  29.119  1.00  0.00     0.684 A 
HETATM    2  N2  UNL     1       4.655  -4.087  29.836  1.00  0.00    -0.201 N 
ATOM      3  H2  UNL     1       3.750  -3.632  29.715  1.00  0.00     0.183 HD
HETATM    4  C9  UNL     1       5.559  -3.624  30.719  1.00  0.00     0.121 A 
HETATM    5  C10 UNL     1       6.791  -4.198  30.920  1.00  0.00     0.026 A 
HETATM    6  C11 UNL     1       7.762  -3.692  31.875  1.00  0.00     0.034 A 
HETATM    7  C12 UNL     1       8.944  -4.314  32.008  1.00  0.00     0.047 A 
HETATM    8  C19 UNL     1       9.271  -5.525  31.181  1.00  0.00     0.260 A 
HETATM    9  O2  UNL     1      10.364  -6.075  31.325  1.00  0.00    -0.267 OA
HETATM   10  N3  UNL     1       8.305  -5.959  30.287  1.00  0.00    -0.303 N 
HETATM   11  C20 UNL     1       8.556  -7.124  29.458  1.00  0.00     0.161 C 
HETATM   12  C21 UNL     1       7.053  -5.307  30.142  1.00  0.00     0.137 A 
HETATM   13  N4  UNL     1       6.169  -5.796  29.248  1.00  0.00    -0.175 N 
ATOM     14  H4  UNL     1       6.391  -6.618  28.687  1.00  0.00     0.186 HD
ENDROOT
BRANCH   1  15
HETATM   15  N1  UNL     1       4.024  -5.607  28.225  1.00  0.00    -0.189 N 
HETATM   16  H8  UNL     1       3.753  -4.864  27.593  1.00  0.00     0.184 HD
BRANCH  15  17
HETATM   17  C7  UNL     1       3.348  -6.818  28.000  1.00  0.00     0.082 A 
HETATM   18  C2  UNL     1       4.085  -7.907  27.473  1.00  0.00     0.095 A 
HETATM   19  C3  UNL     1       3.458  -9.135  27.230  1.00  0.00     0.039 A 
HETATM   20  C4  UNL     1       2.099  -9.293  27.505  1.00  0.00     0.003 A 
HETATM   21  C5  UNL     1       1.366  -8.230  28.022  1.00  0.00     0.002 A 
HETATM   22  C6  UNL     1       1.987  -7.003  28.266  1.00  0.00     0.033 A 
BRANCH  18  23
HETATM   23  O1  UNL     1       5.417  -7.646  27.238  1.00  0.00    -0.354 OA
HETATM   24  C1  UNL     1       5.959  -8.108  26.007  1.00  0.00     0.210 C 
ENDBRANCH  18  23
ENDBRANCH  15  17
ENDBRANCH   1  15
BRANCH   7  25
HETATM   25  C13 UNL     1       9.936  -3.806  32.976  1.00  0.00     0.023 A 
HETATM   26  C14 UNL     1      10.965  -2.938  32.569  1.00  0.00     0.046 A 
HETATM   27 CL1  UNL     1      11.148  -2.446  30.918  1.00  0.00    -0.083 Cl
HETATM   28  C15 UNL     1      11.895  -2.445  33.493  1.00  0.00     0.025 A 
HETATM   29  C16 UNL     1      11.811  -2.810  34.834  1.00  0.00     0.003 A 
HETATM   30  C17 UNL     1      10.799  -3.669  35.255  1.00  0.00     0.025 A 
HETATM   31  C18 UNL     1       9.867  -4.164  34.336  1.00  0.00     0.046 A 
HETATM   32 CL2  UNL     1       8.648  -5.236  34.939  1.00  0.00    -0.083 Cl
ENDBRANCH   7  25
TORSDOF 4
ENDMDL
MODEL 3
REMARK minimizedAffinity -9.86430264
REMARK  4 active torsions:
REMARK  status: ('A' for Active; 'I' for Inactive)
REMARK    1  A    between atoms: O1_2  and  C2_3 
REMARK    2  A    between atoms: C7_8  and  N1_9 
REMARK    3  A    between atoms: N1_9  and  C8_10 
REMARK    4  A    between atoms: C12_16  and  C13_17 
ROOT
HETATM    1  C8  UNL     1       6.342  -7.038  28.529  1.00  0.00     0.684 A 
HETATM    2  N2  UNL     1       7.499  -7.704  28.668  1.00  0.00    -0.201 N 
ATOM      3  H2  UNL     1       7.684  -8.561  28.146  1.00  0.00     0.183 HD
HETATM    4  C9  UNL     1       8.408  -7.198  29.522  1.00  0.00     0.121 A 
HETATM    5  C10 UNL     1       8.211  -6.049  30.251  1.00  0.00     0.026 A 
HETATM    6  C11 UNL     1       9.195  -5.508  31.172  1.00  0.00     0.034 A 
HETATM    7  C12 UNL     1       8.921  -4.379  31.844  1.00  0.00     0.047 A 
HETATM    8  C19 UNL     1       7.610  -3.671  31.653  1.00  0.00     0.260 A 
HETATM    9  O2  UNL     1       7.387  -2.638  32.284  1.00  0.00    -0.267 OA
HETATM   10  N3  UNL     1       6.712  -4.236  30.762  1.00  0.00    -0.303 N 
HETATM   11  C20 UNL     1       5.426  -3.604  30.529  1.00  0.00     0.161 C 
HETATM   12  C21 UNL     1       6.995  -5.429  30.047  1.00  0.00     0.137 A 
HETATM   13  N4  UNL     1       6.064  -5.911  29.198  1.00  0.00    -0.175 N 
ATOM     14  H4  UNL     1       5.174  -5.431  29.069  1.00  0.00     0.186 HD
ENDROOT
BRANCH   1  15
HETATM   15  N1  UNL     1       5.443  -7.602  27.637  1.00  0.00    -0.189 N 
HETATM   16  H8  UNL     1       5.906  -7.873  26.777  1.00  0.00     0.184 HD
BRANCH  15  17
HETATM   17  C7  UNL     1       4.066  -7.880  27.650  1.00  0.00     0.082 A 
HETATM   18  C2  UNL     1       3.637  -9.155  27.209  1.00  0.00     0.095 A 
HETATM   19  C3  UNL     1       2.275  -9.481  27.203  1.00  0.00     0.039 A 
HETATM   20  C4  UNL     1       1.331  -8.548  27.633  1.00  0.00     0.003 A 
HETATM   21  C5  UNL     1       1.742  -7.292  28.068  1.00  0.00     0.002 A 
HETATM   22  C6  UNL     1       3.099  -6.963  28.075  1.00  0.00     0.033 A 
BRANCH  18  23
HETATM   23  O1  UNL     1       4.648 -10.001  26.807  1.00  0.00    -0.354 OA
HETATM   24  C1  UNL     1       4.688 -10.351  25.430  1.00  0.00     0.210 C 
ENDBRANCH  18  23
ENDBRANCH  15  17
ENDBRANCH   1  15
BRANCH   7  25
HETATM   25  C13 UNL     1       9.917  -3.823  32.782  1.00  0.00     0.023 A 
HETATM   26  C14 UNL     1       9.913  -4.188  34.140  1.00  0.00     0.046 A 
HETATM   27 CL1  UNL     1       8.731  -5.273  34.793  1.00  0.00    -0.083 Cl
HETATM   28  C15 UNL     1      10.869  -3.671  35.024  1.00  0.00     0.025 A 
HETATM   29  C16 UNL     1      11.841  -2.786  34.566  1.00  0.00     0.003 A 
HETATM   30  C17 UNL     1      11.860  -2.413  33.225  1.00  0.00     0.025 A 
HETATM   31  C18 UNL     1      10.907  -2.927  32.337  1.00  0.00     0.046 A 
HETATM   32 CL2  UNL     1      10.993  -2.404  30.688  1.00  0.00    -0.083 Cl
ENDBRANCH   7  25
TORSDOF 4
ENDMDL
MODEL 4
REMARK minimizedAffinity -9.65644455
REMARK  4 active torsions:
REMARK  status: ('A' for Active; 'I' for Inactive)
REMARK    1  A    between atoms: O1_2  and  C2_3 
REMARK    2  A    between atoms: C7_8  and  N1_9 
REMARK    3  A    between atoms: N1_9  and  C8_10 
REMARK    4  A    between atoms: C12_16  and  C13_17 
ROOT
HETATM    1  C8  UNL     1       6.553  -6.963  28.111  1.00  0.00     0.684 A 
HETATM    2  N2  UNL     1       7.729  -7.596  28.246  1.00  0.00    -0.201 N 
ATOM      3  H2  UNL     1       7.967  -8.403  27.668  1.00  0.00     0.183 HD
HETATM    4  C9  UNL     1       8.583  -7.126  29.174  1.00  0.00     0.121 A 
HETATM    5  C10 UNL     1       8.314  -6.045  29.980  1.00  0.00     0.026 A 
HETATM    6  C11 UNL     1       9.241  -5.544  30.980  1.00  0.00     0.034 A 
HETATM    7  C12 UNL     1       8.897  -4.481  31.725  1.00  0.00     0.047 A 
HETATM    8  C19 UNL     1       7.567  -3.808  31.535  1.00  0.00     0.260 A 
HETATM    9  O2  UNL     1       7.280  -2.836  32.233  1.00  0.00    -0.267 OA
HETATM   10  N3  UNL     1       6.727  -4.333  30.566  1.00  0.00    -0.303 N 
HETATM   11  C20 UNL     1       5.428  -3.731  30.330  1.00  0.00     0.161 C 
HETATM   12  C21 UNL     1       7.083  -5.456  29.774  1.00  0.00     0.137 A 
HETATM   13  N4  UNL     1       6.206  -5.903  28.853  1.00  0.00    -0.175 N 
ATOM     14  H4  UNL     1       5.303  -5.446  28.724  1.00  0.00     0.186 HD
ENDROOT
BRANCH   1  15
HETATM   15  N1  UNL     1       5.712  -7.487  27.142  1.00  0.00    -0.189 N 
HETATM   16  H8  UNL     1       5.792  -6.971  26.274  1.00  0.00     0.184 HD
BRANCH  15  17
HETATM   17  C7  UNL     1       4.794  -8.549  27.087  1.00  0.00     0.082 A 
HETATM   18  C2  UNL     1       3.466  -8.308  27.517  1.00  0.00     0.095 A 
HETATM   19  C3  UNL     1       2.514  -9.334  27.482  1.00  0.00     0.039 A 
HETATM   20  C4  UNL     1       2.868 -10.602  27.023  1.00  0.00     0.003 A 
HETATM   21  C5  UNL     1       4.169 -10.850  26.598  1.00  0.00     0.002 A 
HETATM   22  C6  UNL     1       5.123  -9.830  26.631  1.00  0.00     0.033 A 
BRANCH  18  23
HETATM   23  O1  UNL     1       3.220  -7.024  27.950  1.00  0.00    -0.354 OA
HETATM   24  C1  UNL     1       1.864  -6.669  28.186  1.00  0.00     0.210 C 
ENDBRANCH  18  23
ENDBRANCH  15  17
ENDBRANCH   1  15
BRANCH   7  25
HETATM   25  C13 UNL     1       9.833  -3.966  32.743  1.00  0.00     0.023 A 
HETATM   26  C14 UNL     1       9.751  -4.388  34.082  1.00  0.00     0.046 A 
HETATM   27 CL1  UNL     1       8.537  -5.502  34.617  1.00  0.00    -0.083 Cl
HETATM   28  C15 UNL     1      10.650  -3.909  35.042  1.00  0.00     0.025 A 
HETATM   29  C16 UNL     1      11.645  -3.004  34.681  1.00  0.00     0.003 A 
HETATM   30  C17 UNL     1      11.742  -2.574  33.360  1.00  0.00     0.025 A 
HETATM   31  C18 UNL     1      10.845  -3.050  32.396  1.00  0.00     0.046 A 
HETATM   32 CL2  UNL     1      11.026  -2.456  30.780  1.00  0.00    -0.083 Cl
ENDBRANCH   7  25
TORSDOF 4
ENDMDL
MODEL 5
REMARK minimizedAffinity -9.37879181
REMARK  4 active torsions:
REMARK  status: ('A' for Active; 'I' for Inactive)
REMARK    1  A    between atoms: O1_2  and  C2_3 
REMARK    2  A    between atoms: C7_8  and  N1_9 
REMARK    3  A    between atoms: N1_9  and  C8_10 
REMARK    4  A    between atoms: C12_16  and  C13_17 
ROOT
HETATM    1  C8  UNL     1       5.178  -6.318  28.905  1.00  0.00     0.684 A 
HETATM    2  N2  UNL     1       4.694  -5.259  29.574  1.00  0.00    -0.201 N 
ATOM      3  H2  UNL     1       3.731  -4.947  29.447  1.00  0.00     0.183 HD
HETATM    4  C9  UNL     1       5.529  -4.624  30.418  1.00  0.00     0.121 A 
HETATM    5  C10 UNL     1       6.834  -5.001  30.626  1.00  0.00     0.026 A 
HETATM    6  C11 UNL     1       7.730  -4.310  31.537  1.00  0.00     0.034 A 
HETATM    7  C12 UNL     1       8.992  -4.745  31.680  1.00  0.00     0.047 A 
HETATM    8  C19 UNL     1       9.485  -5.936  30.908  1.00  0.00     0.260 A 
HETATM    9  O2  UNL     1      10.647  -6.312  31.060  1.00  0.00    -0.267 OA
HETATM   10  N3  UNL     1       8.584  -6.552  30.054  1.00  0.00    -0.303 N 
HETATM   11  C20 UNL     1       8.995  -7.708  29.278  1.00  0.00     0.161 C 
HETATM   12  C21 UNL     1       7.249  -6.098  29.898  1.00  0.00     0.137 A 
HETATM   13  N4  UNL     1       6.437  -6.755  29.045  1.00  0.00    -0.175 N 
ATOM     14  H4  UNL     1       6.772  -7.564  28.520  1.00  0.00     0.186 HD
ENDROOT
BRANCH   1  15
HETATM   15  N1  UNL     1       4.278  -6.935  28.051  1.00  0.00    -0.189 N 
HETATM   16  H8  UNL     1       3.592  -6.274  27.707  1.00  0.00     0.184 HD
BRANCH  15  17
HETATM   17  C7  UNL     1       4.102  -8.240  27.561  1.00  0.00     0.082 A 
HETATM   18  C2  UNL     1       2.796  -8.789  27.575  1.00  0.00     0.095 A 
HETATM   19  C3  UNL     1       2.569 -10.086  27.098  1.00  0.00     0.039 A 
HETATM   20  C4  UNL     1       3.629 -10.846  26.606  1.00  0.00     0.003 A 
HETATM   21  C5  UNL     1       4.916 -10.317  26.588  1.00  0.00     0.002 A 
HETATM   22  C6  UNL     1       5.148  -9.024  27.063  1.00  0.00     0.033 A 
BRANCH  18  23
HETATM   23  O1  UNL     1       1.822  -7.957  28.080  1.00  0.00    -0.354 OA
HETATM   24  C1  UNL     1       0.485  -8.197  27.660  1.00  0.00     0.210 C 
ENDBRANCH  18  23
ENDBRANCH  15  17
ENDBRANCH   1  15
BRANCH   7  25
HETATM   25  C13 UNL     1       9.907  -4.050  32.605  1.00  0.00     0.023 A 
HETATM   26  C14 UNL     1       9.892  -4.329  33.984  1.00  0.00     0.046 A 
HETATM   27 CL1  UNL     1       8.786  -5.470  34.675  1.00  0.00    -0.083 Cl
HETATM   28  C15 UNL     1      10.773  -3.679  34.858  1.00  0.00     0.025 A 
HETATM   29  C16 UNL     1      11.681  -2.743  34.369  1.00  0.00     0.003 A 
HETATM   30  C17 UNL     1      11.709  -2.453  33.007  1.00  0.00     0.025 A 
HETATM   31  C18 UNL     1      10.832  -3.100  32.130  1.00  0.00     0.046 A 
HETATM   32 CL2  UNL     1      10.924  -2.674  30.454  1.00  0.00    -0.083 Cl
ENDBRANCH   7  25
TORSDOF 4
ENDMDL
MODEL 6
REMARK minimizedAffinity -9.34400463
REMARK  4 active torsions:
REMARK  status: ('A' for Active; 'I' for Inactive)
REMARK    1  A    between atoms: O1_2  and  C2_3 
REMARK    2  A    between atoms: C7_8  and  N1_9 
REMARK    3  A    between atoms: N1_9  and  C8_10 
REMARK    4  A    between atoms: C12_16  and  C13_17 
ROOT
HETATM    1  C8  UNL     1       4.860  -6.189  28.987  1.00  0.00     0.684 A 
HETATM    2  N2  UNL     1       4.434  -5.100  29.647  1.00  0.00    -0.201 N 
ATOM      3  H2  UNL     1       3.477  -4.759  29.546  1.00  0.00     0.183 HD
HETATM    4  C9  UNL     1       5.318  -4.475  30.447  1.00  0.00     0.121 A 
HETATM    5  C10 UNL     1       6.617  -4.890  30.618  1.00  0.00     0.026 A 
HETATM    6  C11 UNL     1       7.566  -4.210  31.483  1.00  0.00     0.034 A 
HETATM    7  C12 UNL     1       8.817  -4.684  31.592  1.00  0.00     0.047 A 
HETATM    8  C19 UNL     1       9.244  -5.907  30.831  1.00  0.00     0.260 A 
HETATM    9  O2  UNL     1      10.398  -6.318  30.952  1.00  0.00    -0.267 OA
HETATM   10  N3  UNL     1       8.294  -6.511  30.023  1.00  0.00    -0.303 N 
HETATM   11  C20 UNL     1       8.640  -7.696  29.260  1.00  0.00     0.161 C 
HETATM   12  C21 UNL     1       6.970  -6.016  29.902  1.00  0.00     0.137 A 
HETATM   13  N4  UNL     1       6.108  -6.665  29.093  1.00  0.00    -0.175 N 
ATOM     14  H4  UNL     1       6.398  -7.495  28.575  1.00  0.00     0.186 HD
ENDROOT
BRANCH   1  15
HETATM   15  N1  UNL     1       3.910  -6.794  28.178  1.00  0.00    -0.189 N 
HETATM   16  H8  UNL     1       3.189  -6.135  27.908  1.00  0.00     0.184 HD
BRANCH  15  17
HETATM   17  C7  UNL     1       3.722  -8.085  27.656  1.00  0.00     0.082 A 
HETATM   18  C2  UNL     1       2.404  -8.601  27.608  1.00  0.00     0.095 A 
HETATM   19  C3  UNL     1       2.163  -9.882  27.097  1.00  0.00     0.039 A 
HETATM   20  C4  UNL     1       3.224 -10.660  26.631  1.00  0.00     0.003 A 
HETATM   21  C5  UNL     1       4.522 -10.163  26.674  1.00  0.00     0.002 A 
HETATM   22  C6  UNL     1       4.767  -8.885  27.183  1.00  0.00     0.033 A 
BRANCH  18  23
HETATM   23  O1  UNL     1       1.431  -7.754  28.091  1.00  0.00    -0.354 OA
HETATM   24  C1  UNL     1       0.079  -8.094  27.810  1.00  0.00     0.210 C 
ENDBRANCH  18  23
ENDBRANCH  15  17
ENDBRANCH   1  15
BRANCH   7  25
HETATM   25  C13 UNL     1       9.786  -3.999  32.469  1.00  0.00     0.023 A 
HETATM   26  C14 UNL     1      10.704  -3.069  31.946  1.00  0.00     0.046 A 
HETATM   27 CL1  UNL     1      10.772  -2.704  30.254  1.00  0.00    -0.083 Cl
HETATM   28  C15 UNL     1      11.612  -2.409  32.783  1.00  0.00     0.025 A 
HETATM   29  C16 UNL     1      11.617  -2.665  34.152  1.00  0.00     0.003 A 
HETATM   30  C17 UNL     1      10.717  -3.582  34.687  1.00  0.00     0.025 A 
HETATM   31  C18 UNL     1       9.807  -4.244  33.855  1.00  0.00     0.046 A 
HETATM   32 CL2  UNL     1       8.729  -5.378  34.599  1.00  0.00    -0.083 Cl
ENDBRANCH   7  25
TORSDOF 4
ENDMDL
MODEL 7
REMARK minimizedAffinity -8.87114143
REMARK  4 active torsions:
REMARK  status: ('A' for Active; 'I' for Inactive)
REMARK    1  A    between atoms: O1_2  and  C2_3 
REMARK    2  A    between atoms: C7_8  and  N1_9 
REMARK    3  A    between atoms: N1_9  and  C8_10 
REMARK    4  A    between atoms: C12_16  and  C13_17 
ROOT
HETATM    1  C8  UNL     1       8.457  -4.873  30.747  1.00  0.00     0.684 A 
HETATM    2  N2  UNL     1       9.128  -5.835  30.094  1.00  0.00    -0.201 N 
ATOM      3  H2  UNL     1      10.143  -5.911  30.159  1.00  0.00     0.183 HD
HETATM    4  C9  UNL     1       8.409  -6.696  29.350  1.00  0.00     0.121 A 
HETATM    5  C10 UNL     1       7.041  -6.639  29.227  1.00  0.00     0.026 A 
HETATM    6  C11 UNL     1       6.272  -7.571  28.421  1.00  0.00     0.034 A 
HETATM    7  C12 UNL     1       4.937  -7.443  28.356  1.00  0.00     0.047 A 
HETATM    8  C19 UNL     1       4.234  -6.348  29.107  1.00  0.00     0.260 A 
HETATM    9  O2  UNL     1       3.009  -6.255  29.028  1.00  0.00    -0.267 OA
HETATM   10  N3  UNL     1       5.022  -5.490  29.857  1.00  0.00    -0.303 N 
HETATM   11  C20 UNL     1       4.407  -4.410  30.606  1.00  0.00     0.161 C 
HETATM   12  C21 UNL     1       6.433  -5.619  29.930  1.00  0.00     0.137 A 
HETATM   13  N4  UNL     1       7.125  -4.741  30.684  1.00  0.00    -0.175 N 
ATOM     14  H4  UNL     1       6.648  -3.997  31.193  1.00  0.00     0.186 HD
ENDROOT
BRANCH   1  15
HETATM   15  N1  UNL     1       9.245  -4.014  31.498  1.00  0.00    -0.189 N 
HETATM   16  H8  UNL     1       9.600  -3.255  30.929  1.00  0.00     0.184 HD
BRANCH  15  17
HETATM   17  C7  UNL     1       9.655  -3.955  32.840  1.00  0.00     0.082 A 
HETATM   18  C2  UNL     1      10.859  -3.274  33.143  1.00  0.00     0.095 A 
HETATM   19  C3  UNL     1      11.311  -3.187  34.465  1.00  0.00     0.039 A 
HETATM   20  C4  UNL     1      10.575  -3.773  35.495  1.00  0.00     0.003 A 
HETATM   21  C5  UNL     1       9.391  -4.445  35.210  1.00  0.00     0.002 A 
HETATM   22  C6  UNL     1       8.936  -4.535  33.892  1.00  0.00     0.033 A 
BRANCH  18  23
HETATM   23  O1  UNL     1      11.507  -2.731  32.055  1.00  0.00    -0.354 OA
HETATM   24  C1  UNL     1      12.225  -1.522  32.267  1.00  0.00     0.210 C 
ENDBRANCH  18  23
ENDBRANCH  15  17
ENDBRANCH   1  15
BRANCH   7  25
HETATM   25  C13 UNL     1       4.148  -8.387  27.541  1.00  0.00     0.023 A 
HETATM   26  C14 UNL     1       2.803  -8.121  27.225  1.00  0.00     0.046 A 
HETATM   27 CL1  UNL     1       1.993  -6.701  27.797  1.00  0.00    -0.083 Cl
HETATM   28  C15 UNL     1       2.062  -9.011  26.437  1.00  0.00     0.025 A 
HETATM   29  C16 UNL     1       2.651 -10.176  25.953  1.00  0.00     0.003 A 
HETATM   30  C17 UNL     1       3.981 -10.457  26.256  1.00  0.00     0.025 A 
HETATM   31  C18 UNL     1       4.726  -9.570  27.043  1.00  0.00     0.046 A 
HETATM   32 CL2  UNL     1       6.369  -9.999  27.383  1.00  0.00    -0.083 Cl
ENDBRANCH   7  25
TORSDOF 4
ENDMDL
MODEL 8
REMARK minimizedAffinity -8.76630402
REMARK  4 active torsions:
REMARK  status: ('A' for Active; 'I' for Inactive)
REMARK    1  A    between atoms: O1_2  and  C2_3 
REMARK    2  A    between atoms: C7_8  and  N1_9 
REMARK    3  A    between atoms: N1_9  and  C8_10 
REMARK    4  A    between atoms: C12_16  and  C13_17 
ROOT
HETATM    1  C8  UNL     1       7.555  -7.505  28.261  1.00  0.00     0.684 A 
HETATM    2  N2  UNL     1       8.741  -8.059  28.560  1.00  0.00    -0.201 N 
ATOM      3  H2  UNL     1       9.081  -8.883  28.065  1.00  0.00     0.183 HD
HETATM    4  C9  UNL     1       9.464  -7.483  29.539  1.00  0.00     0.121 A 
HETATM    5  C10 UNL     1       9.053  -6.373  30.238  1.00  0.00     0.026 A 
HETATM    6  C11 UNL     1       9.838  -5.758  31.295  1.00  0.00     0.034 A 
HETATM    7  C12 UNL     1       9.360  -4.675  31.927  1.00  0.00     0.047 A 
HETATM    8  C19 UNL     1       8.026  -4.094  31.554  1.00  0.00     0.260 A 
HETATM    9  O2  UNL     1       7.614  -3.100  32.152  1.00  0.00    -0.267 OA
HETATM   10  N3  UNL     1       7.324  -4.726  30.540  1.00  0.00    -0.303 N 
HETATM   11  C20 UNL     1       6.028  -4.217  30.129  1.00  0.00     0.161 C 
HETATM   12  C21 UNL     1       7.822  -5.871  29.866  1.00  0.00     0.137 A 
HETATM   13  N4  UNL     1       7.075  -6.424  28.890  1.00  0.00    -0.175 N 
ATOM     14  H4  UNL     1       6.168  -6.030  28.637  1.00  0.00     0.186 HD
ENDROOT
BRANCH   1  15
HETATM   15  N1  UNL     1       6.852  -8.136  27.245  1.00  0.00    -0.189 N 
HETATM   16  H8  UNL     1       7.447  -8.306  26.443  1.00  0.00     0.184 HD
BRANCH  15  17
HETATM   17  C7  UNL     1       5.532  -8.586  27.077  1.00  0.00     0.082 A 
HETATM   18  C2  UNL     1       5.285  -9.586  26.105  1.00  0.00     0.095 A 
HETATM   19  C3  UNL     1       3.987 -10.067  25.899  1.00  0.00     0.039 A 
HETATM   20  C4  UNL     1       2.926  -9.563  26.651  1.00  0.00     0.003 A 
HETATM   21  C5  UNL     1       3.157  -8.580  27.608  1.00  0.00     0.002 A 
HETATM   22  C6  UNL     1       4.451  -8.097  27.818  1.00  0.00     0.033 A 
BRANCH  18  23
HETATM   23  O1  UNL     1       6.400 -10.016  25.418  1.00  0.00    -0.354 OA
HETATM   24  C1  UNL     1       6.661 -11.413  25.421  1.00  0.00     0.210 C 
ENDBRANCH  18  23
ENDBRANCH  15  17
ENDBRANCH   1  15
BRANCH   7  25
HETATM   25  C13 UNL     1      10.152  -4.044  33.000  1.00  0.00     0.023 A 
HETATM   26  C14 UNL     1       9.895  -4.331  34.354  1.00  0.00     0.046 A 
HETATM   27 CL1  UNL     1       8.624  -5.405  34.835  1.00  0.00    -0.083 Cl
HETATM   28  C15 UNL     1      10.658  -3.742  35.369  1.00  0.00     0.025 A 
HETATM   29  C16 UNL     1      11.689  -2.862  35.051  1.00  0.00     0.003 A 
HETATM   30  C17 UNL     1      11.958  -2.565  33.717  1.00  0.00     0.025 A 
HETATM   31  C18 UNL     1      11.198  -3.151  32.698  1.00  0.00     0.046 A 
HETATM   32 CL2  UNL     1      11.590  -2.720  31.067  1.00  0.00    -0.083 Cl
ENDBRANCH   7  25
TORSDOF 4
ENDMDL
MODEL 9
REMARK minimizedAffinity -8.54847527
REMARK  4 active torsions:
REMARK  status: ('A' for Active; 'I' for Inactive)
REMARK    1  A    between atoms: O1_2  and  C2_3 
REMARK    2  A    between atoms: C7_8  and  N1_9 
REMARK    3  A    between atoms: N1_9  and  C8_10 
REMARK    4  A    between atoms: C12_16  and  C13_17 
ROOT
HETATM    1  C8  UNL     1       6.898  -3.667  31.164  1.00  0.00     0.684 A 
HETATM    2  N2  UNL     1       5.739  -3.152  30.722  1.00  0.00    -0.201 N 
ATOM      3  H2  UNL     1       5.409  -2.240  31.039  1.00  0.00     0.183 HD
HETATM    4  C9  UNL     1       5.029  -3.887  29.845  1.00  0.00     0.121 A 
HETATM    5  C10 UNL     1       5.425  -5.120  29.387  1.00  0.00     0.026 A 
HETATM    6  C11 UNL     1       4.652  -5.907  28.442  1.00  0.00     0.034 A 
HETATM    7  C12 UNL     1       5.113  -7.104  28.046  1.00  0.00     0.047 A 
HETATM    8  C19 UNL     1       6.417  -7.636  28.571  1.00  0.00     0.260 A 
HETATM    9  O2  UNL     1       6.815  -8.737  28.190  1.00  0.00    -0.267 OA
HETATM   10  N3  UNL     1       7.107  -6.840  29.470  1.00  0.00    -0.303 N 
HETATM   11  C20 UNL     1       8.374  -7.292  30.016  1.00  0.00     0.161 C 
HETATM   12  C21 UNL     1       6.626  -5.573  29.893  1.00  0.00     0.137 A 
HETATM   13  N4  UNL     1       7.361  -4.861  30.772  1.00  0.00    -0.175 N 
ATOM     14  H4  UNL     1       8.246  -5.223  31.128  1.00  0.00     0.186 HD
ENDROOT
BRANCH   1  15
HETATM   15  N1  UNL     1       7.589  -2.871  32.063  1.00  0.00    -0.189 N 
HETATM   16  H8  UNL     1       6.951  -2.335  32.639  1.00  0.00     0.184 HD
BRANCH  15  17
HETATM   17  C7  UNL     1       8.944  -2.641  32.354  1.00  0.00     0.082 A 
HETATM   18  C2  UNL     1       9.584  -3.500  33.281  1.00  0.00     0.095 A 
HETATM   19  C3  UNL     1      10.933  -3.312  33.605  1.00  0.00     0.039 A 
HETATM   20  C4  UNL     1      11.657  -2.276  33.015  1.00  0.00     0.003 A 
HETATM   21  C5  UNL     1      11.038  -1.426  32.104  1.00  0.00     0.002 A 
HETATM   22  C6  UNL     1       9.692  -1.609  31.778  1.00  0.00     0.033 A 
BRANCH  18  23
HETATM   23  O1  UNL     1       8.781  -4.490  33.804  1.00  0.00    -0.354 OA
HETATM   24  C1  UNL     1       8.707  -4.580  35.221  1.00  0.00     0.210 C 
ENDBRANCH  18  23
ENDBRANCH  15  17
ENDBRANCH   1  15
BRANCH   7  25
HETATM   25  C13 UNL     1       4.335  -7.910  27.085  1.00  0.00     0.023 A 
HETATM   26  C14 UNL     1       2.996  -8.253  27.347  1.00  0.00     0.046 A 
HETATM   27 CL1  UNL     1       2.201  -7.784  28.813  1.00  0.00    -0.083 Cl
HETATM   28  C15 UNL     1       2.254  -9.004  26.426  1.00  0.00     0.025 A 
HETATM   29  C16 UNL     1       2.836  -9.421  25.232  1.00  0.00     0.003 A 
HETATM   30  C17 UNL     1       4.161  -9.091  24.956  1.00  0.00     0.025 A 
HETATM   31  C18 UNL     1       4.906  -8.341  25.873  1.00  0.00     0.046 A 
HETATM   32 CL2  UNL     1       6.549  -7.983  25.459  1.00  0.00    -0.083 Cl
ENDBRANCH   7  25
TORSDOF 4
ENDMDL
