MODEL 1
REMARK minimizedAffinity -10.3837376
REMARK CNNscore 0.271322042
REMARK CNNaffinity 7.47023153
REMARK  5 active torsions:
REMARK  status: ('A' for Active; 'I' for Inactive)
REMARK    1  A    between atoms: C5_5  and  C6_6 
REMARK    2  A    between atoms: C8_10  and  C9_11 
REMARK       I    between atoms: N3_21  and  C16_22 
REMARK    3  A    between atoms: C16_22  and  C17_24 
REMARK    4  A    between atoms: C17_24  and  C18_25 
REMARK    5  A    between atoms: N6_34  and  C23_35 
ROOT
HETATM    1  C6  UNL     1      -0.036   8.758  12.887  1.00  0.00     0.141 C 
HETATM    2  N1  UNL     1      -0.432   9.966  13.146  1.00  0.00    -0.336 N 
ATOM      3  H1  UNL     1      -0.301  10.709  12.461  1.00  0.00     0.168 HD
HETATM    4  C7  UNL     1      -1.032  10.233  14.354  1.00  0.00     0.104 C 
HETATM    5  C8  UNL     1      -1.569  11.458  14.520  1.00  0.00     0.046 C 
HETATM    6  C15 UNL     1      -1.074   9.190  15.435  1.00  0.00     0.287 C 
HETATM    7  O1  UNL     1      -1.382   9.387  16.605  1.00  0.00    -0.264 OA
HETATM    8  N2  UNL     1      -0.718   7.929  15.034  1.00  0.00    -0.254 N 
HETATM    9  N3  UNL     1      -0.151   7.666  13.767  1.00  0.00    -0.203 N 
HETATM   10  C16 UNL     1       0.082   6.322  13.424  1.00  0.00     0.251 C 
HETATM   11  O2  UNL     1       0.886   5.932  12.572  1.00  0.00    -0.271 OA
HETATM   12  H11 UNL     1      -0.551   7.281  15.799  1.00  0.00     0.191 HD
ENDROOT
BRANCH   1  13
HETATM   13  C5  UNL     1       0.523   8.531  11.534  1.00  0.00     0.010 A 
HETATM   14  C4  UNL     1      -0.320   8.384  10.432  1.00  0.00     0.016 A 
HETATM   15  C3  UNL     1       0.237   8.161   9.169  1.00  0.00     0.007 A 
HETATM   16  C2  UNL     1       1.627   8.046   9.013  1.00  0.00    -0.062 A 
HETATM   17  C1  UNL     1       2.232   7.826   7.658  1.00  0.00     0.048 C 
HETATM   18  C31 UNL     1       2.455   8.163  10.138  1.00  0.00     0.007 A 
HETATM   19  C30 UNL     1       1.907   8.398  11.399  1.00  0.00     0.016 A 
ENDBRANCH   1  13
BRANCH  10  20
HETATM   20  C17 UNL     1      -0.643   5.266  14.225  1.00  0.00     0.181 C 
BRANCH  20  21
HETATM   21  C18 UNL     1      -1.864   4.777  13.499  1.00  0.00     0.094 A 
HETATM   22  N4  UNL     1      -3.050   5.094  13.935  1.00  0.00    -0.329 N 
HETATM   23  C19 UNL     1      -4.070   4.623  13.158  1.00  0.00     0.146 A 
ATOM     24  H4  UNL     1      -3.203   5.645  14.780  1.00  0.00     0.168 HD
HETATM   25  C20 UNL     1      -3.930   3.840  12.031  1.00  0.00     0.101 A 
HETATM   26  N6  UNL     1      -5.445   4.828  13.316  1.00  0.00    -0.239 N 
HETATM   27  C21 UNL     1      -5.223   3.621  11.539  1.00  0.00     0.042 A 
HETATM   28  C29 UNL     1      -2.617   3.451  11.601  1.00  0.00     0.262 A 
HETATM   29  C22 UNL     1      -5.634   2.871  10.328  1.00  0.00     0.071 C 
HETATM   30  N5  UNL     1      -6.143   4.207  12.312  1.00  0.00    -0.295 N 
ATOM     31  H5  UNL     1      -7.154   4.196  12.182  1.00  0.00     0.187 HD
HETATM   32  O3  UNL     1      -2.382   2.712  10.653  1.00  0.00    -0.267 OA
HETATM   33  N7  UNL     1      -1.619   3.992  12.384  1.00  0.00    -0.312 N 
HETATM   34  H22 UNL     1      -0.677   3.735  12.116  1.00  0.00     0.170 HD
BRANCH  26  35
HETATM   35  C23 UNL     1      -6.157   5.559  14.319  1.00  0.00     0.058 A 
HETATM   36  C24 UNL     1      -7.241   5.007  15.018  1.00  0.00     0.031 A 
HETATM   37  C25 UNL     1      -7.900   5.753  16.003  1.00  0.00     0.002 A 
HETATM   38  C26 UNL     1      -7.483   7.049  16.301  1.00  0.00     0.000 A 
HETATM   39  C27 UNL     1      -6.418   7.615  15.600  1.00  0.00     0.002 A 
HETATM   40  C28 UNL     1      -5.758   6.876  14.613  1.00  0.00     0.031 A 
ENDBRANCH  26  35
ENDBRANCH  20  21
ENDBRANCH  10  20
BRANCH   5  41
HETATM   41  C9  UNL     1      -2.323  11.994  15.654  1.00  0.00    -0.034 A 
HETATM   42  C10 UNL     1      -3.700  11.767  15.739  1.00  0.00     0.013 A 
HETATM   43  C11 UNL     1      -4.422  12.217  16.848  1.00  0.00     0.024 A 
HETATM   44  C12 UNL     1      -3.765  12.884  17.881  1.00  0.00     0.034 A 
HETATM   45 CL1  UNL     1      -4.654  13.435  19.246  1.00  0.00    -0.084 Cl
HETATM   46  C13 UNL     1      -2.392  13.108  17.813  1.00  0.00     0.024 A 
HETATM   47  C14 UNL     1      -1.669  12.661  16.701  1.00  0.00     0.013 A 
ENDBRANCH   5  41
TORSDOF 5
ENDMDL
MODEL 2
REMARK minimizedAffinity -10.8010073
REMARK CNNscore 0.175398618
REMARK CNNaffinity 7.27851629
REMARK  5 active torsions:
REMARK  status: ('A' for Active; 'I' for Inactive)
REMARK    1  A    between atoms: C5_5  and  C6_6 
REMARK    2  A    between atoms: C8_10  and  C9_11 
REMARK       I    between atoms: N3_21  and  C16_22 
REMARK    3  A    between atoms: C16_22  and  C17_24 
REMARK    4  A    between atoms: C17_24  and  C18_25 
REMARK    5  A    between atoms: N6_34  and  C23_35 
ROOT
HETATM    1  C6  UNL     1      -0.454   8.755  13.025  1.00  0.00     0.141 C 
HETATM    2  N1  UNL     1       0.349   8.963  12.028  1.00  0.00    -0.336 N 
ATOM      3  H1  UNL     1       0.792   9.873  11.904  1.00  0.00     0.168 HD
HETATM    4  C7  UNL     1       0.597   7.943  11.139  1.00  0.00     0.104 C 
HETATM    5  C8  UNL     1       1.554   8.151  10.213  1.00  0.00     0.046 C 
HETATM    6  C15 UNL     1      -0.180   6.659  11.211  1.00  0.00     0.287 C 
HETATM    7  O1  UNL     1      -0.195   5.785  10.352  1.00  0.00    -0.264 OA
HETATM    8  N2  UNL     1      -0.930   6.501  12.347  1.00  0.00    -0.254 N 
HETATM    9  N3  UNL     1      -1.131   7.547  13.276  1.00  0.00    -0.203 N 
HETATM   10  C16 UNL     1      -1.834   7.242  14.455  1.00  0.00     0.251 C 
HETATM   11  O2  UNL     1      -2.420   8.064  15.168  1.00  0.00    -0.271 OA
HETATM   12  H11 UNL     1      -1.602   5.741  12.298  1.00  0.00     0.191 HD
ENDROOT
BRANCH   1  13
HETATM   13  C5  UNL     1      -0.606   9.872  13.985  1.00  0.00     0.010 A 
HETATM   14  C4  UNL     1       0.313  10.051  15.019  1.00  0.00     0.016 A 
HETATM   15  C3  UNL     1       0.139  11.110  15.915  1.00  0.00     0.007 A 
HETATM   16  C2  UNL     1      -0.970  11.962  15.804  1.00  0.00    -0.062 A 
HETATM   17  C1  UNL     1      -1.153  13.111  16.751  1.00  0.00     0.048 C 
HETATM   18  C31 UNL     1      -1.901  11.746  14.778  1.00  0.00     0.007 A 
HETATM   19  C30 UNL     1      -1.726  10.699  13.873  1.00  0.00     0.016 A 
ENDBRANCH   1  13
BRANCH  10  20
HETATM   20  C17 UNL     1      -1.962   5.785  14.832  1.00  0.00     0.181 C 
BRANCH  20  21
HETATM   21  C18 UNL     1      -3.066   5.119  14.061  1.00  0.00     0.094 A 
HETATM   22  N4  UNL     1      -4.287   5.563  14.160  1.00  0.00    -0.329 N 
HETATM   23  C19 UNL     1      -5.184   4.897  13.374  1.00  0.00     0.146 A 
ATOM     24  H4  UNL     1      -4.550   6.338  14.769  1.00  0.00     0.168 HD
HETATM   25  C20 UNL     1      -4.900   3.818  12.563  1.00  0.00     0.101 A 
HETATM   26  N6  UNL     1      -6.549   5.155  13.208  1.00  0.00    -0.239 N 
HETATM   27  C21 UNL     1      -6.098   3.479  11.922  1.00  0.00     0.042 A 
HETATM   28  C29 UNL     1      -3.560   3.306  12.513  1.00  0.00     0.262 A 
HETATM   29  C22 UNL     1      -6.339   2.413  10.920  1.00  0.00     0.071 C 
HETATM   30  N5  UNL     1      -7.100   4.276  12.311  1.00  0.00    -0.295 N 
ATOM     31  H5  UNL     1      -8.071   4.238  12.004  1.00  0.00     0.187 HD
HETATM   32  O3  UNL     1      -3.212   2.320  11.876  1.00  0.00    -0.267 OA
HETATM   33  N7  UNL     1      -2.681   4.041  13.281  1.00  0.00    -0.312 N 
HETATM   34  H22 UNL     1      -1.725   3.707  13.278  1.00  0.00     0.170 HD
BRANCH  26  35
HETATM   35  C23 UNL     1      -7.376   6.154  13.811  1.00  0.00     0.058 A 
HETATM   36  C24 UNL     1      -8.770   6.168  13.651  1.00  0.00     0.031 A 
HETATM   37  C25 UNL     1      -9.543   7.157  14.272  1.00  0.00     0.002 A 
HETATM   38  C26 UNL     1      -8.936   8.135  15.057  1.00  0.00     0.000 A 
HETATM   39  C27 UNL     1      -7.549   8.143  15.209  1.00  0.00     0.002 A 
HETATM   40  C28 UNL     1      -6.772   7.159  14.590  1.00  0.00     0.031 A 
ENDBRANCH  26  35
ENDBRANCH  20  21
ENDBRANCH  10  20
BRANCH   5  41
HETATM   41  C9  UNL     1       2.078   7.233   9.199  1.00  0.00    -0.034 A 
HETATM   42  C10 UNL     1       2.867   6.147   9.590  1.00  0.00     0.013 A 
HETATM   43  C11 UNL     1       3.320   5.227   8.640  1.00  0.00     0.024 A 
HETATM   44  C12 UNL     1       2.973   5.385   7.299  1.00  0.00     0.034 A 
HETATM   45 CL1  UNL     1       3.529   4.250   6.133  1.00  0.00    -0.084 Cl
HETATM   46  C13 UNL     1       2.179   6.456   6.899  1.00  0.00     0.024 A 
HETATM   47  C14 UNL     1       1.729   7.381   7.849  1.00  0.00     0.013 A 
ENDBRANCH   5  41
TORSDOF 5
ENDMDL
MODEL 3
REMARK minimizedAffinity -9.61028862
REMARK CNNscore 0.148110777
REMARK CNNaffinity 7.37139511
REMARK  5 active torsions:
REMARK  status: ('A' for Active; 'I' for Inactive)
REMARK    1  A    between atoms: C5_5  and  C6_6 
REMARK    2  A    between atoms: C8_10  and  C9_11 
REMARK       I    between atoms: N3_21  and  C16_22 
REMARK    3  A    between atoms: C16_22  and  C17_24 
REMARK    4  A    between atoms: C17_24  and  C18_25 
REMARK    5  A    between atoms: N6_34  and  C23_35 
ROOT
HETATM    1  C6  UNL     1       1.672   7.981  12.713  1.00  0.00     0.141 C 
HETATM    2  N1  UNL     1       2.247   9.066  13.132  1.00  0.00    -0.336 N 
ATOM      3  H1  UNL     1       2.708   9.692  12.473  1.00  0.00     0.168 HD
HETATM    4  C7  UNL     1       2.228   9.362  14.475  1.00  0.00     0.104 C 
HETATM    5  C8  UNL     1       2.696  10.569  14.847  1.00  0.00     0.046 C 
HETATM    6  C15 UNL     1       1.707   8.365  15.471  1.00  0.00     0.287 C 
HETATM    7  O1  UNL     1       1.843   8.434  16.687  1.00  0.00    -0.264 OA
HETATM    8  N2  UNL     1       1.040   7.299  14.926  1.00  0.00    -0.254 N 
HETATM    9  N3  UNL     1       1.027   7.040  13.537  1.00  0.00    -0.203 N 
HETATM   10  C16 UNL     1       0.227   5.978  13.081  1.00  0.00     0.251 C 
HETATM   11  O2  UNL     1       0.378   5.379  12.011  1.00  0.00    -0.271 OA
HETATM   12  H11 UNL     1       0.873   6.537  15.577  1.00  0.00     0.191 HD
ENDROOT
BRANCH   1  13
HETATM   13  C5  UNL     1       1.660   7.774  11.246  1.00  0.00     0.010 A 
HETATM   14  C4  UNL     1       2.718   7.120  10.612  1.00  0.00     0.016 A 
HETATM   15  C3  UNL     1       2.683   6.947   9.226  1.00  0.00     0.007 A 
HETATM   16  C2  UNL     1       1.617   7.459   8.470  1.00  0.00    -0.062 A 
HETATM   17  C1  UNL     1       1.565   7.260   6.984  1.00  0.00     0.048 C 
HETATM   18  C31 UNL     1       0.580   8.141   9.121  1.00  0.00     0.007 A 
HETATM   19  C30 UNL     1       0.603   8.307  10.506  1.00  0.00     0.016 A 
ENDBRANCH   1  13
BRANCH  10  20
HETATM   20  C17 UNL     1      -0.847   5.467  14.013  1.00  0.00     0.181 C 
BRANCH  20  21
HETATM   21  C18 UNL     1      -2.013   4.913  13.246  1.00  0.00     0.094 A 
HETATM   22  N4  UNL     1      -3.230   5.159  13.644  1.00  0.00    -0.329 N 
HETATM   23  C19 UNL     1      -4.195   4.634  12.833  1.00  0.00     0.146 A 
ATOM     24  H4  UNL     1      -3.441   5.694  14.486  1.00  0.00     0.168 HD
HETATM   25  C20 UNL     1      -3.974   3.868  11.707  1.00  0.00     0.101 A 
HETATM   26  N6  UNL     1      -5.584   4.760  12.947  1.00  0.00    -0.239 N 
HETATM   27  C21 UNL     1      -5.235   3.578  11.173  1.00  0.00     0.042 A 
HETATM   28  C29 UNL     1      -2.627   3.559  11.318  1.00  0.00     0.262 A 
HETATM   29  C22 UNL     1      -5.563   2.814   9.945  1.00  0.00     0.071 C 
HETATM   30  N5  UNL     1      -6.212   4.106  11.918  1.00  0.00    -0.295 N 
ATOM     31  H5  UNL     1      -7.216   4.037  11.755  1.00  0.00     0.187 HD
HETATM   32  O3  UNL     1      -2.320   2.840  10.375  1.00  0.00    -0.267 OA
HETATM   33  N7  UNL     1      -1.688   4.151  12.135  1.00  0.00    -0.312 N 
HETATM   34  H22 UNL     1      -0.724   3.950  11.897  1.00  0.00     0.170 HD
BRANCH  26  35
HETATM   35  C23 UNL     1      -6.368   5.441  13.930  1.00  0.00     0.058 A 
HETATM   36  C24 UNL     1      -7.569   6.091  13.609  1.00  0.00     0.031 A 
HETATM   37  C25 UNL     1      -8.313   6.734  14.606  1.00  0.00     0.002 A 
HETATM   38  C26 UNL     1      -7.870   6.732  15.927  1.00  0.00     0.000 A 
HETATM   39  C27 UNL     1      -6.667   6.105  16.255  1.00  0.00     0.002 A 
HETATM   40  C28 UNL     1      -5.919   5.463  15.263  1.00  0.00     0.031 A 
ENDBRANCH  26  35
ENDBRANCH  20  21
ENDBRANCH  10  20
BRANCH   5  41
HETATM   41  C9  UNL     1       2.733  11.180  16.178  1.00  0.00    -0.034 A 
HETATM   42  C10 UNL     1       1.582  11.783  16.694  1.00  0.00     0.013 A 
HETATM   43  C11 UNL     1       1.584  12.312  17.988  1.00  0.00     0.024 A 
HETATM   44  C12 UNL     1       2.733  12.227  18.772  1.00  0.00     0.034 A 
HETATM   45 CL1  UNL     1       2.732  12.876  20.364  1.00  0.00    -0.084 Cl
HETATM   46  C13 UNL     1       3.883  11.620  18.273  1.00  0.00     0.024 A 
HETATM   47  C14 UNL     1       3.883  11.093  16.976  1.00  0.00     0.013 A 
ENDBRANCH   5  41
TORSDOF 5
ENDMDL
MODEL 4
REMARK minimizedAffinity -10.992918
REMARK CNNscore 0.0920840353
REMARK CNNaffinity 7.08173132
REMARK  5 active torsions:
REMARK  status: ('A' for Active; 'I' for Inactive)
REMARK    1  A    between atoms: C5_5  and  C6_6 
REMARK    2  A    between atoms: C8_10  and  C9_11 
REMARK       I    between atoms: N3_21  and  C16_22 
REMARK    3  A    between atoms: C16_22  and  C17_24 
REMARK    4  A    between atoms: C17_24  and  C18_25 
REMARK    5  A    between atoms: N6_34  and  C23_35 
ROOT
HETATM    1  C6  UNL     1       2.899   7.439  11.787  1.00  0.00     0.141 C 
HETATM    2  N1  UNL     1       3.976   8.105  12.069  1.00  0.00    -0.336 N 
ATOM      3  H1  UNL     1       4.567   8.469  11.322  1.00  0.00     0.168 HD
HETATM    4  C7  UNL     1       4.312   8.315  13.386  1.00  0.00     0.104 C 
HETATM    5  C8  UNL     1       5.346   9.142  13.635  1.00  0.00     0.046 C 
HETATM    6  C15 UNL     1       3.547   7.638  14.488  1.00  0.00     0.287 C 
HETATM    7  O1  UNL     1       3.890   7.581  15.664  1.00  0.00    -0.264 OA
HETATM    8  N2  UNL     1       2.380   7.037  14.096  1.00  0.00    -0.254 N 
HETATM    9  N3  UNL     1       2.026   6.877  12.738  1.00  0.00    -0.203 N 
HETATM   10  C16 UNL     1       0.759   6.337  12.454  1.00  0.00     0.251 C 
HETATM   11  O2  UNL     1       0.439   5.786  11.396  1.00  0.00    -0.271 OA
HETATM   12  H11 UNL     1       1.978   6.416  14.792  1.00  0.00     0.191 HD
ENDROOT
BRANCH   1  13
HETATM   13  C5  UNL     1       2.560   7.326  10.350  1.00  0.00     0.010 A 
HETATM   14  C4  UNL     1       3.113   6.314   9.566  1.00  0.00     0.016 A 
HETATM   15  C3  UNL     1       2.781   6.238   8.210  1.00  0.00     0.007 A 
HETATM   16  C2  UNL     1       1.931   7.193   7.630  1.00  0.00    -0.062 A 
HETATM   17  C1  UNL     1       1.555   7.106   6.180  1.00  0.00     0.048 C 
HETATM   18  C31 UNL     1       1.411   8.222   8.428  1.00  0.00     0.007 A 
HETATM   19  C30 UNL     1       1.729   8.296   9.784  1.00  0.00     0.016 A 
ENDBRANCH   1  13
BRANCH  10  20
HETATM   20  C17 UNL     1      -0.265   6.352  13.564  1.00  0.00     0.181 C 
BRANCH  20  21
HETATM   21  C18 UNL     1      -1.463   5.518  13.208  1.00  0.00     0.094 A 
HETATM   22  N4  UNL     1      -2.644   5.857  13.641  1.00  0.00    -0.329 N 
HETATM   23  C19 UNL     1      -3.649   5.040  13.208  1.00  0.00     0.146 A 
ATOM     24  H4  UNL     1      -2.803   6.660  14.249  1.00  0.00     0.168 HD
HETATM   25  C20 UNL     1      -3.494   3.918  12.421  1.00  0.00     0.101 A 
HETATM   26  N6  UNL     1      -5.023   5.157  13.445  1.00  0.00    -0.239 N 
HETATM   27  C21 UNL     1      -4.780   3.412  12.195  1.00  0.00     0.042 A 
HETATM   28  C29 UNL     1      -2.177   3.526  12.003  1.00  0.00     0.262 A 
HETATM   29  C22 UNL     1      -5.180   2.237  11.384  1.00  0.00     0.071 C 
HETATM   30  N5  UNL     1      -5.708   4.150  12.815  1.00  0.00    -0.295 N 
ATOM     31  H5  UNL     1      -6.716   3.995  12.819  1.00  0.00     0.187 HD
HETATM   32  O3  UNL     1      -1.921   2.519  11.356  1.00  0.00    -0.267 OA
HETATM   33  N7  UNL     1      -1.203   4.408  12.420  1.00  0.00    -0.312 N 
HETATM   34  H22 UNL     1      -0.258   4.162  12.151  1.00  0.00     0.170 HD
BRANCH  26  35
HETATM   35  C23 UNL     1      -5.746   6.131  14.203  1.00  0.00     0.058 A 
HETATM   36  C24 UNL     1      -5.704   7.499  13.896  1.00  0.00     0.031 A 
HETATM   37  C25 UNL     1      -6.440   8.417  14.656  1.00  0.00     0.002 A 
HETATM   38  C26 UNL     1      -7.223   7.980  15.723  1.00  0.00     0.000 A 
HETATM   39  C27 UNL     1      -7.258   6.624  16.049  1.00  0.00     0.002 A 
HETATM   40  C28 UNL     1      -6.523   5.703  15.295  1.00  0.00     0.031 A 
ENDBRANCH  26  35
ENDBRANCH  20  21
ENDBRANCH  10  20
BRANCH   5  41
HETATM   41  C9  UNL     1       5.877   9.604  14.920  1.00  0.00    -0.034 A 
HETATM   42  C10 UNL     1       7.028   9.011  15.446  1.00  0.00     0.013 A 
HETATM   43  C11 UNL     1       7.583   9.484  16.639  1.00  0.00     0.024 A 
HETATM   44  C12 UNL     1       6.993  10.560  17.300  1.00  0.00     0.034 A 
HETATM   45 CL1  UNL     1       7.679  11.143  18.765  1.00  0.00    -0.084 Cl
HETATM   46  C13 UNL     1       5.852  11.166  16.781  1.00  0.00     0.024 A 
HETATM   47  C14 UNL     1       5.294  10.690  15.589  1.00  0.00     0.013 A 
ENDBRANCH   5  41
TORSDOF 5
ENDMDL
MODEL 5
REMARK minimizedAffinity -8.66221619
REMARK CNNscore 0.0657300353
REMARK CNNaffinity 6.0584569
REMARK  5 active torsions:
REMARK  status: ('A' for Active; 'I' for Inactive)
REMARK    1  A    between atoms: C5_5  and  C6_6 
REMARK    2  A    between atoms: C8_10  and  C9_11 
REMARK       I    between atoms: N3_21  and  C16_22 
REMARK    3  A    between atoms: C16_22  and  C17_24 
REMARK    4  A    between atoms: C17_24  and  C18_25 
REMARK    5  A    between atoms: N6_34  and  C23_35 
ROOT
HETATM    1  C6  UNL     1       1.920  14.640  27.965  1.00  0.00     0.141 C 
HETATM    2  N1  UNL     1       2.661  14.673  29.029  1.00  0.00    -0.336 N 
ATOM      3  H1  UNL     1       2.546  13.971  29.759  1.00  0.00     0.168 HD
HETATM    4  C7  UNL     1       3.603  15.666  29.162  1.00  0.00     0.104 C 
HETATM    5  C8  UNL     1       4.455  15.573  30.202  1.00  0.00     0.046 C 
HETATM    6  C15 UNL     1       3.663  16.801  28.179  1.00  0.00     0.287 C 
HETATM    7  O1  UNL     1       4.306  17.835  28.322  1.00  0.00    -0.264 OA
HETATM    8  N2  UNL     1       2.910  16.626  27.048  1.00  0.00    -0.254 N 
HETATM    9  N3  UNL     1       1.983  15.568  26.909  1.00  0.00    -0.203 N 
HETATM   10  C16 UNL     1       1.339  15.428  25.667  1.00  0.00     0.251 C 
HETATM   11  O2  UNL     1       0.268  14.841  25.482  1.00  0.00    -0.271 OA
HETATM   12  H11 UNL     1       2.792  17.468  26.493  1.00  0.00     0.191 HD
ENDROOT
BRANCH   1  13
HETATM   13  C5  UNL     1       0.987  13.494  27.855  1.00  0.00     0.010 A 
HETATM   14  C4  UNL     1       1.390  12.305  27.245  1.00  0.00     0.016 A 
HETATM   15  C3  UNL     1       0.485  11.245  27.148  1.00  0.00     0.007 A 
HETATM   16  C2  UNL     1      -0.829  11.384  27.621  1.00  0.00    -0.062 A 
HETATM   17  C1  UNL     1      -1.800  10.243  27.536  1.00  0.00     0.048 C 
HETATM   18  C31 UNL     1      -1.225  12.598  28.200  1.00  0.00     0.007 A 
HETATM   19  C30 UNL     1      -0.322  13.655  28.311  1.00  0.00     0.016 A 
ENDBRANCH   1  13
BRANCH  10  20
HETATM   20  C17 UNL     1       1.958  16.127  24.480  1.00  0.00     0.181 C 
BRANCH  20  21
HETATM   21  C18 UNL     1       3.202  15.420  24.021  1.00  0.00     0.094 A 
HETATM   22  N4  UNL     1       3.144  14.168  23.665  1.00  0.00    -0.329 N 
HETATM   23  C19 UNL     1       4.335  13.661  23.228  1.00  0.00     0.146 A 
ATOM     24  H4  UNL     1       2.287  13.616  23.709  1.00  0.00     0.168 HD
HETATM   25  C20 UNL     1       5.534  14.341  23.184  1.00  0.00     0.101 A 
HETATM   26  N6  UNL     1       4.600  12.381  22.729  1.00  0.00    -0.239 N 
HETATM   27  C21 UNL     1       6.472  13.455  22.641  1.00  0.00     0.042 A 
HETATM   28  C29 UNL     1       5.589  15.703  23.636  1.00  0.00     0.262 A 
HETATM   29  C22 UNL     1       7.905  13.695  22.346  1.00  0.00     0.071 C 
HETATM   30  N5  UNL     1       5.919  12.267  22.370  1.00  0.00    -0.295 N 
ATOM     31  H5  UNL     1       6.381  11.448  21.978  1.00  0.00     0.187 HD
HETATM   32  O3  UNL     1       6.609  16.378  23.697  1.00  0.00    -0.267 OA
HETATM   33  N7  UNL     1       4.356  16.186  24.019  1.00  0.00    -0.312 N 
HETATM   34  H22 UNL     1       4.354  17.143  24.353  1.00  0.00     0.170 HD
BRANCH  26  35
HETATM   35  C23 UNL     1       3.726  11.262  22.555  1.00  0.00     0.058 A 
HETATM   36  C24 UNL     1       3.718  10.174  23.441  1.00  0.00     0.031 A 
HETATM   37  C25 UNL     1       2.835   9.106  23.241  1.00  0.00     0.002 A 
HETATM   38  C26 UNL     1       1.953   9.114  22.162  1.00  0.00     0.000 A 
HETATM   39  C27 UNL     1       1.964  10.182  21.264  1.00  0.00     0.002 A 
HETATM   40  C28 UNL     1       2.845  11.251  21.458  1.00  0.00     0.031 A 
ENDBRANCH  26  35
ENDBRANCH  20  21
ENDBRANCH  10  20
BRANCH   5  41
HETATM   41  C9  UNL     1       5.590  16.430  30.551  1.00  0.00    -0.034 A 
HETATM   42  C10 UNL     1       5.500  17.282  31.656  1.00  0.00     0.013 A 
HETATM   43  C11 UNL     1       6.598  18.058  32.039  1.00  0.00     0.024 A 
HETATM   44  C12 UNL     1       7.792  17.972  31.326  1.00  0.00     0.034 A 
HETATM   45 CL1  UNL     1       9.142  18.925  31.800  1.00  0.00    -0.084 Cl
HETATM   46  C13 UNL     1       7.898  17.120  30.229  1.00  0.00     0.024 A 
HETATM   47  C14 UNL     1       6.797  16.346  29.842  1.00  0.00     0.013 A 
ENDBRANCH   5  41
TORSDOF 5
ENDMDL
MODEL 6
REMARK minimizedAffinity -10.0433865
REMARK CNNscore 0.0556835979
REMARK CNNaffinity 6.8837142
REMARK  5 active torsions:
REMARK  status: ('A' for Active; 'I' for Inactive)
REMARK    1  A    between atoms: C5_5  and  C6_6 
REMARK    2  A    between atoms: C8_10  and  C9_11 
REMARK       I    between atoms: N3_21  and  C16_22 
REMARK    3  A    between atoms: C16_22  and  C17_24 
REMARK    4  A    between atoms: C17_24  and  C18_25 
REMARK    5  A    between atoms: N6_34  and  C23_35 
ROOT
HETATM    1  C6  UNL     1      -1.020   9.601  13.792  1.00  0.00     0.141 C 
HETATM    2  N1  UNL     1      -1.183  10.888  13.794  1.00  0.00    -0.336 N 
ATOM      3  H1  UNL     1      -0.759  11.461  13.065  1.00  0.00     0.168 HD
HETATM    4  C7  UNL     1      -1.933  11.470  14.788  1.00  0.00     0.104 C 
HETATM    5  C8  UNL     1      -2.208  12.783  14.665  1.00  0.00     0.046 C 
HETATM    6  C15 UNL     1      -2.414  10.659  15.958  1.00  0.00     0.287 C 
HETATM    7  O1  UNL     1      -2.894  11.112  16.991  1.00  0.00    -0.264 OA
HETATM    8  N2  UNL     1      -2.274   9.303  15.818  1.00  0.00    -0.254 N 
HETATM    9  N3  UNL     1      -1.542   8.721  14.759  1.00  0.00    -0.203 N 
HETATM   10  C16 UNL     1      -1.549   7.318  14.657  1.00  0.00     0.251 C 
HETATM   11  O2  UNL     1      -0.700   6.642  14.069  1.00  0.00    -0.271 OA
HETATM   12  H11 UNL     1      -2.406   8.781  16.678  1.00  0.00     0.191 HD
ENDROOT
BRANCH   1  13
HETATM   13  C5  UNL     1      -0.271   9.039  12.644  1.00  0.00     0.010 A 
HETATM   14  C4  UNL     1       1.106   8.831  12.727  1.00  0.00     0.016 A 
HETATM   15  C3  UNL     1       1.787   8.308  11.623  1.00  0.00     0.007 A 
HETATM   16  C2  UNL     1       1.103   8.031  10.430  1.00  0.00    -0.062 A 
HETATM   17  C1  UNL     1       1.825   7.452   9.248  1.00  0.00     0.048 C 
HETATM   18  C31 UNL     1      -0.275   8.279  10.355  1.00  0.00     0.007 A 
HETATM   19  C30 UNL     1      -0.962   8.789  11.457  1.00  0.00     0.016 A 
ENDBRANCH   1  13
BRANCH  10  20
HETATM   20  C17 UNL     1      -2.631   6.574  15.403  1.00  0.00     0.181 C 
BRANCH  20  21
HETATM   21  C18 UNL     1      -3.451   5.729  14.470  1.00  0.00     0.094 A 
HETATM   22  N4  UNL     1      -4.749   5.848  14.455  1.00  0.00    -0.329 N 
HETATM   23  C19 UNL     1      -5.367   5.055  13.531  1.00  0.00     0.146 A 
ATOM     24  H4  UNL     1      -5.257   6.477  15.078  1.00  0.00     0.168 HD
HETATM   25  C20 UNL     1      -4.743   4.156  12.692  1.00  0.00     0.101 A 
HETATM   26  N6  UNL     1      -6.731   4.984  13.225  1.00  0.00    -0.239 N 
HETATM   27  C21 UNL     1      -5.748   3.593  11.897  1.00  0.00     0.042 A 
HETATM   28  C29 UNL     1      -3.318   3.996  12.765  1.00  0.00     0.262 A 
HETATM   29  C22 UNL     1      -5.613   2.594  10.809  1.00  0.00     0.071 C 
HETATM   30  N5  UNL     1      -6.952   4.081  12.217  1.00  0.00    -0.295 N 
ATOM     31  H5  UNL     1      -7.848   3.833  11.798  1.00  0.00     0.187 HD
HETATM   32  O3  UNL     1      -2.671   3.188  12.111  1.00  0.00    -0.267 OA
HETATM   33  N7  UNL     1      -2.733   4.853  13.673  1.00  0.00    -0.312 N 
HETATM   34  H22 UNL     1      -1.727   4.765  13.760  1.00  0.00     0.170 HD
BRANCH  26  35
HETATM   35  C23 UNL     1      -7.839   5.690  13.791  1.00  0.00     0.058 A 
HETATM   36  C24 UNL     1      -7.863   6.090  15.135  1.00  0.00     0.031 A 
HETATM   37  C25 UNL     1      -8.962   6.794  15.643  1.00  0.00     0.002 A 
HETATM   38  C26 UNL     1     -10.041   7.106  14.818  1.00  0.00     0.000 A 
HETATM   39  C27 UNL     1     -10.036   6.697  13.484  1.00  0.00     0.002 A 
HETATM   40  C28 UNL     1      -8.942   5.993  12.972  1.00  0.00     0.031 A 
ENDBRANCH  26  35
ENDBRANCH  20  21
ENDBRANCH  10  20
BRANCH   5  41
HETATM   41  C9  UNL     1      -3.033  13.642  15.518  1.00  0.00    -0.034 A 
HETATM   42  C10 UNL     1      -2.423  14.445  16.486  1.00  0.00     0.013 A 
HETATM   43  C11 UNL     1      -3.190  15.318  17.264  1.00  0.00     0.024 A 
HETATM   44  C12 UNL     1      -4.568  15.398  17.064  1.00  0.00     0.034 A 
HETATM   45 CL1  UNL     1      -5.509  16.474  18.018  1.00  0.00    -0.084 Cl
HETATM   46  C13 UNL     1      -5.185  14.611  16.095  1.00  0.00     0.024 A 
HETATM   47  C14 UNL     1      -4.418  13.734  15.319  1.00  0.00     0.013 A 
ENDBRANCH   5  41
TORSDOF 5
ENDMDL
MODEL 7
REMARK minimizedAffinity -10.0713377
REMARK CNNscore 0.0392269753
REMARK CNNaffinity 5.65746498
REMARK  5 active torsions:
REMARK  status: ('A' for Active; 'I' for Inactive)
REMARK    1  A    between atoms: C5_5  and  C6_6 
REMARK    2  A    between atoms: C8_10  and  C9_11 
REMARK       I    between atoms: N3_21  and  C16_22 
REMARK    3  A    between atoms: C16_22  and  C17_24 
REMARK    4  A    between atoms: C17_24  and  C18_25 
REMARK    5  A    between atoms: N6_34  and  C23_35 
ROOT
HETATM    1  C6  UNL     1      -9.874   8.333  14.756  1.00  0.00     0.141 C 
HETATM    2  N1  UNL     1      -8.755   7.682  14.841  1.00  0.00    -0.336 N 
ATOM      3  H1  UNL     1      -8.055   7.950  15.533  1.00  0.00     0.168 HD
HETATM    4  C7  UNL     1      -8.523   6.627  13.991  1.00  0.00     0.104 C 
HETATM    5  C8  UNL     1      -7.423   5.882  14.216  1.00  0.00     0.046 C 
HETATM    6  C15 UNL     1      -9.468   6.334  12.859  1.00  0.00     0.287 C 
HETATM    7  O1  UNL     1      -9.249   5.570  11.926  1.00  0.00    -0.264 OA
HETATM    8  N2  UNL     1     -10.658   7.012  12.911  1.00  0.00    -0.254 N 
HETATM    9  N3  UNL     1     -10.897   8.060  13.828  1.00  0.00    -0.203 N 
HETATM   10  C16 UNL     1     -12.188   8.615  13.860  1.00  0.00     0.251 C 
HETATM   11  O2  UNL     1     -12.471   9.738  14.290  1.00  0.00    -0.271 OA
HETATM   12  H11 UNL     1     -11.198   6.969  12.052  1.00  0.00     0.191 HD
ENDROOT
BRANCH   1  13
HETATM   13  C5  UNL     1     -10.086   9.401  15.760  1.00  0.00     0.010 A 
HETATM   14  C4  UNL     1     -10.727   9.124  16.968  1.00  0.00     0.016 A 
HETATM   15  C3  UNL     1     -10.921  10.154  17.893  1.00  0.00     0.007 A 
HETATM   16  C2  UNL     1     -10.513  11.464  17.596  1.00  0.00    -0.062 A 
HETATM   17  C1  UNL     1     -10.701  12.570  18.592  1.00  0.00     0.048 C 
HETATM   18  C31 UNL     1      -9.901  11.728  16.363  1.00  0.00     0.007 A 
HETATM   19  C30 UNL     1      -9.693  10.702  15.442  1.00  0.00     0.016 A 
ENDBRANCH   1  13
BRANCH  10  20
HETATM   20  C17 UNL     1     -13.304   7.814  13.234  1.00  0.00     0.181 C 
BRANCH  20  21
HETATM   21  C18 UNL     1     -14.253   7.297  14.278  1.00  0.00     0.094 A 
HETATM   22  N4  UNL     1     -14.786   6.115  14.145  1.00  0.00    -0.329 N 
HETATM   23  C19 UNL     1     -15.593   5.751  15.185  1.00  0.00     0.146 A 
ATOM     24  H4  UNL     1     -14.616   5.517  13.337  1.00  0.00     0.168 HD
HETATM   25  C20 UNL     1     -15.896   6.530  16.282  1.00  0.00     0.101 A 
HETATM   26  N6  UNL     1     -16.267   4.540  15.375  1.00  0.00    -0.239 N 
HETATM   27  C21 UNL     1     -16.722   5.753  17.103  1.00  0.00     0.042 A 
HETATM   28  C29 UNL     1     -15.345   7.853  16.382  1.00  0.00     0.262 A 
HETATM   29  C22 UNL     1     -17.303   6.102  18.422  1.00  0.00     0.071 C 
HETATM   30  N5  UNL     1     -16.957   4.554  16.560  1.00  0.00    -0.295 N 
ATOM     31  H5  UNL     1     -17.530   3.805  16.947  1.00  0.00     0.187 HD
HETATM   32  O3  UNL     1     -15.594   8.648  17.279  1.00  0.00    -0.267 OA
HETATM   33  N7  UNL     1     -14.498   8.156  15.337  1.00  0.00    -0.312 N 
HETATM   34  H22 UNL     1     -14.094   9.084  15.367  1.00  0.00     0.170 HD
BRANCH  26  35
HETATM   35  C23 UNL     1     -16.315   3.374  14.547  1.00  0.00     0.058 A 
HETATM   36  C24 UNL     1     -17.268   3.217  13.531  1.00  0.00     0.031 A 
HETATM   37  C25 UNL     1     -17.269   2.066  12.734  1.00  0.00     0.002 A 
HETATM   38  C26 UNL     1     -16.321   1.065  12.942  1.00  0.00     0.000 A 
HETATM   39  C27 UNL     1     -15.380   1.201  13.963  1.00  0.00     0.002 A 
HETATM   40  C28 UNL     1     -15.376   2.349  14.762  1.00  0.00     0.031 A 
ENDBRANCH  26  35
ENDBRANCH  20  21
ENDBRANCH  10  20
BRANCH   5  41
HETATM   41  C9  UNL     1      -6.965   4.672  13.529  1.00  0.00    -0.034 A 
HETATM   42  C10 UNL     1      -7.724   3.501  13.611  1.00  0.00     0.013 A 
HETATM   43  C11 UNL     1      -7.334   2.357  12.908  1.00  0.00     0.024 A 
HETATM   44  C12 UNL     1      -6.190   2.387  12.112  1.00  0.00     0.034 A 
HETATM   45 CL1  UNL     1      -5.713   0.981  11.247  1.00  0.00    -0.084 Cl
HETATM   46  C13 UNL     1      -5.431   3.551  12.014  1.00  0.00     0.024 A 
HETATM   47  C14 UNL     1      -5.819   4.695  12.721  1.00  0.00     0.013 A 
ENDBRANCH   5  41
TORSDOF 5
ENDMDL
MODEL 8
REMARK minimizedAffinity -9.99477959
REMARK CNNscore 0.0310765002
REMARK CNNaffinity 6.64379168
REMARK  5 active torsions:
REMARK  status: ('A' for Active; 'I' for Inactive)
REMARK    1  A    between atoms: C5_5  and  C6_6 
REMARK    2  A    between atoms: C8_10  and  C9_11 
REMARK       I    between atoms: N3_21  and  C16_22 
REMARK    3  A    between atoms: C16_22  and  C17_24 
REMARK    4  A    between atoms: C17_24  and  C18_25 
REMARK    5  A    between atoms: N6_34  and  C23_35 
ROOT
HETATM    1  C6  UNL     1       1.148   8.610  14.001  1.00  0.00     0.141 C 
HETATM    2  N1  UNL     1       2.229   9.174  14.443  1.00  0.00    -0.336 N 
ATOM      3  H1  UNL     1       2.174   9.926  15.130  1.00  0.00     0.168 HD
HETATM    4  C7  UNL     1       3.450   8.747  13.977  1.00  0.00     0.104 C 
HETATM    5  C8  UNL     1       4.549   9.247  14.575  1.00  0.00     0.046 C 
HETATM    6  C15 UNL     1       3.535   7.765  12.842  1.00  0.00     0.287 C 
HETATM    7  O1  UNL     1       4.550   7.488  12.213  1.00  0.00    -0.264 OA
HETATM    8  N2  UNL     1       2.350   7.161  12.511  1.00  0.00    -0.254 N 
HETATM    9  N3  UNL     1       1.110   7.580  13.042  1.00  0.00    -0.203 N 
HETATM   10  C16 UNL     1      -0.029   6.824  12.710  1.00  0.00     0.251 C 
HETATM   11  O2  UNL     1      -1.194   7.233  12.752  1.00  0.00    -0.271 OA
HETATM   12  H11 UNL     1       2.371   6.663  11.627  1.00  0.00     0.191 HD
ENDROOT
BRANCH   1  13
HETATM   13  C5  UNL     1      -0.123   9.065  14.612  1.00  0.00     0.010 A 
HETATM   14  C4  UNL     1      -0.862  10.095  14.030  1.00  0.00     0.016 A 
HETATM   15  C3  UNL     1      -2.053  10.509  14.635  1.00  0.00     0.007 A 
HETATM   16  C2  UNL     1      -2.483   9.926  15.836  1.00  0.00    -0.062 A 
HETATM   17  C1  UNL     1      -3.769  10.353  16.480  1.00  0.00     0.048 C 
HETATM   18  C31 UNL     1      -1.708   8.915  16.423  1.00  0.00     0.007 A 
HETATM   19  C30 UNL     1      -0.526   8.489  15.819  1.00  0.00     0.016 A 
ENDBRANCH   1  13
BRANCH  10  20
HETATM   20  C17 UNL     1       0.196   5.431  12.173  1.00  0.00     0.181 C 
BRANCH  20  21
HETATM   21  C18 UNL     1      -1.090   4.656  12.117  1.00  0.00     0.094 A 
HETATM   22  N4  UNL     1      -2.186   5.180  12.589  1.00  0.00    -0.329 N 
HETATM   23  C19 UNL     1      -3.289   4.389  12.434  1.00  0.00     0.146 A 
ATOM     24  H4  UNL     1      -2.217   6.097  13.034  1.00  0.00     0.168 HD
HETATM   25  C20 UNL     1      -3.305   3.126  11.881  1.00  0.00     0.101 A 
HETATM   26  N6  UNL     1      -4.614   4.675  12.781  1.00  0.00    -0.239 N 
HETATM   27  C21 UNL     1      -4.640   2.706  11.893  1.00  0.00     0.042 A 
HETATM   28  C29 UNL     1      -2.077   2.542  11.419  1.00  0.00     0.262 A 
HETATM   29  C22 UNL     1      -5.213   1.437  11.382  1.00  0.00     0.071 C 
HETATM   30  N5  UNL     1      -5.436   3.631  12.441  1.00  0.00    -0.295 N 
ATOM     31  H5  UNL     1      -6.445   3.572  12.578  1.00  0.00     0.187 HD
HETATM   32  O3  UNL     1      -1.968   1.410  10.968  1.00  0.00    -0.267 OA
HETATM   33  N7  UNL     1      -1.002   3.396  11.548  1.00  0.00    -0.312 N 
HETATM   34  H22 UNL     1      -0.114   3.018  11.240  1.00  0.00     0.170 HD
BRANCH  26  35
HETATM   35  C23 UNL     1      -5.174   5.839  13.394  1.00  0.00     0.058 A 
HETATM   36  C24 UNL     1      -4.644   7.122  13.189  1.00  0.00     0.031 A 
HETATM   37  C25 UNL     1      -5.234   8.236  13.798  1.00  0.00     0.002 A 
HETATM   38  C26 UNL     1      -6.354   8.083  14.612  1.00  0.00     0.000 A 
HETATM   39  C27 UNL     1      -6.879   6.811  14.840  1.00  0.00     0.002 A 
HETATM   40  C28 UNL     1      -6.293   5.693  14.236  1.00  0.00     0.031 A 
ENDBRANCH  26  35
ENDBRANCH  20  21
ENDBRANCH  10  20
BRANCH   5  41
HETATM   41  C9  UNL     1       5.959   8.926  14.343  1.00  0.00    -0.034 A 
HETATM   42  C10 UNL     1       6.734   9.760  13.532  1.00  0.00     0.013 A 
HETATM   43  C11 UNL     1       8.097   9.503  13.354  1.00  0.00     0.024 A 
HETATM   44  C12 UNL     1       8.688   8.417  13.998  1.00  0.00     0.034 A 
HETATM   45 CL1  UNL     1      10.365   8.104  13.781  1.00  0.00    -0.084 Cl
HETATM   46  C13 UNL     1       7.929   7.585  14.817  1.00  0.00     0.024 A 
HETATM   47  C14 UNL     1       6.564   7.840  14.992  1.00  0.00     0.013 A 
ENDBRANCH   5  41
TORSDOF 5
ENDMDL
MODEL 9
REMARK minimizedAffinity -9.21846485
REMARK CNNscore 0.0306651518
REMARK CNNaffinity 6.07308054
REMARK  5 active torsions:
REMARK  status: ('A' for Active; 'I' for Inactive)
REMARK    1  A    between atoms: C5_5  and  C6_6 
REMARK    2  A    between atoms: C8_10  and  C9_11 
REMARK       I    between atoms: N3_21  and  C16_22 
REMARK    3  A    between atoms: C16_22  and  C17_24 
REMARK    4  A    between atoms: C17_24  and  C18_25 
REMARK    5  A    between atoms: N6_34  and  C23_35 
ROOT
HETATM    1  C6  UNL     1     -10.736   7.078  14.378  1.00  0.00     0.141 C 
HETATM    2  N1  UNL     1      -9.929   6.344  13.677  1.00  0.00    -0.336 N 
ATOM      3  H1  UNL     1     -10.283   5.787  12.899  1.00  0.00     0.168 HD
HETATM    4  C7  UNL     1      -8.590   6.323  13.993  1.00  0.00     0.104 C 
HETATM    5  C8  UNL     1      -7.766   5.675  13.147  1.00  0.00     0.046 C 
HETATM    6  C15 UNL     1      -8.088   6.999  15.238  1.00  0.00     0.287 C 
HETATM    7  O1  UNL     1      -6.971   6.860  15.723  1.00  0.00    -0.264 OA
HETATM    8  N2  UNL     1      -8.995   7.820  15.855  1.00  0.00    -0.254 N 
HETATM    9  N3  UNL     1     -10.357   7.866  15.481  1.00  0.00    -0.203 N 
HETATM   10  C16 UNL     1     -11.174   8.819  16.115  1.00  0.00     0.251 C 
HETATM   11  O2  UNL     1     -12.404   8.756  16.205  1.00  0.00    -0.271 OA
HETATM   12  H11 UNL     1      -8.725   8.107  16.791  1.00  0.00     0.191 HD
ENDROOT
BRANCH   1  13
HETATM   13  C5  UNL     1     -12.146   7.114  13.925  1.00  0.00     0.010 A 
HETATM   14  C4  UNL     1     -12.601   8.141  13.098  1.00  0.00     0.016 A 
HETATM   15  C3  UNL     1     -13.939   8.153  12.694  1.00  0.00     0.007 A 
HETATM   16  C2  UNL     1     -14.829   7.166  13.146  1.00  0.00    -0.062 A 
HETATM   17  C1  UNL     1     -16.262   7.163  12.701  1.00  0.00     0.048 C 
HETATM   18  C31 UNL     1     -14.360   6.161  14.003  1.00  0.00     0.007 A 
HETATM   19  C30 UNL     1     -13.023   6.137  14.400  1.00  0.00     0.016 A 
ENDBRANCH   1  13
BRANCH  10  20
HETATM   20  C17 UNL     1     -10.486   9.964  16.820  1.00  0.00     0.181 C 
BRANCH  20  21
HETATM   21  C18 UNL     1     -11.422  10.657  17.770  1.00  0.00     0.094 A 
HETATM   22  N4  UNL     1     -11.583  10.195  18.978  1.00  0.00    -0.329 N 
HETATM   23  C19 UNL     1     -12.424  10.944  19.749  1.00  0.00     0.146 A 
ATOM     24  H4  UNL     1     -11.121   9.351  19.316  1.00  0.00     0.168 HD
HETATM   25  C20 UNL     1     -13.109  12.069  19.339  1.00  0.00     0.101 A 
HETATM   26  N6  UNL     1     -12.765  10.755  21.093  1.00  0.00    -0.239 N 
HETATM   27  C21 UNL     1     -13.819  12.529  20.454  1.00  0.00     0.042 A 
HETATM   28  C29 UNL     1     -12.964  12.528  17.986  1.00  0.00     0.262 A 
HETATM   29  C22 UNL     1     -14.689  13.725  20.566  1.00  0.00     0.071 C 
HETATM   30  N5  UNL     1     -13.624  11.738  21.515  1.00  0.00    -0.295 N 
ATOM     31  H5  UNL     1     -14.028  11.844  22.445  1.00  0.00     0.187 HD
HETATM   32  O3  UNL     1     -13.569  13.476  17.501  1.00  0.00    -0.267 OA
HETATM   33  N7  UNL     1     -12.067  11.772  17.261  1.00  0.00    -0.312 N 
HETATM   34  H22 UNL     1     -11.942  12.060  16.298  1.00  0.00     0.170 HD
BRANCH  26  35
HETATM   35  C23 UNL     1     -12.353   9.740  22.013  1.00  0.00     0.058 A 
HETATM   36  C24 UNL     1     -11.271   9.918  22.887  1.00  0.00     0.031 A 
HETATM   37  C25 UNL     1     -10.911   8.903  23.783  1.00  0.00     0.002 A 
HETATM   38  C26 UNL     1     -11.625   7.707  23.815  1.00  0.00     0.000 A 
HETATM   39  C27 UNL     1     -12.691   7.511  22.937  1.00  0.00     0.002 A 
HETATM   40  C28 UNL     1     -13.054   8.520  22.039  1.00  0.00     0.031 A 
ENDBRANCH  26  35
ENDBRANCH  20  21
ENDBRANCH  10  20
BRANCH   5  41
HETATM   41  C9  UNL     1      -6.307   5.551  13.186  1.00  0.00    -0.034 A 
HETATM   42  C10 UNL     1      -5.719   4.284  13.141  1.00  0.00     0.013 A 
HETATM   43  C11 UNL     1      -4.328   4.153  13.112  1.00  0.00     0.024 A 
HETATM   44  C12 UNL     1      -3.523   5.290  13.116  1.00  0.00     0.034 A 
HETATM   45 CL1  UNL     1      -1.812   5.127  13.077  1.00  0.00    -0.084 Cl
HETATM   46  C13 UNL     1      -4.096   6.559  13.150  1.00  0.00     0.024 A 
HETATM   47  C14 UNL     1      -5.489   6.691  13.183  1.00  0.00     0.013 A 
ENDBRANCH   5  41
TORSDOF 5
ENDMDL
