MODEL 1
REMARK minimizedAffinity -8.22914696
REMARK  6 active torsions:
REMARK  status: ('A' for Active; 'I' for Inactive)
REMARK    1  A    between atoms: C5_6  and  N1_7 
REMARK    2  A    between atoms: N1_7  and  C6_8 
REMARK    3  A    between atoms: C11_17  and  N4_18 
REMARK    4  A    between atoms: N4_18  and  N5_19 
REMARK    5  A    between atoms: N6_21  and  C12_23 
REMARK    6  A    between atoms: C12_23  and  C13_24 
ROOT
HETATM    1  C6  UNL     1      12.300  34.706  18.946  1.00  0.00     0.119 A 
HETATM    2  N2  UNL     1      12.191  34.263  20.211  1.00  0.00    -0.338 N 
ATOM      3  H2  UNL     1      11.285  34.172  20.669  1.00  0.00     0.168 HD
HETATM    4  C7  UNL     1      13.327  33.948  20.840  1.00  0.00     0.182 A 
HETATM    5  N3  UNL     1      14.560  34.033  20.331  1.00  0.00    -0.352 N 
ATOM      6  H3  UNL     1      15.382  33.763  20.871  1.00  0.00     0.166 HD
HETATM    7  C8  UNL     1      14.662  34.489  19.081  1.00  0.00     0.047 A 
HETATM    8  C9  UNL     1      15.924  34.613  18.520  1.00  0.00     0.033 A 
HETATM    9  C10 UNL     1      16.114  35.090  17.219  1.00  0.00     0.033 A 
HETATM   10  C11 UNL     1      15.025  35.445  16.424  1.00  0.00     0.050 A 
HETATM   11  C19 UNL     1      13.750  35.351  16.993  1.00  0.00     0.048 A 
HETATM   12  C20 UNL     1      13.551  34.856  18.313  1.00  0.00     0.037 A 
ENDROOT
BRANCH  10  13
HETATM   13  N4  UNL     1      15.169  35.995  15.139  1.00  0.00    -0.287 N 
HETATM   14  H8  UNL     1      14.922  36.975  15.044  1.00  0.00     0.188 HD
BRANCH  13  15
HETATM   15  N5  UNL     1      14.867  35.239  14.067  1.00  0.00    -0.246 N 
HETATM   16  N6  UNL     1      15.926  35.133  13.423  1.00  0.00    -0.318 N 
ATOM     17  H6  UNL     1      16.809  35.556  13.709  1.00  0.00     0.182 HD
ATOM     18  H5  UNL     1      13.960  34.839  13.832  1.00  0.00     0.208 HD
BRANCH  16  19
HETATM   19  C12 UNL     1      15.762  34.328  12.202  1.00  0.00     0.179 C 
BRANCH  19  20
HETATM   20  C13 UNL     1      17.036  33.607  11.839  1.00  0.00    -0.039 A 
HETATM   21  C14 UNL     1      17.192  32.249  12.153  1.00  0.00     0.009 A 
HETATM   22  C15 UNL     1      18.364  31.573  11.807  1.00  0.00     0.001 A 
HETATM   23  C16 UNL     1      19.385  32.245  11.137  1.00  0.00     0.000 A 
HETATM   24  C17 UNL     1      19.236  33.591  10.809  1.00  0.00     0.001 A 
HETATM   25  C18 UNL     1      18.065  34.269  11.154  1.00  0.00     0.009 A 
ENDBRANCH  19  20
ENDBRANCH  16  19
ENDBRANCH  13  15
ENDBRANCH  10  13
BRANCH   1  26
HETATM   26  N1  UNL     1      11.120  35.012  18.212  1.00  0.00    -0.342 N 
HETATM   27  H4  UNL     1      11.021  34.333  17.463  1.00  0.00     0.167 HD
BRANCH  26  28
HETATM   28  C5  UNL     1       9.858  35.417  18.707  1.00  0.00     0.034 A 
HETATM   29  C4  UNL     1       9.020  36.184  17.881  1.00  0.00     0.029 A 
HETATM   30  C3  UNL     1       7.789  36.663  18.341  1.00  0.00     0.004 A 
HETATM   31  C2  UNL     1       7.389  36.403  19.648  1.00  0.00     0.019 A 
HETATM   32  C1  UNL     1       8.228  35.677  20.490  1.00  0.00     0.013 A 
HETATM   33 BR1  UNL     1       7.702  35.346  22.277  1.00  0.00    -0.051 Br
HETATM   34  C21 UNL     1       9.458  35.200  20.031  1.00  0.00     0.048 A 
ENDBRANCH  26  28
ENDBRANCH   1  26
TORSDOF 6
ENDMDL
MODEL 2
REMARK minimizedAffinity -7.96400261
REMARK  6 active torsions:
REMARK  status: ('A' for Active; 'I' for Inactive)
REMARK    1  A    between atoms: C5_6  and  N1_7 
REMARK    2  A    between atoms: N1_7  and  C6_8 
REMARK    3  A    between atoms: C11_17  and  N4_18 
REMARK    4  A    between atoms: N4_18  and  N5_19 
REMARK    5  A    between atoms: N6_21  and  C12_23 
REMARK    6  A    between atoms: C12_23  and  C13_24 
ROOT
HETATM    1  C6  UNL     1      16.053  36.279  16.146  1.00  0.00     0.119 A 
HETATM    2  N2  UNL     1      17.349  35.949  16.296  1.00  0.00    -0.338 N 
ATOM      3  H2  UNL     1      18.088  36.452  15.806  1.00  0.00     0.168 HD
HETATM    4  C7  UNL     1      17.621  34.932  17.118  1.00  0.00     0.182 A 
HETATM    5  N3  UNL     1      16.729  34.211  17.804  1.00  0.00    -0.352 N 
ATOM      6  H3  UNL     1      17.015  33.452  18.423  1.00  0.00     0.166 HD
HETATM    7  C8  UNL     1      15.445  34.533  17.638  1.00  0.00     0.047 A 
HETATM    8  C9  UNL     1      14.483  33.798  18.314  1.00  0.00     0.033 A 
HETATM    9  C10 UNL     1      13.116  34.069  18.187  1.00  0.00     0.033 A 
HETATM   10  C11 UNL     1      12.669  35.114  17.379  1.00  0.00     0.050 A 
HETATM   11  C19 UNL     1      13.632  35.841  16.669  1.00  0.00     0.048 A 
HETATM   12  C20 UNL     1      15.023  35.576  16.804  1.00  0.00     0.037 A 
ENDROOT
BRANCH  10  13
HETATM   13  N4  UNL     1      11.306  35.378  17.165  1.00  0.00    -0.287 N 
HETATM   14  H8  UNL     1      11.092  36.028  16.415  1.00  0.00     0.188 HD
BRANCH  13  15
HETATM   15  N5  UNL     1      10.482  35.462  18.225  1.00  0.00    -0.246 N 
HETATM   16  N6  UNL     1      10.844  36.473  18.853  1.00  0.00    -0.318 N 
ATOM     17  H6  UNL     1      11.616  37.073  18.564  1.00  0.00     0.182 HD
ATOM     18  H5  UNL     1       9.719  34.828  18.464  1.00  0.00     0.208 HD
BRANCH  16  19
HETATM   19  C12 UNL     1      10.034  36.705  20.059  1.00  0.00     0.179 C 
BRANCH  19  20
HETATM   20  C13 UNL     1       8.754  35.907  20.028  1.00  0.00    -0.039 A 
HETATM   21  C14 UNL     1       8.573  34.829  20.905  1.00  0.00     0.009 A 
HETATM   22  C15 UNL     1       7.384  34.096  20.890  1.00  0.00     0.001 A 
HETATM   23  C16 UNL     1       6.365  34.440  20.004  1.00  0.00     0.000 A 
HETATM   24  C17 UNL     1       6.529  35.517  19.136  1.00  0.00     0.001 A 
HETATM   25  C18 UNL     1       7.716  36.251  19.149  1.00  0.00     0.009 A 
ENDBRANCH  19  20
ENDBRANCH  16  19
ENDBRANCH  13  15
ENDBRANCH  10  13
BRANCH   1  26
HETATM   26  N1  UNL     1      15.708  37.385  15.320  1.00  0.00    -0.342 N 
HETATM   27  H4  UNL     1      14.789  37.216  14.922  1.00  0.00     0.167 HD
BRANCH  26  28
HETATM   28  C5  UNL     1      15.915  38.763  15.566  1.00  0.00     0.034 A 
HETATM   29  C4  UNL     1      15.473  39.308  16.783  1.00  0.00     0.029 A 
HETATM   30  C3  UNL     1      15.596  40.675  17.053  1.00  0.00     0.004 A 
HETATM   31  C2  UNL     1      16.141  41.525  16.094  1.00  0.00     0.019 A 
HETATM   32  C1  UNL     1      16.547  41.003  14.869  1.00  0.00     0.013 A 
HETATM   33 BR1  UNL     1      17.261  42.158  13.551  1.00  0.00    -0.051 Br
HETATM   34  C21 UNL     1      16.423  39.638  14.598  1.00  0.00     0.048 A 
ENDBRANCH  26  28
ENDBRANCH   1  26
TORSDOF 6
ENDMDL
MODEL 3
REMARK minimizedAffinity -7.8216691
REMARK  6 active torsions:
REMARK  status: ('A' for Active; 'I' for Inactive)
REMARK    1  A    between atoms: C5_6  and  N1_7 
REMARK    2  A    between atoms: N1_7  and  C6_8 
REMARK    3  A    between atoms: C11_17  and  N4_18 
REMARK    4  A    between atoms: N4_18  and  N5_19 
REMARK    5  A    between atoms: N6_21  and  C12_23 
REMARK    6  A    between atoms: C12_23  and  C13_24 
ROOT
HETATM    1  C6  UNL     1      17.938  46.780   6.948  1.00  0.00     0.119 A 
HETATM    2  N2  UNL     1      18.789  46.060   7.702  1.00  0.00    -0.338 N 
ATOM      3  H2  UNL     1      18.636  45.067   7.878  1.00  0.00     0.168 HD
HETATM    4  C7  UNL     1      19.842  46.707   8.207  1.00  0.00     0.182 A 
HETATM    5  N3  UNL     1      20.131  48.000   8.037  1.00  0.00    -0.352 N 
ATOM      6  H3  UNL     1      20.963  48.423   8.448  1.00  0.00     0.166 HD
HETATM    7  C8  UNL     1      19.274  48.712   7.302  1.00  0.00     0.047 A 
HETATM    8  C9  UNL     1      19.523  50.064   7.116  1.00  0.00     0.033 A 
HETATM    9  C10 UNL     1      18.669  50.879   6.365  1.00  0.00     0.033 A 
HETATM   10  C11 UNL     1      17.532  50.350   5.755  1.00  0.00     0.050 A 
HETATM   11  C19 UNL     1      17.258  48.993   5.963  1.00  0.00     0.048 A 
HETATM   12  C20 UNL     1      18.130  48.158   6.717  1.00  0.00     0.037 A 
ENDROOT
BRANCH  10  13
HETATM   13  N4  UNL     1      16.609  51.142   5.052  1.00  0.00    -0.287 N 
HETATM   14  H8  UNL     1      16.736  51.186   4.046  1.00  0.00     0.188 HD
BRANCH  13  15
HETATM   15  N5  UNL     1      16.173  52.287   5.608  1.00  0.00    -0.246 N 
HETATM   16  N6  UNL     1      15.126  52.577   5.001  1.00  0.00    -0.318 N 
ATOM     17  H6  UNL     1      14.733  52.014   4.247  1.00  0.00     0.182 HD
ATOM     18  H5  UNL     1      16.610  52.808   6.368  1.00  0.00     0.208 HD
BRANCH  16  19
HETATM   19  C12 UNL     1      14.520  53.823   5.494  1.00  0.00     0.179 C 
BRANCH  19  20
HETATM   20  C13 UNL     1      14.615  54.928   4.471  1.00  0.00    -0.039 A 
HETATM   21  C14 UNL     1      15.868  55.357   4.010  1.00  0.00     0.009 A 
HETATM   22  C15 UNL     1      15.962  56.370   3.054  1.00  0.00     0.001 A 
HETATM   23  C16 UNL     1      14.805  56.957   2.544  1.00  0.00     0.000 A 
HETATM   24  C17 UNL     1      13.554  56.530   2.986  1.00  0.00     0.001 A 
HETATM   25  C18 UNL     1      13.458  55.518   3.942  1.00  0.00     0.009 A 
ENDBRANCH  19  20
ENDBRANCH  16  19
ENDBRANCH  13  15
ENDBRANCH  10  13
BRANCH   1  26
HETATM   26  N1  UNL     1      16.824  46.133   6.345  1.00  0.00    -0.342 N 
HETATM   27  H4  UNL     1      15.974  46.587   6.666  1.00  0.00     0.167 HD
BRANCH  26  28
HETATM   28  C5  UNL     1      16.690  45.676   5.013  1.00  0.00     0.034 A 
HETATM   29  C4  UNL     1      15.694  46.241   4.199  1.00  0.00     0.029 A 
HETATM   30  C3  UNL     1      15.477  45.785   2.895  1.00  0.00     0.004 A 
HETATM   31  C2  UNL     1      16.239  44.733   2.393  1.00  0.00     0.019 A 
HETATM   32  C1  UNL     1      17.202  44.138   3.202  1.00  0.00     0.013 A 
HETATM   33 BR1  UNL     1      18.220  42.689   2.535  1.00  0.00    -0.051 Br
HETATM   34  C21 UNL     1      17.418  44.593   4.505  1.00  0.00     0.048 A 
ENDBRANCH  26  28
ENDBRANCH   1  26
TORSDOF 6
ENDMDL
MODEL 4
REMARK minimizedAffinity -7.81544161
REMARK  6 active torsions:
REMARK  status: ('A' for Active; 'I' for Inactive)
REMARK    1  A    between atoms: C5_6  and  N1_7 
REMARK    2  A    between atoms: N1_7  and  C6_8 
REMARK    3  A    between atoms: C11_17  and  N4_18 
REMARK    4  A    between atoms: N4_18  and  N5_19 
REMARK    5  A    between atoms: N6_21  and  C12_23 
REMARK    6  A    between atoms: C12_23  and  C13_24 
ROOT
HETATM    1  C6  UNL     1      17.594  46.202   6.657  1.00  0.00     0.119 A 
HETATM    2  N2  UNL     1      18.258  45.364   7.473  1.00  0.00    -0.338 N 
ATOM      3  H2  UNL     1      18.027  44.373   7.524  1.00  0.00     0.168 HD
HETATM    4  C7  UNL     1      19.235  45.893   8.215  1.00  0.00     0.182 A 
HETATM    5  N3  UNL     1      19.614  47.175   8.224  1.00  0.00    -0.352 N 
ATOM      6  H3  UNL     1      20.379  47.504   8.813  1.00  0.00     0.166 HD
HETATM    7  C8  UNL     1      18.940  48.003   7.424  1.00  0.00     0.047 A 
HETATM    8  C9  UNL     1      19.286  49.346   7.416  1.00  0.00     0.033 A 
HETATM    9  C10 UNL     1      18.623  50.278   6.610  1.00  0.00     0.033 A 
HETATM   10  C11 UNL     1      17.590  49.880   5.762  1.00  0.00     0.050 A 
HETATM   11  C19 UNL     1      17.215  48.532   5.787  1.00  0.00     0.048 A 
HETATM   12  C20 UNL     1      17.893  47.578   6.596  1.00  0.00     0.037 A 
ENDROOT
BRANCH  10  13
HETATM   13  N4  UNL     1      16.849  50.790   4.988  1.00  0.00    -0.287 N 
HETATM   14  H8  UNL     1      17.121  50.870   4.014  1.00  0.00     0.188 HD
BRANCH  13  15
HETATM   15  N5  UNL     1      16.442  51.944   5.548  1.00  0.00    -0.246 N 
HETATM   16  N6  UNL     1      17.018  52.846   4.913  1.00  0.00    -0.318 N 
ATOM     17  H6  UNL     1      17.654  52.674   4.135  1.00  0.00     0.182 HD
ATOM     18  H5  UNL     1      15.796  52.055   6.329  1.00  0.00     0.208 HD
BRANCH  16  19
HETATM   19  C12 UNL     1      16.677  54.187   5.411  1.00  0.00     0.179 C 
BRANCH  19  20
HETATM   20  C13 UNL     1      15.684  54.877   4.509  1.00  0.00    -0.039 A 
HETATM   21  C14 UNL     1      14.307  54.736   4.736  1.00  0.00     0.009 A 
HETATM   22  C15 UNL     1      13.384  55.382   3.912  1.00  0.00     0.001 A 
HETATM   23  C16 UNL     1      13.828  56.182   2.861  1.00  0.00     0.000 A 
HETATM   24  C17 UNL     1      15.193  56.340   2.633  1.00  0.00     0.001 A 
HETATM   25  C18 UNL     1      16.119  55.694   3.456  1.00  0.00     0.009 A 
ENDBRANCH  19  20
ENDBRANCH  16  19
ENDBRANCH  13  15
ENDBRANCH  10  13
BRANCH   1  26
HETATM   26  N1  UNL     1      16.576  45.685   5.808  1.00  0.00    -0.342 N 
HETATM   27  H4  UNL     1      15.756  46.279   5.889  1.00  0.00     0.167 HD
BRANCH  26  28
HETATM   28  C5  UNL     1      16.704  45.164   4.499  1.00  0.00     0.034 A 
HETATM   29  C4  UNL     1      15.943  45.733   3.465  1.00  0.00     0.029 A 
HETATM   30  C3  UNL     1      15.985  45.217   2.165  1.00  0.00     0.004 A 
HETATM   31  C2  UNL     1      16.772  44.104   1.886  1.00  0.00     0.019 A 
HETATM   32  C1  UNL     1      17.501  43.506   2.911  1.00  0.00     0.013 A 
HETATM   33 BR1  UNL     1      18.550  41.974   2.543  1.00  0.00    -0.051 Br
HETATM   34  C21 UNL     1      17.458  44.020   4.209  1.00  0.00     0.048 A 
ENDBRANCH  26  28
ENDBRANCH   1  26
TORSDOF 6
ENDMDL
MODEL 5
REMARK minimizedAffinity -7.75296926
REMARK  6 active torsions:
REMARK  status: ('A' for Active; 'I' for Inactive)
REMARK    1  A    between atoms: C5_6  and  N1_7 
REMARK    2  A    between atoms: N1_7  and  C6_8 
REMARK    3  A    between atoms: C11_17  and  N4_18 
REMARK    4  A    between atoms: N4_18  and  N5_19 
REMARK    5  A    between atoms: N6_21  and  C12_23 
REMARK    6  A    between atoms: C12_23  and  C13_24 
ROOT
HETATM    1  C6  UNL     1      19.018  46.388   7.353  1.00  0.00     0.119 A 
HETATM    2  N2  UNL     1      19.026  45.244   8.060  1.00  0.00    -0.338 N 
ATOM      3  H2  UNL     1      19.818  44.985   8.648  1.00  0.00     0.168 HD
HETATM    4  C7  UNL     1      17.948  44.462   7.956  1.00  0.00     0.182 A 
HETATM    5  N3  UNL     1      16.863  44.708   7.215  1.00  0.00    -0.352 N 
ATOM      6  H3  UNL     1      16.071  44.066   7.195  1.00  0.00     0.166 HD
HETATM    7  C8  UNL     1      16.869  45.837   6.504  1.00  0.00     0.047 A 
HETATM    8  C9  UNL     1      15.771  46.123   5.705  1.00  0.00     0.033 A 
HETATM    9  C10 UNL     1      15.705  47.282   4.924  1.00  0.00     0.033 A 
HETATM   10  C11 UNL     1      16.744  48.211   4.936  1.00  0.00     0.050 A 
HETATM   11  C19 UNL     1      17.868  47.915   5.717  1.00  0.00     0.048 A 
HETATM   12  C20 UNL     1      17.936  46.743   6.521  1.00  0.00     0.037 A 
ENDROOT
BRANCH  10  13
HETATM   13  N4  UNL     1      16.754  49.352   4.117  1.00  0.00    -0.287 N 
HETATM   14  H8  UNL     1      16.804  49.181   3.117  1.00  0.00     0.188 HD
BRANCH  13  15
HETATM   15  N5  UNL     1      17.419  50.447   4.528  1.00  0.00    -0.246 N 
HETATM   16  N6  UNL     1      16.548  51.235   4.936  1.00  0.00    -0.318 N 
ATOM     17  H6  UNL     1      15.549  51.028   4.934  1.00  0.00     0.182 HD
ATOM     18  H5  UNL     1      18.427  50.599   4.508  1.00  0.00     0.208 HD
BRANCH  16  19
HETATM   19  C12 UNL     1      17.120  52.500   5.423  1.00  0.00     0.179 C 
BRANCH  19  20
HETATM   20  C13 UNL     1      16.291  53.685   4.992  1.00  0.00    -0.039 A 
HETATM   21  C14 UNL     1      16.906  54.802   4.408  1.00  0.00     0.009 A 
HETATM   22  C15 UNL     1      16.142  55.895   3.995  1.00  0.00     0.001 A 
HETATM   23  C16 UNL     1      14.758  55.879   4.153  1.00  0.00     0.000 A 
HETATM   24  C17 UNL     1      14.134  54.769   4.721  1.00  0.00     0.001 A 
HETATM   25  C18 UNL     1      14.896  53.674   5.135  1.00  0.00     0.009 A 
ENDBRANCH  19  20
ENDBRANCH  16  19
ENDBRANCH  13  15
ENDBRANCH  10  13
BRANCH   1  26
HETATM   26  N1  UNL     1      20.119  47.282   7.463  1.00  0.00    -0.342 N 
HETATM   27  H4  UNL     1      20.427  47.530   6.528  1.00  0.00     0.167 HD
BRANCH  26  28
HETATM   28  C5  UNL     1      20.287  48.361   8.362  1.00  0.00     0.034 A 
HETATM   29  C4  UNL     1      20.697  48.090   9.678  1.00  0.00     0.029 A 
HETATM   30  C3  UNL     1      20.819  49.111  10.625  1.00  0.00     0.004 A 
HETATM   31  C2  UNL     1      20.507  50.422  10.275  1.00  0.00     0.019 A 
HETATM   32  C1  UNL     1      20.063  50.699   8.985  1.00  0.00     0.013 A 
HETATM   33 BR1  UNL     1      19.608  52.474   8.513  1.00  0.00    -0.051 Br
HETATM   34  C21 UNL     1      19.939  49.679   8.039  1.00  0.00     0.048 A 
ENDBRANCH  26  28
ENDBRANCH   1  26
TORSDOF 6
ENDMDL
MODEL 6
REMARK minimizedAffinity -7.39788151
REMARK  6 active torsions:
REMARK  status: ('A' for Active; 'I' for Inactive)
REMARK    1  A    between atoms: C5_6  and  N1_7 
REMARK    2  A    between atoms: N1_7  and  C6_8 
REMARK    3  A    between atoms: C11_17  and  N4_18 
REMARK    4  A    between atoms: N4_18  and  N5_19 
REMARK    5  A    between atoms: N6_21  and  C12_23 
REMARK    6  A    between atoms: C12_23  and  C13_24 
ROOT
HETATM    1  C6  UNL     1      15.557  38.302  18.105  1.00  0.00     0.119 A 
HETATM    2  N2  UNL     1      16.656  38.663  18.791  1.00  0.00    -0.338 N 
ATOM      3  H2  UNL     1      17.090  39.577  18.661  1.00  0.00     0.168 HD
HETATM    4  C7  UNL     1      17.152  37.769  19.649  1.00  0.00     0.182 A 
HETATM    5  N3  UNL     1      16.661  36.550  19.891  1.00  0.00    -0.352 N 
ATOM      6  H3  UNL     1      17.091  35.924  20.573  1.00  0.00     0.166 HD
HETATM    7  C8  UNL     1      15.580  36.192  19.195  1.00  0.00     0.047 A 
HETATM    8  C9  UNL     1      15.048  34.927  19.399  1.00  0.00     0.033 A 
HETATM    9  C10 UNL     1      13.921  34.475  18.704  1.00  0.00     0.033 A 
HETATM   10  C11 UNL     1      13.275  35.299  17.783  1.00  0.00     0.050 A 
HETATM   11  C19 UNL     1      13.823  36.565  17.550  1.00  0.00     0.048 A 
HETATM   12  C20 UNL     1      14.963  37.033  18.263  1.00  0.00     0.037 A 
ENDROOT
BRANCH  10  13
HETATM   13  N4  UNL     1      12.184  34.864  17.010  1.00  0.00    -0.287 N 
HETATM   14  H8  UNL     1      12.414  34.435  16.119  1.00  0.00     0.188 HD
BRANCH  13  15
HETATM   15  N5  UNL     1      11.057  35.599  16.999  1.00  0.00    -0.246 N 
HETATM   16  N6  UNL     1      10.517  35.402  18.103  1.00  0.00    -0.318 N 
ATOM     17  H6  UNL     1      10.907  34.796  18.824  1.00  0.00     0.182 HD
ATOM     18  H5  UNL     1      10.717  36.193  16.244  1.00  0.00     0.208 HD
BRANCH  16  19
HETATM   19  C12 UNL     1       9.254  36.141  18.249  1.00  0.00     0.179 C 
BRANCH  19  20
HETATM   20  C13 UNL     1       8.669  35.970  19.629  1.00  0.00    -0.039 A 
HETATM   21  C14 UNL     1       9.512  35.793  20.736  1.00  0.00     0.009 A 
HETATM   22  C15 UNL     1       8.976  35.647  22.017  1.00  0.00     0.001 A 
HETATM   23  C16 UNL     1       7.596  35.686  22.204  1.00  0.00     0.000 A 
HETATM   24  C17 UNL     1       6.749  35.874  21.114  1.00  0.00     0.001 A 
HETATM   25  C18 UNL     1       7.282  36.019  19.832  1.00  0.00     0.009 A 
ENDBRANCH  19  20
ENDBRANCH  16  19
ENDBRANCH  13  15
ENDBRANCH  10  13
BRANCH   1  26
HETATM   26  N1  UNL     1      14.957  39.233  17.211  1.00  0.00    -0.342 N 
HETATM   27  H4  UNL     1      14.388  39.878  17.751  1.00  0.00     0.167 HD
BRANCH  26  28
HETATM   28  C5  UNL     1      15.537  39.873  16.091  1.00  0.00     0.034 A 
HETATM   29  C4  UNL     1      15.714  39.140  14.906  1.00  0.00     0.029 A 
HETATM   30  C3  UNL     1      16.339  39.704  13.790  1.00  0.00     0.004 A 
HETATM   31  C2  UNL     1      16.821  41.009  13.851  1.00  0.00     0.019 A 
HETATM   32  C1  UNL     1      16.687  41.734  15.032  1.00  0.00     0.013 A 
HETATM   33 BR1  UNL     1      17.367  43.497  15.130  1.00  0.00    -0.051 Br
HETATM   34  C21 UNL     1      16.064  41.169  16.148  1.00  0.00     0.048 A 
ENDBRANCH  26  28
ENDBRANCH   1  26
TORSDOF 6
ENDMDL
MODEL 7
REMARK minimizedAffinity -7.37727261
REMARK  6 active torsions:
REMARK  status: ('A' for Active; 'I' for Inactive)
REMARK    1  A    between atoms: C5_6  and  N1_7 
REMARK    2  A    between atoms: N1_7  and  C6_8 
REMARK    3  A    between atoms: C11_17  and  N4_18 
REMARK    4  A    between atoms: N4_18  and  N5_19 
REMARK    5  A    between atoms: N6_21  and  C12_23 
REMARK    6  A    between atoms: C12_23  and  C13_24 
ROOT
HETATM    1  C6  UNL     1      16.816  38.400  15.257  1.00  0.00     0.119 A 
HETATM    2  N2  UNL     1      18.161  38.389  15.249  1.00  0.00    -0.338 N 
ATOM      3  H2  UNL     1      18.699  39.156  14.845  1.00  0.00     0.168 HD
HETATM    4  C7  UNL     1      18.759  37.326  15.793  1.00  0.00     0.182 A 
HETATM    5  N3  UNL     1      18.148  36.273  16.345  1.00  0.00    -0.352 N 
ATOM      6  H3  UNL     1      18.675  35.500  16.752  1.00  0.00     0.166 HD
HETATM    7  C8  UNL     1      16.814  36.283  16.335  1.00  0.00     0.047 A 
HETATM    8  C9  UNL     1      16.138  35.200  16.878  1.00  0.00     0.033 A 
HETATM    9  C10 UNL     1      14.741  35.133  16.899  1.00  0.00     0.033 A 
HETATM   10  C11 UNL     1      13.969  36.174  16.384  1.00  0.00     0.050 A 
HETATM   11  C19 UNL     1      14.644  37.256  15.807  1.00  0.00     0.048 A 
HETATM   12  C20 UNL     1      16.065  37.334  15.793  1.00  0.00     0.037 A 
ENDROOT
BRANCH  10  13
HETATM   13  N4  UNL     1      12.566  36.120  16.319  1.00  0.00    -0.287 N 
HETATM   14  H8  UNL     1      12.094  37.006  16.169  1.00  0.00     0.188 HD
BRANCH  13  15
HETATM   15  N5  UNL     1      11.907  35.267  17.124  1.00  0.00    -0.246 N 
HETATM   16  N6  UNL     1      11.622  35.921  18.143  1.00  0.00    -0.318 N 
ATOM     17  H6  UNL     1      11.866  36.903  18.274  1.00  0.00     0.182 HD
ATOM     18  H5  UNL     1      11.688  34.289  16.938  1.00  0.00     0.208 HD
BRANCH  16  19
HETATM   19  C12 UNL     1      10.892  35.120  19.138  1.00  0.00     0.179 C 
BRANCH  19  20
HETATM   20  C13 UNL     1       9.445  35.540  19.234  1.00  0.00    -0.039 A 
HETATM   21  C14 UNL     1       8.934  36.513  18.364  1.00  0.00     0.009 A 
HETATM   22  C15 UNL     1       7.593  36.895  18.440  1.00  0.00     0.001 A 
HETATM   23  C16 UNL     1       6.751  36.303  19.379  1.00  0.00     0.000 A 
HETATM   24  C17 UNL     1       7.246  35.325  20.241  1.00  0.00     0.001 A 
HETATM   25  C18 UNL     1       8.586  34.942  20.167  1.00  0.00     0.009 A 
ENDBRANCH  19  20
ENDBRANCH  16  19
ENDBRANCH  13  15
ENDBRANCH  10  13
BRANCH   1  26
HETATM   26  N1  UNL     1      16.126  39.529  14.733  1.00  0.00    -0.342 N 
HETATM   27  H4  UNL     1      15.140  39.436  14.956  1.00  0.00     0.167 HD
BRANCH  26  28
HETATM   28  C5  UNL     1      16.528  40.885  14.741  1.00  0.00     0.034 A 
HETATM   29  C4  UNL     1      16.833  41.509  13.520  1.00  0.00     0.029 A 
HETATM   30  C3  UNL     1      17.295  42.828  13.475  1.00  0.00     0.004 A 
HETATM   31  C2  UNL     1      17.485  43.538  14.658  1.00  0.00     0.019 A 
HETATM   32  C1  UNL     1      17.223  42.918  15.877  1.00  0.00     0.013 A 
HETATM   33 BR1  UNL     1      17.508  43.866  17.490  1.00  0.00    -0.051 Br
HETATM   34  C21 UNL     1      16.764  41.599  15.923  1.00  0.00     0.048 A 
ENDBRANCH  26  28
ENDBRANCH   1  26
TORSDOF 6
ENDMDL
MODEL 8
REMARK minimizedAffinity -7.35850811
REMARK  6 active torsions:
REMARK  status: ('A' for Active; 'I' for Inactive)
REMARK    1  A    between atoms: C5_6  and  N1_7 
REMARK    2  A    between atoms: N1_7  and  C6_8 
REMARK    3  A    between atoms: C11_17  and  N4_18 
REMARK    4  A    between atoms: N4_18  and  N5_19 
REMARK    5  A    between atoms: N6_21  and  C12_23 
REMARK    6  A    between atoms: C12_23  and  C13_24 
ROOT
HETATM    1  C6  UNL     1      16.831  37.556  14.917  1.00  0.00     0.119 A 
HETATM    2  N2  UNL     1      17.947  38.263  15.167  1.00  0.00    -0.338 N 
ATOM      3  H2  UNL     1      18.634  38.452  14.437  1.00  0.00     0.168 HD
HETATM    4  C7  UNL     1      18.114  38.707  16.416  1.00  0.00     0.182 A 
HETATM    5  N3  UNL     1      17.278  38.514  17.440  1.00  0.00    -0.352 N 
ATOM      6  H3  UNL     1      17.469  38.895  18.367  1.00  0.00     0.166 HD
HETATM    7  C8  UNL     1      16.180  37.798  17.189  1.00  0.00     0.047 A 
HETATM    8  C9  UNL     1      15.294  37.555  18.229  1.00  0.00     0.033 A 
HETATM    9  C10 UNL     1      14.125  36.808  18.047  1.00  0.00     0.033 A 
HETATM   10  C11 UNL     1      13.797  36.289  16.795  1.00  0.00     0.050 A 
HETATM   11  C19 UNL     1      14.702  36.504  15.749  1.00  0.00     0.048 A 
HETATM   12  C20 UNL     1      15.886  37.273  15.925  1.00  0.00     0.037 A 
ENDROOT
BRANCH  10  13
HETATM   13  N4  UNL     1      12.673  35.474  16.581  1.00  0.00    -0.287 N 
HETATM   14  H8  UNL     1      12.807  34.690  15.951  1.00  0.00     0.188 HD
BRANCH  13  15
HETATM   15  N5  UNL     1      11.457  36.044  16.509  1.00  0.00    -0.246 N 
HETATM   16  N6  UNL     1      10.756  35.447  17.346  1.00  0.00    -0.318 N 
ATOM     17  H6  UNL     1      11.100  34.690  17.937  1.00  0.00     0.182 HD
ATOM     18  H5  UNL     1      11.169  36.806  15.896  1.00  0.00     0.208 HD
BRANCH  16  19
HETATM   19  C12 UNL     1       9.377  35.956  17.389  1.00  0.00     0.179 C 
BRANCH  19  20
HETATM   20  C13 UNL     1       8.804  35.888  18.783  1.00  0.00    -0.039 A 
HETATM   21  C14 UNL     1       9.656  35.875  19.896  1.00  0.00     0.009 A 
HETATM   22  C15 UNL     1       9.131  35.825  21.189  1.00  0.00     0.001 A 
HETATM   23  C16 UNL     1       7.751  35.798  21.380  1.00  0.00     0.000 A 
HETATM   24  C17 UNL     1       6.894  35.823  20.282  1.00  0.00     0.001 A 
HETATM   25  C18 UNL     1       7.417  35.872  18.988  1.00  0.00     0.009 A 
ENDBRANCH  19  20
ENDBRANCH  16  19
ENDBRANCH  13  15
ENDBRANCH  10  13
BRANCH   1  26
HETATM   26  N1  UNL     1      16.577  37.099  13.594  1.00  0.00    -0.342 N 
HETATM   27  H4  UNL     1      16.536  37.905  12.977  1.00  0.00     0.167 HD
BRANCH  26  28
HETATM   28  C5  UNL     1      17.125  35.975  12.934  1.00  0.00     0.034 A 
HETATM   29  C4  UNL     1      16.347  34.811  12.817  1.00  0.00     0.029 A 
HETATM   30  C3  UNL     1      16.861  33.650  12.230  1.00  0.00     0.004 A 
HETATM   31  C2  UNL     1      18.175  33.628  11.771  1.00  0.00     0.019 A 
HETATM   32  C1  UNL     1      18.969  34.763  11.916  1.00  0.00     0.013 A 
HETATM   33 BR1  UNL     1      20.766  34.729  11.322  1.00  0.00    -0.051 Br
HETATM   34  C21 UNL     1      18.457  35.922  12.504  1.00  0.00     0.048 A 
ENDBRANCH  26  28
ENDBRANCH   1  26
TORSDOF 6
ENDMDL
MODEL 9
REMARK minimizedAffinity -7.34829378
REMARK  6 active torsions:
REMARK  status: ('A' for Active; 'I' for Inactive)
REMARK    1  A    between atoms: C5_6  and  N1_7 
REMARK    2  A    between atoms: N1_7  and  C6_8 
REMARK    3  A    between atoms: C11_17  and  N4_18 
REMARK    4  A    between atoms: N4_18  and  N5_19 
REMARK    5  A    between atoms: N6_21  and  C12_23 
REMARK    6  A    between atoms: C12_23  and  C13_24 
ROOT
HETATM    1  C6  UNL     1       3.219  65.474  -4.818  1.00  0.00     0.119 A 
HETATM    2  N2  UNL     1       2.186  66.149  -5.353  1.00  0.00    -0.338 N 
ATOM      3  H2  UNL     1       1.288  66.220  -4.874  1.00  0.00     0.168 HD
HETATM    4  C7  UNL     1       2.391  66.723  -6.541  1.00  0.00     0.182 A 
HETATM    5  N3  UNL     1       3.523  66.689  -7.250  1.00  0.00    -0.352 N 
ATOM      6  H3  UNL     1       3.607  67.163  -8.149  1.00  0.00     0.166 HD
HETATM    7  C8  UNL     1       4.539  66.003  -6.721  1.00  0.00     0.047 A 
HETATM    8  C9  UNL     1       5.727  65.924  -7.432  1.00  0.00     0.033 A 
HETATM    9  C10 UNL     1       6.835  65.219  -6.948  1.00  0.00     0.033 A 
HETATM   10  C11 UNL     1       6.787  64.578  -5.711  1.00  0.00     0.050 A 
HETATM   11  C19 UNL     1       5.581  64.628  -5.002  1.00  0.00     0.048 A 
HETATM   12  C20 UNL     1       4.456  65.354  -5.484  1.00  0.00     0.037 A 
ENDROOT
BRANCH  10  13
HETATM   13  N4  UNL     1       7.847  63.800  -5.217  1.00  0.00    -0.287 N 
HETATM   14  H8  UNL     1       8.618  64.312  -4.799  1.00  0.00     0.188 HD
BRANCH  13  15
HETATM   15  N5  UNL     1       8.216  62.694  -5.890  1.00  0.00    -0.246 N 
HETATM   16  N6  UNL     1       9.442  62.585  -5.710  1.00  0.00    -0.318 N 
ATOM     17  H6  UNL     1       9.993  63.235  -5.151  1.00  0.00     0.182 HD
ATOM     18  H5  UNL     1       7.615  62.076  -6.435  1.00  0.00     0.208 HD
BRANCH  16  19
HETATM   19  C12 UNL     1      10.006  61.411  -6.394  1.00  0.00     0.179 C 
BRANCH  19  20
HETATM   20  C13 UNL     1       9.928  60.176  -5.531  1.00  0.00    -0.039 A 
HETATM   21  C14 UNL     1      11.005  59.822  -4.706  1.00  0.00     0.009 A 
HETATM   22  C15 UNL     1      10.932  58.687  -3.895  1.00  0.00     0.001 A 
HETATM   23  C16 UNL     1       9.780  57.903  -3.895  1.00  0.00     0.000 A 
HETATM   24  C17 UNL     1       8.698  58.253  -4.701  1.00  0.00     0.001 A 
HETATM   25  C18 UNL     1       8.769  59.386  -5.513  1.00  0.00     0.009 A 
ENDBRANCH  19  20
ENDBRANCH  16  19
ENDBRANCH  13  15
ENDBRANCH  10  13
BRANCH   1  26
HETATM   26  N1  UNL     1       3.073  64.882  -3.532  1.00  0.00    -0.342 N 
HETATM   27  H4  UNL     1       3.811  65.234  -2.930  1.00  0.00     0.167 HD
BRANCH  26  28
HETATM   28  C5  UNL     1       1.883  64.648  -2.804  1.00  0.00     0.034 A 
HETATM   29  C4  UNL     1       1.113  63.514  -3.109  1.00  0.00     0.029 A 
HETATM   30  C3  UNL     1      -0.103  63.268  -2.464  1.00  0.00     0.004 A 
HETATM   31  C2  UNL     1      -0.581  64.169  -1.517  1.00  0.00     0.019 A 
HETATM   32  C1  UNL     1       0.154  65.317  -1.233  1.00  0.00     0.013 A 
HETATM   33 BR1  UNL     1      -0.505  66.562   0.031  1.00  0.00    -0.051 Br
HETATM   34  C21 UNL     1       1.368  65.565  -1.879  1.00  0.00     0.048 A 
ENDBRANCH  26  28
ENDBRANCH   1  26
TORSDOF 6
ENDMDL
