MODEL 1
REMARK minimizedAffinity -9.61664867
REMARK  8 active torsions:
REMARK  status: ('A' for Active; 'I' for Inactive)
REMARK    1  A    between atoms: N2_5  and  C4_6 
REMARK    2  A    between atoms: C4_6  and  C5_7 
REMARK    3  A    between atoms: C6_8  and  C7_9 
REMARK       I    between atoms: C7_9  and  N3_11 
REMARK    4  A    between atoms: C14_23  and  N6_24 
REMARK    5  A    between atoms: N6_24  and  C15_25 
REMARK    6  A    between atoms: C15_25  and  C16_26 
REMARK    7  A    between atoms: C15_25  and  C17_28 
REMARK    8  A    between atoms: C16_26  and  O2_27 
ROOT
HETATM    1  C7  UNL     1      -2.051   7.983  14.015  1.00  0.00     0.243 C 
HETATM    2  O1  UNL     1      -2.368   8.717  14.948  1.00  0.00    -0.268 OA
HETATM    3  N3  UNL     1      -2.643   6.747  13.799  1.00  0.00    -0.344 N 
HETATM    4  C8  UNL     1      -3.495   6.201  14.869  1.00  0.00     0.131 C 
HETATM    5  C9  UNL     1      -4.814   5.627  14.332  1.00  0.00     0.060 C 
HETATM    6  C10 UNL     1      -4.554   4.721  13.166  1.00  0.00    -0.025 A 
HETATM    7  C11 UNL     1      -3.376   4.843  12.451  1.00  0.00     0.010 A 
HETATM    8  S1  UNL     1      -3.258   3.698  11.198  1.00  0.00    -0.074 SA
HETATM    9  C12 UNL     1      -4.781   3.034  11.583  1.00  0.00     0.089 A 
HETATM   10  N4  UNL     1      -5.256   1.996  10.877  1.00  0.00    -0.346 N 
ATOM     11  H4  UNL     1      -4.759   1.560  10.101  1.00  0.00     0.167 HD
HETATM   12  C13 UNL     1      -6.455   1.604  11.310  1.00  0.00     0.182 A 
HETATM   13  N5  UNL     1      -7.181   2.138  12.301  1.00  0.00    -0.342 N 
ATOM     14  H5  UNL     1      -8.098   1.755  12.531  1.00  0.00     0.167 HD
HETATM   15  C14 UNL     1      -6.688   3.190  12.993  1.00  0.00     0.095 A 
HETATM   16  C23 UNL     1      -5.406   3.677  12.644  1.00  0.00     0.043 A 
HETATM   17  C24 UNL     1      -2.280   5.832  12.705  1.00  0.00     0.172 C 
ENDROOT
BRANCH   1  18
HETATM   18  C6  UNL     1      -0.982   8.407  13.068  1.00  0.00     0.072 C 
HETATM   19  C5  UNL     1       0.311   8.277  13.408  1.00  0.00     0.008 C 
BRANCH  19  20
HETATM   20  C4  UNL     1       1.460   8.647  12.519  1.00  0.00     0.300 C 
BRANCH  20  21
HETATM   21  N2  UNL     1       2.386   7.528  12.337  1.00  0.00     0.095 N 
HETATM   22  C3  UNL     1       3.360   7.828  11.266  1.00  0.00     0.303 C 
HETATM   23  C2  UNL     1       4.015   6.562  10.672  1.00  0.00     0.302 C 
HETATM   24  N1  UNL     1       3.055   5.623  10.056  1.00  0.00     0.087 N 
HETATM   25  C1  UNL     1       3.031   5.736   8.602  1.00  0.00     0.310 C 
HETATM   26  C26 UNL     1       1.700   5.790  10.618  1.00  0.00     0.302 C 
HETATM   27  C25 UNL     1       1.707   6.236  12.098  1.00  0.00     0.303 C 
ENDBRANCH  20  21
ENDBRANCH  19  20
ENDBRANCH   1  18
BRANCH  15  28
HETATM   28  N6  UNL     1      -7.438   3.770  14.023  1.00  0.00    -0.267 NA
HETATM   29  H17 UNL     1      -7.115   3.400  14.917  1.00  0.00     0.130 HD
BRANCH  28  30
HETATM   30  C15 UNL     1      -7.454   5.240  14.085  1.00  0.00     0.118 C 
BRANCH  30  31
HETATM   31  C16 UNL     1      -7.711   5.655  15.557  1.00  0.00     0.188 C 
BRANCH  31  32
HETATM   32  O2  UNL     1      -8.289   4.562  16.284  1.00  0.00    -0.399 OA
HETATM   33  H21 UNL     1      -8.390   4.865  17.204  1.00  0.00     0.209 HD
ENDBRANCH  31  32
ENDBRANCH  30  31
BRANCH  30  34
HETATM   34  C17 UNL     1      -8.533   5.842  13.198  1.00  0.00    -0.038 A 
HETATM   35  C18 UNL     1      -9.607   6.533  13.777  1.00  0.00     0.009 A 
HETATM   36  C19 UNL     1     -10.626   7.063  12.980  1.00  0.00     0.001 A 
HETATM   37  C20 UNL     1     -10.583   6.906  11.597  1.00  0.00     0.000 A 
HETATM   38  C21 UNL     1      -9.523   6.223  11.007  1.00  0.00     0.001 A 
HETATM   39  C22 UNL     1      -8.504   5.693  11.801  1.00  0.00     0.009 A 
ENDBRANCH  30  34
ENDBRANCH  28  30
ENDBRANCH  15  28
TORSDOF 8
ENDMDL
MODEL 2
REMARK minimizedAffinity -9.51952648
REMARK  8 active torsions:
REMARK  status: ('A' for Active; 'I' for Inactive)
REMARK    1  A    between atoms: N2_5  and  C4_6 
REMARK    2  A    between atoms: C4_6  and  C5_7 
REMARK    3  A    between atoms: C6_8  and  C7_9 
REMARK       I    between atoms: C7_9  and  N3_11 
REMARK    4  A    between atoms: C14_23  and  N6_24 
REMARK    5  A    between atoms: N6_24  and  C15_25 
REMARK    6  A    between atoms: C15_25  and  C16_26 
REMARK    7  A    between atoms: C15_25  and  C17_28 
REMARK    8  A    between atoms: C16_26  and  O2_27 
ROOT
HETATM    1  C7  UNL     1      -2.573   3.537  11.644  1.00  0.00     0.243 C 
HETATM    2  O1  UNL     1      -2.279   2.399  11.283  1.00  0.00    -0.268 OA
HETATM    3  N3  UNL     1      -1.634   4.431  12.141  1.00  0.00    -0.344 N 
HETATM    4  C8  UNL     1      -0.301   3.905  12.478  1.00  0.00     0.131 C 
HETATM    5  C9  UNL     1       0.831   4.803  11.959  1.00  0.00     0.060 C 
HETATM    6  C10 UNL     1       0.572   6.234  12.326  1.00  0.00    -0.025 A 
HETATM    7  C11 UNL     1      -0.716   6.646  12.619  1.00  0.00     0.010 A 
HETATM    8  S1  UNL     1      -0.787   8.290  13.049  1.00  0.00    -0.074 SA
HETATM    9  C12 UNL     1       0.895   8.478  12.836  1.00  0.00     0.089 A 
HETATM   10  N4  UNL     1       1.468   9.670  13.066  1.00  0.00    -0.346 N 
ATOM     11  H4  UNL     1       0.959  10.500  13.367  1.00  0.00     0.167 HD
HETATM   12  C13 UNL     1       2.785   9.640  12.852  1.00  0.00     0.182 A 
HETATM   13  N5  UNL     1       3.522   8.603  12.432  1.00  0.00    -0.342 N 
ATOM     14  H5  UNL     1       4.526   8.709  12.290  1.00  0.00     0.167 HD
HETATM   15  C14 UNL     1       2.921   7.414  12.197  1.00  0.00     0.095 A 
HETATM   16  C23 UNL     1       1.527   7.314  12.420  1.00  0.00     0.043 A 
HETATM   17  C24 UNL     1      -1.947   5.794  12.600  1.00  0.00     0.172 C 
ENDROOT
BRANCH   1  18
HETATM   18  C6  UNL     1      -3.987   3.999  11.566  1.00  0.00     0.072 C 
HETATM   19  C5  UNL     1      -4.887   3.573  12.468  1.00  0.00     0.008 C 
BRANCH  19  20
HETATM   20  C4  UNL     1      -6.324   3.999  12.494  1.00  0.00     0.300 C 
BRANCH  20  21
HETATM   21  N2  UNL     1      -6.460   5.429  12.772  1.00  0.00     0.095 N 
HETATM   22  C3  UNL     1      -5.851   5.765  14.077  1.00  0.00     0.303 C 
HETATM   23  C2  UNL     1      -6.381   7.089  14.670  1.00  0.00     0.302 C 
HETATM   24  N1  UNL     1      -7.837   7.093  14.920  1.00  0.00     0.087 N 
HETATM   25  C1  UNL     1      -8.154   6.870  16.326  1.00  0.00     0.310 C 
HETATM   26  C26 UNL     1      -8.536   6.115  14.063  1.00  0.00     0.302 C 
HETATM   27  C25 UNL     1      -7.854   5.915  12.690  1.00  0.00     0.303 C 
ENDBRANCH  20  21
ENDBRANCH  19  20
ENDBRANCH   1  18
BRANCH  15  28
HETATM   28  N6  UNL     1       3.672   6.323  11.746  1.00  0.00    -0.267 NA
HETATM   29  H17 UNL     1       3.051   5.524  11.615  1.00  0.00     0.130 HD
BRANCH  28  30
HETATM   30  C15 UNL     1       4.466   6.524  10.523  1.00  0.00     0.118 C 
BRANCH  30  31
HETATM   31  C16 UNL     1       5.530   7.613  10.815  1.00  0.00     0.188 C 
BRANCH  31  32
HETATM   32  O2  UNL     1       6.845   7.103  10.551  1.00  0.00    -0.399 OA
HETATM   33  H21 UNL     1       7.464   7.837  10.712  1.00  0.00     0.209 HD
ENDBRANCH  31  32
ENDBRANCH  30  31
BRANCH  30  34
HETATM   34  C17 UNL     1       3.609   6.962   9.346  1.00  0.00    -0.038 A 
HETATM   35  C18 UNL     1       2.864   6.011   8.632  1.00  0.00     0.009 A 
HETATM   36  C19 UNL     1       2.098   6.390   7.526  1.00  0.00     0.001 A 
HETATM   37  C20 UNL     1       2.069   7.722   7.120  1.00  0.00     0.000 A 
HETATM   38  C21 UNL     1       2.803   8.678   7.819  1.00  0.00     0.001 A 
HETATM   39  C22 UNL     1       3.569   8.302   8.923  1.00  0.00     0.009 A 
ENDBRANCH  30  34
ENDBRANCH  28  30
ENDBRANCH  15  28
TORSDOF 8
ENDMDL
MODEL 3
REMARK minimizedAffinity -9.345788
REMARK  8 active torsions:
REMARK  status: ('A' for Active; 'I' for Inactive)
REMARK    1  A    between atoms: N2_5  and  C4_6 
REMARK    2  A    between atoms: C4_6  and  C5_7 
REMARK    3  A    between atoms: C6_8  and  C7_9 
REMARK       I    between atoms: C7_9  and  N3_11 
REMARK    4  A    between atoms: C14_23  and  N6_24 
REMARK    5  A    between atoms: N6_24  and  C15_25 
REMARK    6  A    between atoms: C15_25  and  C16_26 
REMARK    7  A    between atoms: C15_25  and  C17_28 
REMARK    8  A    between atoms: C16_26  and  O2_27 
ROOT
HETATM    1  C7  UNL     1      -1.233   7.515  13.783  1.00  0.00     0.243 C 
HETATM    2  O1  UNL     1      -1.110   8.396  14.630  1.00  0.00    -0.268 OA
HETATM    3  N3  UNL     1      -2.233   6.554  13.840  1.00  0.00    -0.344 N 
HETATM    4  C8  UNL     1      -3.006   6.446  15.088  1.00  0.00     0.131 C 
HETATM    5  C9  UNL     1      -4.516   6.330  14.835  1.00  0.00     0.060 C 
HETATM    6  C10 UNL     1      -4.793   5.288  13.793  1.00  0.00    -0.025 A 
HETATM    7  C11 UNL     1      -3.795   4.919  12.909  1.00  0.00     0.010 A 
HETATM    8  S1  UNL     1      -4.299   3.697  11.839  1.00  0.00    -0.074 SA
HETATM    9  C12 UNL     1      -5.857   3.654  12.529  1.00  0.00     0.089 A 
HETATM   10  N4  UNL     1      -6.773   2.791  12.060  1.00  0.00    -0.346 N 
ATOM     11  H4  UNL     1      -6.602   2.138  11.297  1.00  0.00     0.167 HD
HETATM   12  C13 UNL     1      -7.933   2.891  12.712  1.00  0.00     0.182 A 
HETATM   13  N5  UNL     1      -8.243   3.737  13.704  1.00  0.00    -0.342 N 
ATOM     14  H5  UNL     1      -9.176   3.726  14.115  1.00  0.00     0.167 HD
HETATM   15  C14 UNL     1      -7.308   4.604  14.154  1.00  0.00     0.095 A 
HETATM   16  C23 UNL     1      -6.025   4.571  13.559  1.00  0.00     0.043 A 
HETATM   17  C24 UNL     1      -2.404   5.473  12.856  1.00  0.00     0.172 C 
ENDROOT
BRANCH   1  18
HETATM   18  C6  UNL     1      -0.278   7.444  12.642  1.00  0.00     0.072 C 
HETATM   19  C5  UNL     1       0.908   6.830  12.792  1.00  0.00     0.008 C 
BRANCH  19  20
HETATM   20  C4  UNL     1       1.926   6.680  11.701  1.00  0.00     0.300 C 
BRANCH  20  21
HETATM   21  N2  UNL     1       1.847   7.774  10.732  1.00  0.00     0.095 N 
HETATM   22  C3  UNL     1       0.749   7.537   9.771  1.00  0.00     0.303 C 
HETATM   23  C2  UNL     1       0.912   8.334   8.458  1.00  0.00     0.302 C 
HETATM   24  N1  UNL     1       2.144   8.011   7.710  1.00  0.00     0.087 N 
HETATM   25  C1  UNL     1       1.889   7.109   6.593  1.00  0.00     0.310 C 
HETATM   26  C26 UNL     1       3.188   7.464   8.599  1.00  0.00     0.302 C 
HETATM   27  C25 UNL     1       3.124   8.035  10.034  1.00  0.00     0.303 C 
ENDBRANCH  20  21
ENDBRANCH  19  20
ENDBRANCH   1  18
BRANCH  15  28
HETATM   28  N6  UNL     1      -7.618   5.503  15.180  1.00  0.00    -0.267 NA
HETATM   29  H17 UNL     1      -6.885   5.464  15.889  1.00  0.00     0.130 HD
BRANCH  28  30
HETATM   30  C15 UNL     1      -7.838   6.905  14.790  1.00  0.00     0.118 C 
BRANCH  30  31
HETATM   31  C16 UNL     1      -7.331   7.809  15.943  1.00  0.00     0.188 C 
BRANCH  31  32
HETATM   32  O2  UNL     1      -7.150   7.034  17.136  1.00  0.00    -0.399 OA
HETATM   33  H21 UNL     1      -6.795   7.641  17.809  1.00  0.00     0.209 HD
ENDBRANCH  31  32
ENDBRANCH  30  31
BRANCH  30  34
HETATM   34  C17 UNL     1      -9.305   7.205  14.524  1.00  0.00    -0.038 A 
HETATM   35  C18 UNL     1     -10.038   7.973  15.442  1.00  0.00     0.009 A 
HETATM   36  C19 UNL     1     -11.396   8.229  15.232  1.00  0.00     0.001 A 
HETATM   37  C20 UNL     1     -12.036   7.722  14.104  1.00  0.00     0.000 A 
HETATM   38  C21 UNL     1     -11.322   6.959  13.183  1.00  0.00     0.001 A 
HETATM   39  C22 UNL     1      -9.966   6.701  13.391  1.00  0.00     0.009 A 
ENDBRANCH  30  34
ENDBRANCH  28  30
ENDBRANCH  15  28
TORSDOF 8
ENDMDL
MODEL 4
REMARK minimizedAffinity -9.34507465
REMARK  8 active torsions:
REMARK  status: ('A' for Active; 'I' for Inactive)
REMARK    1  A    between atoms: N2_5  and  C4_6 
REMARK    2  A    between atoms: C4_6  and  C5_7 
REMARK    3  A    between atoms: C6_8  and  C7_9 
REMARK       I    between atoms: C7_9  and  N3_11 
REMARK    4  A    between atoms: C14_23  and  N6_24 
REMARK    5  A    between atoms: N6_24  and  C15_25 
REMARK    6  A    between atoms: C15_25  and  C16_26 
REMARK    7  A    between atoms: C15_25  and  C17_28 
REMARK    8  A    between atoms: C16_26  and  O2_27 
ROOT
HETATM    1  C7  UNL     1      -1.538   7.530  13.777  1.00  0.00     0.243 C 
HETATM    2  O1  UNL     1      -1.842   8.461  14.519  1.00  0.00    -0.268 OA
HETATM    3  N3  UNL     1      -2.305   6.379  13.667  1.00  0.00    -0.344 N 
HETATM    4  C8  UNL     1      -3.374   6.172  14.659  1.00  0.00     0.131 C 
HETATM    5  C9  UNL     1      -4.691   5.715  14.015  1.00  0.00     0.060 C 
HETATM    6  C10 UNL     1      -4.442   4.583  13.064  1.00  0.00    -0.025 A 
HETATM    7  C11 UNL     1      -3.177   4.393  12.537  1.00  0.00     0.010 A 
HETATM    8  S1  UNL     1      -3.099   3.034  11.517  1.00  0.00    -0.074 SA
HETATM    9  C12 UNL     1      -4.752   2.689  11.753  1.00  0.00     0.089 A 
HETATM   10  N4  UNL     1      -5.304   1.623  11.153  1.00  0.00    -0.346 N 
ATOM     11  H4  UNL     1      -4.794   0.982  10.546  1.00  0.00     0.167 HD
HETATM   12  C13 UNL     1      -6.600   1.502  11.445  1.00  0.00     0.182 A 
HETATM   13  N5  UNL     1      -7.346   2.311  12.209  1.00  0.00    -0.342 N 
ATOM     14  H5  UNL     1      -8.338   2.119  12.346  1.00  0.00     0.167 HD
HETATM   15  C14 UNL     1      -6.771   3.385  12.796  1.00  0.00     0.095 A 
HETATM   16  C23 UNL     1      -5.388   3.602  12.584  1.00  0.00     0.043 A 
HETATM   17  C24 UNL     1      -1.968   5.235  12.805  1.00  0.00     0.172 C 
ENDROOT
BRANCH   1  18
HETATM   18  C6  UNL     1      -0.296   7.608  12.959  1.00  0.00     0.072 C 
HETATM   19  C5  UNL     1       0.833   7.021  13.389  1.00  0.00     0.008 C 
BRANCH  19  20
HETATM   20  C4  UNL     1       2.126   7.017  12.630  1.00  0.00     0.300 C 
BRANCH  20  21
HETATM   21  N2  UNL     1       2.025   6.242  11.393  1.00  0.00     0.095 N 
HETATM   22  C3  UNL     1       3.234   6.429  10.563  1.00  0.00     0.303 C 
HETATM   23  C2  UNL     1       3.005   6.085   9.074  1.00  0.00     0.302 C 
HETATM   24  N1  UNL     1       1.967   6.909   8.422  1.00  0.00     0.087 N 
HETATM   25  C1  UNL     1       2.542   7.977   7.611  1.00  0.00     0.310 C 
HETATM   26  C26 UNL     1       1.010   7.453   9.406  1.00  0.00     0.302 C 
HETATM   27  C25 UNL     1       0.796   6.523  10.621  1.00  0.00     0.303 C 
ENDBRANCH  20  21
ENDBRANCH  19  20
ENDBRANCH   1  18
BRANCH  15  28
HETATM   28  N6  UNL     1      -7.536   4.249  13.587  1.00  0.00    -0.267 NA
HETATM   29  H17 UNL     1      -6.912   4.889  14.079  1.00  0.00     0.130 HD
BRANCH  28  30
HETATM   30  C15 UNL     1      -8.582   5.025  12.902  1.00  0.00     0.118 C 
BRANCH  30  31
HETATM   31  C16 UNL     1      -8.014   5.496  11.538  1.00  0.00     0.188 C 
BRANCH  31  32
HETATM   32  O2  UNL     1      -9.077   5.960  10.694  1.00  0.00    -0.399 OA
HETATM   33  H21 UNL     1      -8.660   6.278   9.873  1.00  0.00     0.209 HD
ENDBRANCH  31  32
ENDBRANCH  30  31
BRANCH  30  34
HETATM   34  C17 UNL     1      -9.021   6.237  13.708  1.00  0.00    -0.038 A 
HETATM   35  C18 UNL     1      -8.082   6.942  14.476  1.00  0.00     0.009 A 
HETATM   36  C19 UNL     1      -8.474   8.037  15.251  1.00  0.00     0.001 A 
HETATM   37  C20 UNL     1      -9.807   8.439  15.268  1.00  0.00     0.000 A 
HETATM   38  C21 UNL     1     -10.751   7.750  14.510  1.00  0.00     0.001 A 
HETATM   39  C22 UNL     1     -10.362   6.656  13.736  1.00  0.00     0.009 A 
ENDBRANCH  30  34
ENDBRANCH  28  30
ENDBRANCH  15  28
TORSDOF 8
ENDMDL
MODEL 5
REMARK minimizedAffinity -9.32496834
REMARK  8 active torsions:
REMARK  status: ('A' for Active; 'I' for Inactive)
REMARK    1  A    between atoms: N2_5  and  C4_6 
REMARK    2  A    between atoms: C4_6  and  C5_7 
REMARK    3  A    between atoms: C6_8  and  C7_9 
REMARK       I    between atoms: C7_9  and  N3_11 
REMARK    4  A    between atoms: C14_23  and  N6_24 
REMARK    5  A    between atoms: N6_24  and  C15_25 
REMARK    6  A    between atoms: C15_25  and  C16_26 
REMARK    7  A    between atoms: C15_25  and  C17_28 
REMARK    8  A    between atoms: C16_26  and  O2_27 
ROOT
HETATM    1  C7  UNL     1       0.264   7.546  11.708  1.00  0.00     0.243 C 
HETATM    2  O1  UNL     1       0.225   8.621  12.302  1.00  0.00    -0.268 OA
HETATM    3  N3  UNL     1      -0.602   6.499  11.993  1.00  0.00    -0.344 N 
HETATM    4  C8  UNL     1      -1.419   6.602  13.214  1.00  0.00     0.131 C 
HETATM    5  C9  UNL     1      -2.885   6.214  12.973  1.00  0.00     0.060 C 
HETATM    6  C10 UNL     1      -2.965   4.914  12.230  1.00  0.00    -0.025 A 
HETATM    7  C11 UNL     1      -1.882   4.478  11.488  1.00  0.00     0.010 A 
HETATM    8  S1  UNL     1      -2.163   2.967  10.760  1.00  0.00    -0.074 SA
HETATM    9  C12 UNL     1      -3.736   2.880  11.411  1.00  0.00     0.089 A 
HETATM   10  N4  UNL     1      -4.504   1.806  11.165  1.00  0.00    -0.346 N 
ATOM     11  H4  UNL     1      -4.208   1.012  10.598  1.00  0.00     0.167 HD
HETATM   12  C13 UNL     1      -5.699   1.902  11.749  1.00  0.00     0.182 A 
HETATM   13  N5  UNL     1      -6.171   2.918  12.484  1.00  0.00    -0.342 N 
ATOM     14  H5  UNL     1      -7.115   2.880  12.868  1.00  0.00     0.167 HD
HETATM   15  C14 UNL     1      -5.384   3.994  12.711  1.00  0.00     0.095 A 
HETATM   16  C23 UNL     1      -4.078   3.994  12.167  1.00  0.00     0.043 A 
HETATM   17  C24 UNL     1      -0.576   5.192  11.318  1.00  0.00     0.172 C 
ENDROOT
BRANCH   1  18
HETATM   18  C6  UNL     1       1.280   7.325  10.640  1.00  0.00     0.072 C 
HETATM   19  C5  UNL     1       2.554   7.052  10.967  1.00  0.00     0.008 C 
BRANCH  19  20
HETATM   20  C4  UNL     1       3.643   6.787   9.972  1.00  0.00     0.300 C 
BRANCH  20  21
HETATM   21  N2  UNL     1       4.910   7.394  10.382  1.00  0.00     0.095 N 
HETATM   22  C3  UNL     1       5.708   6.442  11.183  1.00  0.00     0.303 C 
HETATM   23  C2  UNL     1       6.775   7.134  12.060  1.00  0.00     0.302 C 
HETATM   24  N1  UNL     1       6.217   8.082  13.046  1.00  0.00     0.087 N 
HETATM   25  C1  UNL     1       6.152   7.508  14.385  1.00  0.00     0.310 C 
HETATM   26  C26 UNL     1       4.895   8.585  12.624  1.00  0.00     0.302 C 
HETATM   27  C25 UNL     1       4.744   8.682  11.089  1.00  0.00     0.303 C 
ENDBRANCH  20  21
ENDBRANCH  19  20
ENDBRANCH   1  18
BRANCH  15  28
HETATM   28  N6  UNL     1      -5.864   5.070  13.466  1.00  0.00    -0.267 NA
HETATM   29  H17 UNL     1      -5.658   5.940  12.973  1.00  0.00     0.130 HD
BRANCH  28  30
HETATM   30  C15 UNL     1      -7.291   5.046  13.824  1.00  0.00     0.118 C 
BRANCH  30  31
HETATM   31  C16 UNL     1      -8.096   4.643  12.562  1.00  0.00     0.188 C 
BRANCH  31  32
HETATM   32  O2  UNL     1      -8.916   3.500  12.843  1.00  0.00    -0.399 OA
HETATM   33  H21 UNL     1      -9.425   3.318  12.032  1.00  0.00     0.209 HD
ENDBRANCH  31  32
ENDBRANCH  30  31
BRANCH  30  34
HETATM   34  C17 UNL     1      -7.783   6.395  14.325  1.00  0.00    -0.038 A 
HETATM   35  C18 UNL     1      -6.859   7.406  14.629  1.00  0.00     0.009 A 
HETATM   36  C19 UNL     1      -7.290   8.640  15.123  1.00  0.00     0.001 A 
HETATM   37  C20 UNL     1      -8.648   8.877  15.319  1.00  0.00     0.000 A 
HETATM   38  C21 UNL     1      -9.578   7.884  15.021  1.00  0.00     0.001 A 
HETATM   39  C22 UNL     1      -9.150   6.651  14.528  1.00  0.00     0.009 A 
ENDBRANCH  30  34
ENDBRANCH  28  30
ENDBRANCH  15  28
TORSDOF 8
ENDMDL
MODEL 6
REMARK minimizedAffinity -9.22961903
REMARK  8 active torsions:
REMARK  status: ('A' for Active; 'I' for Inactive)
REMARK    1  A    between atoms: N2_5  and  C4_6 
REMARK    2  A    between atoms: C4_6  and  C5_7 
REMARK    3  A    between atoms: C6_8  and  C7_9 
REMARK       I    between atoms: C7_9  and  N3_11 
REMARK    4  A    between atoms: C14_23  and  N6_24 
REMARK    5  A    between atoms: N6_24  and  C15_25 
REMARK    6  A    between atoms: C15_25  and  C16_26 
REMARK    7  A    between atoms: C15_25  and  C17_28 
REMARK    8  A    between atoms: C16_26  and  O2_27 
ROOT
HETATM    1  C7  UNL     1      -4.818   3.481  11.715  1.00  0.00     0.243 C 
HETATM    2  O1  UNL     1      -5.193   3.030  10.636  1.00  0.00    -0.268 OA
HETATM    3  N3  UNL     1      -3.496   3.826  11.965  1.00  0.00    -0.344 N 
HETATM    4  C8  UNL     1      -2.482   3.397  10.987  1.00  0.00     0.131 C 
HETATM    5  C9  UNL     1      -1.492   4.519  10.640  1.00  0.00     0.060 C 
HETATM    6  C10 UNL     1      -0.975   5.165  11.891  1.00  0.00    -0.025 A 
HETATM    7  C11 UNL     1      -1.695   5.059  13.067  1.00  0.00     0.010 A 
HETATM    8  S1  UNL     1      -0.917   5.823  14.372  1.00  0.00    -0.074 SA
HETATM    9  C12 UNL     1       0.381   6.318  13.384  1.00  0.00     0.089 A 
HETATM   10  N4  UNL     1       1.400   7.012  13.917  1.00  0.00    -0.346 N 
ATOM     11  H4  UNL     1       1.459   7.275  14.900  1.00  0.00     0.167 HD
HETATM   12  C13 UNL     1       2.327   7.316  13.006  1.00  0.00     0.182 A 
HETATM   13  N5  UNL     1       2.312   7.031  11.697  1.00  0.00    -0.342 N 
ATOM     14  H5  UNL     1       3.079   7.332  11.097  1.00  0.00     0.167 HD
HETATM   15  C14 UNL     1       1.271   6.339  11.181  1.00  0.00     0.095 A 
HETATM   16  C23 UNL     1       0.238   5.933  12.058  1.00  0.00     0.043 A 
HETATM   17  C24 UNL     1      -3.003   4.352  13.248  1.00  0.00     0.172 C 
ENDROOT
BRANCH   1  18
HETATM   18  C6  UNL     1      -5.796   3.667  12.823  1.00  0.00     0.072 C 
HETATM   19  C5  UNL     1      -6.985   4.244  12.583  1.00  0.00     0.008 C 
BRANCH  19  20
HETATM   20  C4  UNL     1      -8.049   4.451  13.619  1.00  0.00     0.300 C 
BRANCH  20  21
HETATM   21  N2  UNL     1      -7.942   5.768  14.248  1.00  0.00     0.095 N 
HETATM   22  C3  UNL     1      -7.031   6.640  13.476  1.00  0.00     0.303 C 
HETATM   23  C2  UNL     1      -6.471   7.816  14.306  1.00  0.00     0.302 C 
HETATM   24  N1  UNL     1      -5.685   7.398  15.484  1.00  0.00     0.087 N 
HETATM   25  C1  UNL     1      -4.249   7.483  15.246  1.00  0.00     0.310 C 
HETATM   26  C26 UNL     1      -6.063   6.043  15.934  1.00  0.00     0.302 C 
HETATM   27  C25 UNL     1      -7.550   5.711  15.673  1.00  0.00     0.303 C 
ENDBRANCH  20  21
ENDBRANCH  19  20
ENDBRANCH   1  18
BRANCH  15  28
HETATM   28  N6  UNL     1       1.232   6.043   9.813  1.00  0.00    -0.267 NA
HETATM   29  H17 UNL     1       0.374   6.426   9.416  1.00  0.00     0.130 HD
BRANCH  28  30
HETATM   30  C15 UNL     1       2.379   6.486   9.005  1.00  0.00     0.118 C 
BRANCH  30  31
HETATM   31  C16 UNL     1       1.845   7.408   7.878  1.00  0.00     0.188 C 
BRANCH  31  32
HETATM   32  O2  UNL     1       2.653   8.589   7.782  1.00  0.00    -0.399 OA
HETATM   33  H21 UNL     1       2.298   9.107   7.038  1.00  0.00     0.209 HD
ENDBRANCH  31  32
ENDBRANCH  30  31
BRANCH  30  34
HETATM   34  C17 UNL     1       3.131   5.319   8.385  1.00  0.00    -0.038 A 
HETATM   35  C18 UNL     1       3.012   5.062   7.011  1.00  0.00     0.009 A 
HETATM   36  C19 UNL     1       3.668   3.973   6.431  1.00  0.00     0.001 A 
HETATM   37  C20 UNL     1       4.450   3.129   7.216  1.00  0.00     0.000 A 
HETATM   38  C21 UNL     1       4.579   3.372   8.581  1.00  0.00     0.001 A 
HETATM   39  C22 UNL     1       3.924   4.458   9.164  1.00  0.00     0.009 A 
ENDBRANCH  30  34
ENDBRANCH  28  30
ENDBRANCH  15  28
TORSDOF 8
ENDMDL
MODEL 7
REMARK minimizedAffinity -9.14926434
REMARK  8 active torsions:
REMARK  status: ('A' for Active; 'I' for Inactive)
REMARK    1  A    between atoms: N2_5  and  C4_6 
REMARK    2  A    between atoms: C4_6  and  C5_7 
REMARK    3  A    between atoms: C6_8  and  C7_9 
REMARK       I    between atoms: C7_9  and  N3_11 
REMARK    4  A    between atoms: C14_23  and  N6_24 
REMARK    5  A    between atoms: N6_24  and  C15_25 
REMARK    6  A    between atoms: C15_25  and  C16_26 
REMARK    7  A    between atoms: C15_25  and  C17_28 
REMARK    8  A    between atoms: C16_26  and  O2_27 
ROOT
HETATM    1  C7  UNL     1       0.440   4.689  11.601  1.00  0.00     0.243 C 
HETATM    2  O1  UNL     1       0.301   3.482  11.419  1.00  0.00    -0.268 OA
HETATM    3  N3  UNL     1      -0.613   5.519  11.962  1.00  0.00    -0.344 N 
HETATM    4  C8  UNL     1      -1.976   4.970  11.874  1.00  0.00     0.131 C 
HETATM    5  C9  UNL     1      -2.821   5.297  13.114  1.00  0.00     0.060 C 
HETATM    6  C10 UNL     1      -2.715   6.755  13.449  1.00  0.00    -0.025 A 
HETATM    7  C11 UNL     1      -1.635   7.488  12.991  1.00  0.00     0.010 A 
HETATM    8  S1  UNL     1      -1.725   9.124  13.444  1.00  0.00    -0.074 SA
HETATM    9  C12 UNL     1      -3.197   8.875  14.268  1.00  0.00     0.089 A 
HETATM   10  N4  UNL     1      -3.810   9.907  14.871  1.00  0.00    -0.346 N 
ATOM     11  H4  UNL     1      -3.450  10.861  14.874  1.00  0.00     0.167 HD
HETATM   12  C13 UNL     1      -4.945   9.536  15.465  1.00  0.00     0.182 A 
HETATM   13  N5  UNL     1      -5.470   8.305  15.529  1.00  0.00    -0.342 N 
ATOM     14  H5  UNL     1      -6.344   8.144  16.029  1.00  0.00     0.167 HD
HETATM   15  C14 UNL     1      -4.831   7.279  14.923  1.00  0.00     0.095 A 
HETATM   16  C23 UNL     1      -3.628   7.555  14.231  1.00  0.00     0.043 A 
HETATM   17  C24 UNL     1      -0.493   6.971  12.171  1.00  0.00     0.172 C 
ENDROOT
BRANCH   1  18
HETATM   18  C6  UNL     1       1.779   5.318  11.423  1.00  0.00     0.072 C 
HETATM   19  C5  UNL     1       2.249   5.566  10.190  1.00  0.00     0.008 C 
BRANCH  19  20
HETATM   20  C4  UNL     1       3.568   6.219   9.904  1.00  0.00     0.300 C 
BRANCH  20  21
HETATM   21  N2  UNL     1       4.096   6.912  11.080  1.00  0.00     0.095 N 
HETATM   22  C3  UNL     1       3.916   8.373  10.946  1.00  0.00     0.303 C 
HETATM   23  C2  UNL     1       4.867   9.186  11.853  1.00  0.00     0.302 C 
HETATM   24  N1  UNL     1       6.299   8.955  11.580  1.00  0.00     0.087 N 
HETATM   25  C1  UNL     1       6.888  10.026  10.784  1.00  0.00     0.310 C 
HETATM   26  C26 UNL     1       6.523   7.642  10.941  1.00  0.00     0.302 C 
HETATM   27  C25 UNL     1       5.502   6.570  11.384  1.00  0.00     0.303 C 
ENDBRANCH  20  21
ENDBRANCH  19  20
ENDBRANCH   1  18
BRANCH  15  28
HETATM   28  N6  UNL     1      -5.358   5.984  14.989  1.00  0.00    -0.267 NA
HETATM   29  H17 UNL     1      -5.387   5.687  15.965  1.00  0.00     0.130 HD
BRANCH  28  30
HETATM   30  C15 UNL     1      -6.682   5.774  14.381  1.00  0.00     0.118 C 
BRANCH  30  31
HETATM   31  C16 UNL     1      -7.722   5.657  15.525  1.00  0.00     0.188 C 
BRANCH  31  32
HETATM   32  O2  UNL     1      -7.648   4.358  16.129  1.00  0.00    -0.399 OA
HETATM   33  H21 UNL     1      -8.290   4.356  16.861  1.00  0.00     0.209 HD
ENDBRANCH  31  32
ENDBRANCH  30  31
BRANCH  30  34
HETATM   34  C17 UNL     1      -6.730   4.517  13.527  1.00  0.00    -0.038 A 
HETATM   35  C18 UNL     1      -7.928   3.794  13.415  1.00  0.00     0.009 A 
HETATM   36  C19 UNL     1      -7.982   2.617  12.664  1.00  0.00     0.001 A 
HETATM   37  C20 UNL     1      -6.841   2.149  12.016  1.00  0.00     0.000 A 
HETATM   38  C21 UNL     1      -5.645   2.856  12.117  1.00  0.00     0.001 A 
HETATM   39  C22 UNL     1      -5.588   4.031  12.868  1.00  0.00     0.009 A 
ENDBRANCH  30  34
ENDBRANCH  28  30
ENDBRANCH  15  28
TORSDOF 8
ENDMDL
MODEL 8
REMARK minimizedAffinity -9.08321857
REMARK  8 active torsions:
REMARK  status: ('A' for Active; 'I' for Inactive)
REMARK    1  A    between atoms: N2_5  and  C4_6 
REMARK    2  A    between atoms: C4_6  and  C5_7 
REMARK    3  A    between atoms: C6_8  and  C7_9 
REMARK       I    between atoms: C7_9  and  N3_11 
REMARK    4  A    between atoms: C14_23  and  N6_24 
REMARK    5  A    between atoms: N6_24  and  C15_25 
REMARK    6  A    between atoms: C15_25  and  C16_26 
REMARK    7  A    between atoms: C15_25  and  C17_28 
REMARK    8  A    between atoms: C16_26  and  O2_27 
ROOT
HETATM    1  C7  UNL     1      -7.196   4.248  12.723  1.00  0.00     0.243 C 
HETATM    2  O1  UNL     1      -7.142   3.108  12.267  1.00  0.00    -0.268 OA
HETATM    3  N3  UNL     1      -6.064   4.964  13.086  1.00  0.00    -0.344 N 
HETATM    4  C8  UNL     1      -4.788   4.234  13.158  1.00  0.00     0.131 C 
HETATM    5  C9  UNL     1      -3.637   4.999  12.488  1.00  0.00     0.060 C 
HETATM    6  C10 UNL     1      -3.612   6.423  12.957  1.00  0.00    -0.025 A 
HETATM    7  C11 UNL     1      -4.755   6.990  13.491  1.00  0.00     0.010 A 
HETATM    8  S1  UNL     1      -4.505   8.594  13.998  1.00  0.00    -0.074 SA
HETATM    9  C12 UNL     1      -2.875   8.559  13.500  1.00  0.00     0.089 A 
HETATM   10  N4  UNL     1      -2.098   9.639  13.677  1.00  0.00    -0.346 N 
ATOM     11  H4  UNL     1      -2.419  10.509  14.100  1.00  0.00     0.167 HD
HETATM   12  C13 UNL     1      -0.856   9.440  13.233  1.00  0.00     0.182 A 
HETATM   13  N5  UNL     1      -0.365   8.341  12.645  1.00  0.00    -0.342 N 
ATOM     14  H5  UNL     1       0.606   8.315  12.333  1.00  0.00     0.167 HD
HETATM   15  C14 UNL     1      -1.168   7.267  12.468  1.00  0.00     0.095 A 
HETATM   16  C23 UNL     1      -2.503   7.349  12.928  1.00  0.00     0.043 A 
HETATM   17  C24 UNL     1      -6.087   6.323  13.652  1.00  0.00     0.172 C 
ENDROOT
BRANCH   1  18
HETATM   18  C6  UNL     1      -8.517   4.908  12.916  1.00  0.00     0.072 C 
HETATM   19  C5  UNL     1      -8.883   5.929  12.123  1.00  0.00     0.008 C 
BRANCH  19  20
HETATM   20  C4  UNL     1     -10.199   6.642  12.216  1.00  0.00     0.300 C 
BRANCH  20  21
HETATM   21  N2  UNL     1     -10.654   6.760  13.602  1.00  0.00     0.095 N 
HETATM   22  C3  UNL     1     -12.116   6.975  13.652  1.00  0.00     0.303 C 
HETATM   23  C2  UNL     1     -12.590   7.605  14.980  1.00  0.00     0.302 C 
HETATM   24  N1  UNL     1     -12.003   8.932  15.257  1.00  0.00     0.087 N 
HETATM   25  C1  UNL     1     -12.925  10.018  14.946  1.00  0.00     0.310 C 
HETATM   26  C26 UNL     1     -10.719   9.114  14.550  1.00  0.00     0.302 C 
HETATM   27  C25 UNL     1      -9.933   7.795  14.372  1.00  0.00     0.303 C 
ENDBRANCH  20  21
ENDBRANCH  19  20
ENDBRANCH   1  18
BRANCH  15  28
HETATM   28  N6  UNL     1      -0.676   6.115  11.844  1.00  0.00    -0.267 NA
HETATM   29  H17 UNL     1      -1.164   5.984  10.957  1.00  0.00     0.130 HD
BRANCH  28  30
HETATM   30  C15 UNL     1       0.776   6.056  11.609  1.00  0.00     0.118 C 
BRANCH  30  31
HETATM   31  C16 UNL     1       1.477   6.863  12.732  1.00  0.00     0.188 C 
BRANCH  31  32
HETATM   32  O2  UNL     1       1.609   6.057  13.911  1.00  0.00    -0.399 OA
HETATM   33  H21 UNL     1       2.089   6.598  14.563  1.00  0.00     0.209 HD
ENDBRANCH  31  32
ENDBRANCH  30  31
BRANCH  30  34
HETATM   34  C17 UNL     1       1.164   6.633  10.257  1.00  0.00    -0.038 A 
HETATM   35  C18 UNL     1       2.348   6.212   9.632  1.00  0.00     0.009 A 
HETATM   36  C19 UNL     1       2.739   6.758   8.406  1.00  0.00     0.001 A 
HETATM   37  C20 UNL     1       1.953   7.730   7.792  1.00  0.00     0.000 A 
HETATM   38  C21 UNL     1       0.775   8.158   8.400  1.00  0.00     0.001 A 
HETATM   39  C22 UNL     1       0.383   7.615   9.624  1.00  0.00     0.009 A 
ENDBRANCH  30  34
ENDBRANCH  28  30
ENDBRANCH  15  28
TORSDOF 8
ENDMDL
MODEL 9
REMARK minimizedAffinity -9.06172276
REMARK  8 active torsions:
REMARK  status: ('A' for Active; 'I' for Inactive)
REMARK    1  A    between atoms: N2_5  and  C4_6 
REMARK    2  A    between atoms: C4_6  and  C5_7 
REMARK    3  A    between atoms: C6_8  and  C7_9 
REMARK       I    between atoms: C7_9  and  N3_11 
REMARK    4  A    between atoms: C14_23  and  N6_24 
REMARK    5  A    between atoms: N6_24  and  C15_25 
REMARK    6  A    between atoms: C15_25  and  C16_26 
REMARK    7  A    between atoms: C15_25  and  C17_28 
REMARK    8  A    between atoms: C16_26  and  O2_27 
ROOT
HETATM    1  C7  UNL     1      -6.342   7.952  14.762  1.00  0.00     0.243 C 
HETATM    2  O1  UNL     1      -6.029   9.084  15.125  1.00  0.00    -0.268 OA
HETATM    3  N3  UNL     1      -5.551   7.194  13.910  1.00  0.00    -0.344 N 
HETATM    4  C8  UNL     1      -4.437   7.872  13.228  1.00  0.00     0.131 C 
HETATM    5  C9  UNL     1      -3.138   7.054  13.273  1.00  0.00     0.060 C 
HETATM    6  C10 UNL     1      -3.399   5.635  12.865  1.00  0.00    -0.025 A 
HETATM    7  C11 UNL     1      -4.680   5.121  12.949  1.00  0.00     0.010 A 
HETATM    8  S1  UNL     1      -4.769   3.514  12.401  1.00  0.00    -0.074 SA
HETATM    9  C12 UNL     1      -3.099   3.477  12.057  1.00  0.00     0.089 A 
HETATM   10  N4  UNL     1      -2.546   2.367  11.542  1.00  0.00    -0.346 N 
ATOM     11  H4  UNL     1      -3.066   1.515  11.333  1.00  0.00     0.167 HD
HETATM   12  C13 UNL     1      -1.236   2.512  11.335  1.00  0.00     0.182 A 
HETATM   13  N5  UNL     1      -0.479   3.583  11.605  1.00  0.00    -0.342 N 
ATOM     14  H5  UNL     1       0.523   3.567  11.414  1.00  0.00     0.167 HD
HETATM   15  C14 UNL     1      -1.055   4.687  12.133  1.00  0.00     0.095 A 
HETATM   16  C23 UNL     1      -2.450   4.664  12.369  1.00  0.00     0.043 A 
HETATM   17  C24 UNL     1      -5.897   5.844  13.438  1.00  0.00     0.172 C 
ENDROOT
BRANCH   1  18
HETATM   18  C6  UNL     1      -7.620   7.348  15.233  1.00  0.00     0.072 C 
HETATM   19  C5  UNL     1      -8.795   7.841  14.809  1.00  0.00     0.008 C 
BRANCH  19  20
HETATM   20  C4  UNL     1     -10.133   7.290  15.199  1.00  0.00     0.300 C 
BRANCH  20  21
HETATM   21  N2  UNL     1     -11.071   7.298  14.075  1.00  0.00     0.095 N 
HETATM   22  C3  UNL     1     -11.249   8.672  13.558  1.00  0.00     0.303 C 
HETATM   23  C2  UNL     1     -12.555   8.850  12.753  1.00  0.00     0.302 C 
HETATM   24  N1  UNL     1     -13.781   8.577  13.529  1.00  0.00     0.087 N 
HETATM   25  C1  UNL     1     -14.432   9.803  13.979  1.00  0.00     0.310 C 
HETATM   26  C26 UNL     1     -13.510   7.678  14.669  1.00  0.00     0.302 C 
HETATM   27  C25 UNL     1     -12.372   6.670  14.389  1.00  0.00     0.303 C 
ENDBRANCH  20  21
ENDBRANCH  19  20
ENDBRANCH   1  18
BRANCH  15  28
HETATM   28  N6  UNL     1      -0.278   5.811  12.434  1.00  0.00    -0.267 NA
HETATM   29  H17 UNL     1      -0.175   5.883  13.447  1.00  0.00     0.130 HD
BRANCH  28  30
HETATM   30  C15 UNL     1       1.052   5.886  11.807  1.00  0.00     0.118 C 
BRANCH  30  31
HETATM   31  C16 UNL     1       2.004   6.617  12.789  1.00  0.00     0.188 C 
BRANCH  31  32
HETATM   32  O2  UNL     1       1.725   6.217  14.137  1.00  0.00    -0.399 OA
HETATM   33  H21 UNL     1       2.375   6.673  14.701  1.00  0.00     0.209 HD
ENDBRANCH  31  32
ENDBRANCH  30  31
BRANCH  30  34
HETATM   34  C17 UNL     1       1.023   6.635  10.484  1.00  0.00    -0.038 A 
HETATM   35  C18 UNL     1       1.970   6.336   9.492  1.00  0.00     0.009 A 
HETATM   36  C19 UNL     1       1.981   7.038   8.284  1.00  0.00     0.001 A 
HETATM   37  C20 UNL     1       1.047   8.046   8.053  1.00  0.00     0.000 A 
HETATM   38  C21 UNL     1       0.101   8.353   9.028  1.00  0.00     0.001 A 
HETATM   39  C22 UNL     1       0.088   7.654  10.235  1.00  0.00     0.009 A 
ENDBRANCH  30  34
ENDBRANCH  28  30
ENDBRANCH  15  28
TORSDOF 8
ENDMDL
