MODEL 1
REMARK minimizedAffinity -6.48475409
REMARK CNNscore 0.768370748
REMARK CNNaffinity 5.32462263
REMARK  8 active torsions:
REMARK  status: ('A' for Active; 'I' for Inactive)
REMARK    1  A    between atoms: C2_2  and  C3_3 
REMARK    2  A    between atoms: C3_3  and  O1_4 
REMARK    3  A    between atoms: O1_4  and  C4_5 
REMARK    4  A    between atoms: C9_14  and  N3_15 
REMARK    5  A    between atoms: N3_15  and  C10_16 
REMARK    6  A    between atoms: C13_19  and  O2_20 
REMARK    7  A    between atoms: O2_20  and  C14_21 
REMARK    8  A    between atoms: C14_21  and  C15_22 
ROOT
HETATM    1  C4  UNL     1      19.957  50.908   8.448  1.00  0.00     0.070 A 
HETATM    2  C5  UNL     1      20.182  49.564   8.187  1.00  0.00     0.039 A 
HETATM    3  C6  UNL     1      19.475  48.927   7.158  1.00  0.00     0.033 A 
HETATM    4  C7  UNL     1      18.547  49.599   6.372  1.00  0.00     0.047 A 
HETATM    5  N1  UNL     1      17.910  48.918   5.417  1.00  0.00    -0.352 N 
ATOM      6  H1  UNL     1      18.094  47.928   5.250  1.00  0.00     0.166 HD
HETATM    7  C8  UNL     1      17.020  49.600   4.690  1.00  0.00     0.182 A 
HETATM    8  N2  UNL     1      16.718  50.894   4.822  1.00  0.00    -0.338 N 
ATOM      9  H2  UNL     1      16.023  51.343   4.225  1.00  0.00     0.168 HD
HETATM   10  C9  UNL     1      17.372  51.578   5.778  1.00  0.00     0.119 A 
HETATM   11  C23 UNL     1      18.320  50.958   6.618  1.00  0.00     0.037 A 
HETATM   12  C24 UNL     1      19.028  51.599   7.668  1.00  0.00     0.054 A 
ENDROOT
BRANCH  10  13
HETATM   13  N3  UNL     1      17.117  52.968   5.943  1.00  0.00    -0.342 N 
HETATM   14  H9  UNL     1      17.987  53.435   6.174  1.00  0.00     0.167 HD
BRANCH  13  15
HETATM   15  C10 UNL     1      16.264  53.804   5.191  1.00  0.00     0.033 A 
HETATM   16  C11 UNL     1      16.829  54.788   4.367  1.00  0.00     0.032 A 
HETATM   17  C12 UNL     1      16.029  55.686   3.647  1.00  0.00     0.039 A 
HETATM   18  C13 UNL     1      14.643  55.629   3.755  1.00  0.00     0.069 A 
HETATM   19  C21 UNL     1      14.071  54.689   4.611  1.00  0.00     0.039 A 
HETATM   20  C22 UNL     1      14.873  53.792   5.327  1.00  0.00     0.032 A 
BRANCH  18  21
HETATM   21  O2  UNL     1      13.751  56.450   3.124  1.00  0.00    -0.347 OA
BRANCH  21  22
HETATM   22  C14 UNL     1      14.213  57.200   1.997  1.00  0.00     0.214 C 
BRANCH  22  23
HETATM   23  C15 UNL     1      14.054  56.473   0.678  1.00  0.00    -0.034 A 
HETATM   24  C16 UNL     1      12.790  56.241   0.117  1.00  0.00     0.009 A 
HETATM   25  C17 UNL     1      12.663  55.546  -1.086  1.00  0.00     0.001 A 
HETATM   26  C18 UNL     1      13.797  55.063  -1.736  1.00  0.00     0.000 A 
HETATM   27  C19 UNL     1      15.058  55.272  -1.182  1.00  0.00     0.001 A 
HETATM   28  C20 UNL     1      15.186  55.968   0.021  1.00  0.00     0.009 A 
ENDBRANCH  22  23
ENDBRANCH  21  22
ENDBRANCH  18  21
ENDBRANCH  13  15
ENDBRANCH  10  13
BRANCH   1  29
HETATM   29  O1  UNL     1      20.562  51.658   9.416  1.00  0.00    -0.347 OA
BRANCH  29  30
HETATM   30  C3  UNL     1      21.621  51.044  10.149  1.00  0.00     0.202 C 
BRANCH  30  31
HETATM   31  C2  UNL     1      21.231  51.062  11.596  1.00  0.00    -0.011 C 
HETATM   32  C1  UNL     1      20.842  52.150  12.271  1.00  0.00     0.009 C 
ENDBRANCH  30  31
ENDBRANCH  29  30
ENDBRANCH   1  29
TORSDOF 8
ENDMDL
MODEL 2
REMARK minimizedAffinity -5.97349453
REMARK CNNscore 0.727865756
REMARK CNNaffinity 5.32813883
REMARK  8 active torsions:
REMARK  status: ('A' for Active; 'I' for Inactive)
REMARK    1  A    between atoms: C2_2  and  C3_3 
REMARK    2  A    between atoms: C3_3  and  O1_4 
REMARK    3  A    between atoms: O1_4  and  C4_5 
REMARK    4  A    between atoms: C9_14  and  N3_15 
REMARK    5  A    between atoms: N3_15  and  C10_16 
REMARK    6  A    between atoms: C13_19  and  O2_20 
REMARK    7  A    between atoms: O2_20  and  C14_21 
REMARK    8  A    between atoms: C14_21  and  C15_22 
ROOT
HETATM    1  C4  UNL     1      18.899  54.182   4.367  1.00  0.00     0.070 A 
HETATM    2  C5  UNL     1      18.730  52.926   4.930  1.00  0.00     0.039 A 
HETATM    3  C6  UNL     1      17.449  52.494   5.298  1.00  0.00     0.033 A 
HETATM    4  C7  UNL     1      16.321  53.285   5.115  1.00  0.00     0.047 A 
HETATM    5  N1  UNL     1      15.137  52.803   5.499  1.00  0.00    -0.352 N 
ATOM      6  H1  UNL     1      15.043  51.876   5.914  1.00  0.00     0.166 HD
HETATM    7  C8  UNL     1      14.079  53.599   5.313  1.00  0.00     0.182 A 
HETATM    8  N2  UNL     1      14.095  54.819   4.770  1.00  0.00    -0.338 N 
ATOM      9  H2  UNL     1      13.242  55.366   4.662  1.00  0.00     0.168 HD
HETATM   10  C9  UNL     1      15.289  55.294   4.372  1.00  0.00     0.119 A 
HETATM   11  C23 UNL     1      16.476  54.550   4.537  1.00  0.00     0.037 A 
HETATM   12  C24 UNL     1      17.777  54.990   4.175  1.00  0.00     0.054 A 
ENDROOT
BRANCH  10  13
HETATM   13  N3  UNL     1      15.364  56.573   3.755  1.00  0.00    -0.342 N 
HETATM   14  H9  UNL     1      16.340  56.839   3.670  1.00  0.00     0.167 HD
BRANCH  13  15
HETATM   15  C10 UNL     1      14.592  57.087   2.691  1.00  0.00     0.033 A 
HETATM   16  C11 UNL     1      14.066  58.384   2.797  1.00  0.00     0.032 A 
HETATM   17  C12 UNL     1      13.241  58.921   1.799  1.00  0.00     0.039 A 
HETATM   18  C13 UNL     1      12.911  58.161   0.681  1.00  0.00     0.069 A 
HETATM   19  C21 UNL     1      13.386  56.853   0.590  1.00  0.00     0.039 A 
HETATM   20  C22 UNL     1      14.211  56.320   1.588  1.00  0.00     0.032 A 
BRANCH  18  21
HETATM   21  O2  UNL     1      12.108  58.556  -0.352  1.00  0.00    -0.347 OA
BRANCH  21  22
HETATM   22  C14 UNL     1      12.521  58.233  -1.683  1.00  0.00     0.214 C 
BRANCH  22  23
HETATM   23  C15 UNL     1      11.369  57.967  -2.628  1.00  0.00    -0.034 A 
HETATM   24  C16 UNL     1      10.597  56.800  -2.532  1.00  0.00     0.009 A 
HETATM   25  C17 UNL     1       9.556  56.560  -3.430  1.00  0.00     0.001 A 
HETATM   26  C18 UNL     1       9.283  57.477  -4.443  1.00  0.00     0.000 A 
HETATM   27  C19 UNL     1      10.053  58.633  -4.561  1.00  0.00     0.001 A 
HETATM   28  C20 UNL     1      11.094  58.874  -3.662  1.00  0.00     0.009 A 
ENDBRANCH  22  23
ENDBRANCH  21  22
ENDBRANCH  18  21
ENDBRANCH  13  15
ENDBRANCH  10  13
BRANCH   1  29
HETATM   29  O1  UNL     1      20.080  54.739   3.965  1.00  0.00    -0.347 OA
BRANCH  29  30
HETATM   30  C3  UNL     1      20.008  55.961   3.232  1.00  0.00     0.202 C 
BRANCH  30  31
HETATM   31  C2  UNL     1      20.617  55.711   1.886  1.00  0.00    -0.011 C 
HETATM   32  C1  UNL     1      20.443  54.598   1.161  1.00  0.00     0.009 C 
ENDBRANCH  30  31
ENDBRANCH  29  30
ENDBRANCH   1  29
TORSDOF 8
ENDMDL
MODEL 3
REMARK minimizedAffinity -5.98304129
REMARK CNNscore 0.698077381
REMARK CNNaffinity 5.42791605
REMARK  8 active torsions:
REMARK  status: ('A' for Active; 'I' for Inactive)
REMARK    1  A    between atoms: C2_2  and  C3_3 
REMARK    2  A    between atoms: C3_3  and  O1_4 
REMARK    3  A    between atoms: O1_4  and  C4_5 
REMARK    4  A    between atoms: C9_14  and  N3_15 
REMARK    5  A    between atoms: N3_15  and  C10_16 
REMARK    6  A    between atoms: C13_19  and  O2_20 
REMARK    7  A    between atoms: O2_20  and  C14_21 
REMARK    8  A    between atoms: C14_21  and  C15_22 
ROOT
HETATM    1  C4  UNL     1      13.064  61.049   2.646  1.00  0.00     0.070 A 
HETATM    2  C5  UNL     1      12.959  60.979   4.028  1.00  0.00     0.039 A 
HETATM    3  C6  UNL     1      13.124  59.748   4.677  1.00  0.00     0.033 A 
HETATM    4  C7  UNL     1      13.397  58.577   3.982  1.00  0.00     0.047 A 
HETATM    5  N1  UNL     1      13.533  57.443   4.675  1.00  0.00    -0.352 N 
ATOM      6  H1  UNL     1      13.447  57.422   5.691  1.00  0.00     0.166 HD
HETATM    7  C8  UNL     1      13.787  56.338   3.967  1.00  0.00     0.182 A 
HETATM    8  N2  UNL     1      13.929  56.265   2.642  1.00  0.00    -0.338 N 
ATOM      9  H2  UNL     1      14.123  55.379   2.174  1.00  0.00     0.168 HD
HETATM   10  C9  UNL     1      13.804  57.412   1.950  1.00  0.00     0.119 A 
HETATM   11  C23 UNL     1      13.517  58.636   2.590  1.00  0.00     0.037 A 
HETATM   12  C24 UNL     1      13.339  59.882   1.932  1.00  0.00     0.054 A 
ENDROOT
BRANCH  10  13
HETATM   13  N3  UNL     1      13.979  57.402   0.539  1.00  0.00    -0.342 N 
HETATM   14  H9  UNL     1      14.812  57.933   0.308  1.00  0.00     0.167 HD
BRANCH  13  15
HETATM   15  C10 UNL     1      13.774  56.340  -0.369  1.00  0.00     0.033 A 
HETATM   16  C11 UNL     1      12.462  55.999  -0.732  1.00  0.00     0.032 A 
HETATM   17  C12 UNL     1      12.197  54.915  -1.580  1.00  0.00     0.039 A 
HETATM   18  C13 UNL     1      13.243  54.137  -2.067  1.00  0.00     0.069 A 
HETATM   19  C21 UNL     1      14.546  54.435  -1.672  1.00  0.00     0.039 A 
HETATM   20  C22 UNL     1      14.807  55.519  -0.826  1.00  0.00     0.032 A 
BRANCH  18  21
HETATM   21  O2  UNL     1      13.122  53.049  -2.885  1.00  0.00    -0.347 OA
BRANCH  21  22
HETATM   22  C14 UNL     1      11.903  52.304  -2.835  1.00  0.00     0.214 C 
BRANCH  22  23
HETATM   23  C15 UNL     1      12.082  50.875  -2.370  1.00  0.00    -0.034 A 
HETATM   24  C16 UNL     1      13.320  50.404  -1.910  1.00  0.00     0.009 A 
HETATM   25  C17 UNL     1      13.471  49.076  -1.511  1.00  0.00     0.001 A 
HETATM   26  C18 UNL     1      12.390  48.199  -1.578  1.00  0.00     0.000 A 
HETATM   27  C19 UNL     1      11.158  48.649  -2.048  1.00  0.00     0.001 A 
HETATM   28  C20 UNL     1      11.005  49.978  -2.447  1.00  0.00     0.009 A 
ENDBRANCH  22  23
ENDBRANCH  21  22
ENDBRANCH  18  21
ENDBRANCH  13  15
ENDBRANCH  10  13
BRANCH   1  29
HETATM   29  O1  UNL     1      12.923  62.170   1.878  1.00  0.00    -0.347 OA
BRANCH  29  30
HETATM   30  C3  UNL     1      13.693  63.313   2.247  1.00  0.00     0.202 C 
BRANCH  30  31
HETATM   31  C2  UNL     1      13.143  64.484   1.491  1.00  0.00    -0.011 C 
HETATM   32  C1  UNL     1      13.162  64.613   0.158  1.00  0.00     0.009 C 
ENDBRANCH  30  31
ENDBRANCH  29  30
ENDBRANCH   1  29
TORSDOF 8
ENDMDL
MODEL 4
REMARK minimizedAffinity -6.2410965
REMARK CNNscore 0.665101767
REMARK CNNaffinity 5.86762428
REMARK  8 active torsions:
REMARK  status: ('A' for Active; 'I' for Inactive)
REMARK    1  A    between atoms: C2_2  and  C3_3 
REMARK    2  A    between atoms: C3_3  and  O1_4 
REMARK    3  A    between atoms: O1_4  and  C4_5 
REMARK    4  A    between atoms: C9_14  and  N3_15 
REMARK    5  A    between atoms: N3_15  and  C10_16 
REMARK    6  A    between atoms: C13_19  and  O2_20 
REMARK    7  A    between atoms: O2_20  and  C14_21 
REMARK    8  A    between atoms: C14_21  and  C15_22 
ROOT
HETATM    1  C4  UNL     1      14.674  56.726   1.621  1.00  0.00     0.070 A 
HETATM    2  C5  UNL     1      13.896  57.837   1.912  1.00  0.00     0.039 A 
HETATM    3  C6  UNL     1      13.008  58.336   0.950  1.00  0.00     0.033 A 
HETATM    4  C7  UNL     1      12.868  57.751  -0.302  1.00  0.00     0.047 A 
HETATM    5  N1  UNL     1      12.005  58.291  -1.165  1.00  0.00    -0.352 N 
ATOM      6  H1  UNL     1      11.448  59.112  -0.924  1.00  0.00     0.166 HD
HETATM    7  C8  UNL     1      11.908  57.702  -2.361  1.00  0.00     0.182 A 
HETATM    8  N2  UNL     1      12.581  56.623  -2.766  1.00  0.00    -0.338 N 
ATOM      9  H2  UNL     1      12.450  56.232  -3.699  1.00  0.00     0.168 HD
HETATM   10  C9  UNL     1      13.440  56.074  -1.888  1.00  0.00     0.119 A 
HETATM   11  C23 UNL     1      13.638  56.622  -0.603  1.00  0.00     0.037 A 
HETATM   12  C24 UNL     1      14.547  56.125   0.368  1.00  0.00     0.054 A 
ENDROOT
BRANCH  10  13
HETATM   13  N3  UNL     1      14.160  54.903  -2.251  1.00  0.00    -0.342 N 
HETATM   14  H9  UNL     1      15.069  54.925  -1.802  1.00  0.00     0.167 HD
BRANCH  13  15
HETATM   15  C10 UNL     1      13.683  53.581  -2.391  1.00  0.00     0.033 A 
HETATM   16  C11 UNL     1      14.565  52.583  -2.832  1.00  0.00     0.032 A 
HETATM   17  C12 UNL     1      14.131  51.268  -3.049  1.00  0.00     0.039 A 
HETATM   18  C13 UNL     1      12.796  50.930  -2.845  1.00  0.00     0.069 A 
HETATM   19  C21 UNL     1      11.901  51.925  -2.457  1.00  0.00     0.039 A 
HETATM   20  C22 UNL     1      12.338  53.237  -2.240  1.00  0.00     0.032 A 
BRANCH  18  21
HETATM   21  O2  UNL     1      12.241  49.696  -3.033  1.00  0.00    -0.347 OA
BRANCH  21  22
HETATM   22  C14 UNL     1      12.664  48.633  -2.175  1.00  0.00     0.214 C 
BRANCH  22  23
HETATM   23  C15 UNL     1      11.539  48.020  -1.369  1.00  0.00    -0.034 A 
HETATM   24  C16 UNL     1      11.559  46.669  -0.994  1.00  0.00     0.009 A 
HETATM   25  C17 UNL     1      10.499  46.116  -0.273  1.00  0.00     0.001 A 
HETATM   26  C18 UNL     1       9.402  46.903   0.070  1.00  0.00     0.000 A 
HETATM   27  C19 UNL     1       9.362  48.243  -0.309  1.00  0.00     0.001 A 
HETATM   28  C20 UNL     1      10.422  48.798  -1.030  1.00  0.00     0.009 A 
ENDBRANCH  22  23
ENDBRANCH  21  22
ENDBRANCH  18  21
ENDBRANCH  13  15
ENDBRANCH  10  13
BRANCH   1  29
HETATM   29  O1  UNL     1      15.583  56.133   2.451  1.00  0.00    -0.347 OA
BRANCH  29  30
HETATM   30  C3  UNL     1      15.617  56.580   3.805  1.00  0.00     0.202 C 
BRANCH  30  31
HETATM   31  C2  UNL     1      15.068  55.474   4.655  1.00  0.00    -0.011 C 
HETATM   32  C1  UNL     1      13.874  54.893   4.478  1.00  0.00     0.009 C 
ENDBRANCH  30  31
ENDBRANCH  29  30
ENDBRANCH   1  29
TORSDOF 8
ENDMDL
MODEL 5
REMARK minimizedAffinity -5.96570444
REMARK CNNscore 0.593928814
REMARK CNNaffinity 5.79685163
REMARK  8 active torsions:
REMARK  status: ('A' for Active; 'I' for Inactive)
REMARK    1  A    between atoms: C2_2  and  C3_3 
REMARK    2  A    between atoms: C3_3  and  O1_4 
REMARK    3  A    between atoms: O1_4  and  C4_5 
REMARK    4  A    between atoms: C9_14  and  N3_15 
REMARK    5  A    between atoms: N3_15  and  C10_16 
REMARK    6  A    between atoms: C13_19  and  O2_20 
REMARK    7  A    between atoms: O2_20  and  C14_21 
REMARK    8  A    between atoms: C14_21  and  C15_22 
ROOT
HETATM    1  C4  UNL     1      13.719  53.236  -3.080  1.00  0.00     0.070 A 
HETATM    2  C5  UNL     1      12.760  53.293  -4.081  1.00  0.00     0.039 A 
HETATM    3  C6  UNL     1      11.687  54.187  -3.967  1.00  0.00     0.033 A 
HETATM    4  C7  UNL     1      11.546  55.038  -2.878  1.00  0.00     0.047 A 
HETATM    5  N1  UNL     1      10.491  55.856  -2.841  1.00  0.00    -0.352 N 
ATOM      6  H1  UNL     1       9.799  55.873  -3.591  1.00  0.00     0.166 HD
HETATM    7  C8  UNL     1      10.389  56.651  -1.772  1.00  0.00     0.182 A 
HETATM    8  N2  UNL     1      11.244  56.711  -0.748  1.00  0.00    -0.338 N 
ATOM      9  H2  UNL     1      11.095  57.348   0.034  1.00  0.00     0.168 HD
HETATM   10  C9  UNL     1      12.312  55.894  -0.796  1.00  0.00     0.119 A 
HETATM   11  C23 UNL     1      12.513  54.999  -1.868  1.00  0.00     0.037 A 
HETATM   12  C24 UNL     1      13.593  54.083  -1.978  1.00  0.00     0.054 A 
ENDROOT
BRANCH  10  13
HETATM   13  N3  UNL     1      13.275  55.939   0.249  1.00  0.00    -0.342 N 
HETATM   14  H9  UNL     1      14.184  55.699  -0.133  1.00  0.00     0.167 HD
BRANCH  13  15
HETATM   15  C10 UNL     1      13.387  56.864   1.309  1.00  0.00     0.033 A 
HETATM   16  C11 UNL     1      13.498  56.384   2.622  1.00  0.00     0.032 A 
HETATM   17  C12 UNL     1      13.549  57.257   3.717  1.00  0.00     0.039 A 
HETATM   18  C13 UNL     1      13.470  58.633   3.519  1.00  0.00     0.069 A 
HETATM   19  C21 UNL     1      13.307  59.119   2.223  1.00  0.00     0.039 A 
HETATM   20  C22 UNL     1      13.258  58.244   1.131  1.00  0.00     0.032 A 
BRANCH  18  21
HETATM   21  O2  UNL     1      13.491  59.589   4.495  1.00  0.00    -0.347 OA
BRANCH  21  22
HETATM   22  C14 UNL     1      13.971  59.215   5.789  1.00  0.00     0.214 C 
BRANCH  22  23
HETATM   23  C15 UNL     1      12.941  59.369   6.887  1.00  0.00    -0.034 A 
HETATM   24  C16 UNL     1      13.121  58.783   8.148  1.00  0.00     0.009 A 
HETATM   25  C17 UNL     1      12.147  58.914   9.138  1.00  0.00     0.001 A 
HETATM   26  C18 UNL     1      10.975  59.620   8.876  1.00  0.00     0.000 A 
HETATM   27  C19 UNL     1      10.775  60.194   7.622  1.00  0.00     0.001 A 
HETATM   28  C20 UNL     1      11.750  60.065   6.631  1.00  0.00     0.009 A 
ENDBRANCH  22  23
ENDBRANCH  21  22
ENDBRANCH  18  21
ENDBRANCH  13  15
ENDBRANCH  10  13
BRANCH   1  29
HETATM   29  O1  UNL     1      14.811  52.416  -3.050  1.00  0.00    -0.347 OA
BRANCH  29  30
HETATM   30  C3  UNL     1      15.461  52.150  -4.291  1.00  0.00     0.202 C 
BRANCH  30  31
HETATM   31  C2  UNL     1      15.422  50.668  -4.508  1.00  0.00    -0.011 C 
HETATM   32  C1  UNL     1      16.113  49.771  -3.794  1.00  0.00     0.009 C 
ENDBRANCH  30  31
ENDBRANCH  29  30
ENDBRANCH   1  29
TORSDOF 8
ENDMDL
MODEL 6
REMARK minimizedAffinity -6.84999418
REMARK CNNscore 0.586986303
REMARK CNNaffinity 4.83835649
REMARK  8 active torsions:
REMARK  status: ('A' for Active; 'I' for Inactive)
REMARK    1  A    between atoms: C2_2  and  C3_3 
REMARK    2  A    between atoms: C3_3  and  O1_4 
REMARK    3  A    between atoms: O1_4  and  C4_5 
REMARK    4  A    between atoms: C9_14  and  N3_15 
REMARK    5  A    between atoms: N3_15  and  C10_16 
REMARK    6  A    between atoms: C13_19  and  O2_20 
REMARK    7  A    between atoms: O2_20  and  C14_21 
REMARK    8  A    between atoms: C14_21  and  C15_22 
ROOT
HETATM    1  C4  UNL     1      17.433  47.471   6.098  1.00  0.00     0.070 A 
HETATM    2  C5  UNL     1      18.561  47.169   6.847  1.00  0.00     0.039 A 
HETATM    3  C6  UNL     1      19.311  48.203   7.423  1.00  0.00     0.033 A 
HETATM    4  C7  UNL     1      18.962  49.540   7.277  1.00  0.00     0.047 A 
HETATM    5  N1  UNL     1      19.734  50.465   7.852  1.00  0.00    -0.352 N 
ATOM      6  H1  UNL     1      20.560  50.213   8.394  1.00  0.00     0.166 HD
HETATM    7  C8  UNL     1      19.367  51.739   7.679  1.00  0.00     0.182 A 
HETATM    8  N2  UNL     1      18.302  52.169   6.999  1.00  0.00    -0.338 N 
ATOM      9  H2  UNL     1      18.089  53.162   6.913  1.00  0.00     0.168 HD
HETATM   10  C9  UNL     1      17.520  51.232   6.433  1.00  0.00     0.119 A 
HETATM   11  C23 UNL     1      17.820  49.857   6.534  1.00  0.00     0.037 A 
HETATM   12  C24 UNL     1      17.068  48.809   5.940  1.00  0.00     0.054 A 
ENDROOT
BRANCH  10  13
HETATM   13  N3  UNL     1      16.352  51.627   5.726  1.00  0.00    -0.342 N 
HETATM   14  H9  UNL     1      15.546  51.174   6.144  1.00  0.00     0.167 HD
BRANCH  13  15
HETATM   15  C10 UNL     1      16.021  52.899   5.209  1.00  0.00     0.033 A 
HETATM   16  C11 UNL     1      17.048  53.731   4.739  1.00  0.00     0.032 A 
HETATM   17  C12 UNL     1      16.784  55.026   4.273  1.00  0.00     0.039 A 
HETATM   18  C13 UNL     1      15.483  55.521   4.287  1.00  0.00     0.069 A 
HETATM   19  C21 UNL     1      14.462  54.722   4.799  1.00  0.00     0.039 A 
HETATM   20  C22 UNL     1      14.729  53.429   5.262  1.00  0.00     0.032 A 
BRANCH  18  21
HETATM   21  O2  UNL     1      15.092  56.766   3.878  1.00  0.00    -0.347 OA
BRANCH  21  22
HETATM   22  C14 UNL     1      13.925  57.333   4.480  1.00  0.00     0.214 C 
BRANCH  22  23
HETATM   23  C15 UNL     1      13.568  58.701   3.941  1.00  0.00    -0.034 A 
HETATM   24  C16 UNL     1      13.174  59.744   4.792  1.00  0.00     0.009 A 
HETATM   25  C17 UNL     1      12.822  60.990   4.272  1.00  0.00     0.001 A 
HETATM   26  C18 UNL     1      12.848  61.206   2.896  1.00  0.00     0.000 A 
HETATM   27  C19 UNL     1      13.222  60.174   2.038  1.00  0.00     0.001 A 
HETATM   28  C20 UNL     1      13.575  58.927   2.556  1.00  0.00     0.009 A 
ENDBRANCH  22  23
ENDBRANCH  21  22
ENDBRANCH  18  21
ENDBRANCH  13  15
ENDBRANCH  10  13
BRANCH   1  29
HETATM   29  O1  UNL     1      16.610  46.576   5.474  1.00  0.00    -0.347 OA
BRANCH  29  30
HETATM   30  C3  UNL     1      16.935  46.218   4.132  1.00  0.00     0.202 C 
BRANCH  30  31
HETATM   31  C2  UNL     1      15.778  46.622   3.269  1.00  0.00    -0.011 C 
HETATM   32  C1  UNL     1      15.067  45.787   2.501  1.00  0.00     0.009 C 
ENDBRANCH  30  31
ENDBRANCH  29  30
ENDBRANCH   1  29
TORSDOF 8
ENDMDL
MODEL 7
REMARK minimizedAffinity -6.72300243
REMARK CNNscore 0.582449615
REMARK CNNaffinity 4.64869928
REMARK  8 active torsions:
REMARK  status: ('A' for Active; 'I' for Inactive)
REMARK    1  A    between atoms: C2_2  and  C3_3 
REMARK    2  A    between atoms: C3_3  and  O1_4 
REMARK    3  A    between atoms: O1_4  and  C4_5 
REMARK    4  A    between atoms: C9_14  and  N3_15 
REMARK    5  A    between atoms: N3_15  and  C10_16 
REMARK    6  A    between atoms: C13_19  and  O2_20 
REMARK    7  A    between atoms: O2_20  and  C14_21 
REMARK    8  A    between atoms: C14_21  and  C15_22 
ROOT
HETATM    1  C4  UNL     1      17.620  47.521   6.120  1.00  0.00     0.070 A 
HETATM    2  C5  UNL     1      18.692  47.239   6.954  1.00  0.00     0.039 A 
HETATM    3  C6  UNL     1      19.380  48.285   7.583  1.00  0.00     0.033 A 
HETATM    4  C7  UNL     1      19.023  49.616   7.406  1.00  0.00     0.047 A 
HETATM    5  N1  UNL     1      19.734  50.554   8.036  1.00  0.00    -0.352 N 
ATOM      6  H1  UNL     1      20.520  50.316   8.641  1.00  0.00     0.166 HD
HETATM    7  C8  UNL     1      19.362  51.822   7.832  1.00  0.00     0.182 A 
HETATM    8  N2  UNL     1      18.346  52.234   7.071  1.00  0.00    -0.338 N 
ATOM      9  H2  UNL     1      18.125  53.224   6.966  1.00  0.00     0.168 HD
HETATM   10  C9  UNL     1      17.624  51.284   6.450  1.00  0.00     0.119 A 
HETATM   11  C23 UNL     1      17.936  49.914   6.577  1.00  0.00     0.037 A 
HETATM   12  C24 UNL     1      17.248  48.853   5.931  1.00  0.00     0.054 A 
ENDROOT
BRANCH  10  13
HETATM   13  N3  UNL     1      16.508  51.660   5.653  1.00  0.00    -0.342 N 
HETATM   14  H9  UNL     1      15.696  51.133   5.958  1.00  0.00     0.167 HD
BRANCH  13  15
HETATM   15  C10 UNL     1      16.148  52.943   5.187  1.00  0.00     0.033 A 
HETATM   16  C11 UNL     1      17.155  53.813   4.745  1.00  0.00     0.032 A 
HETATM   17  C12 UNL     1      16.862  55.120   4.330  1.00  0.00     0.039 A 
HETATM   18  C13 UNL     1      15.552  55.588   4.369  1.00  0.00     0.069 A 
HETATM   19  C21 UNL     1      14.550  54.749   4.856  1.00  0.00     0.039 A 
HETATM   20  C22 UNL     1      14.847  53.444   5.267  1.00  0.00     0.032 A 
BRANCH  18  21
HETATM   21  O2  UNL     1      15.133  56.839   4.010  1.00  0.00    -0.347 OA
BRANCH  21  22
HETATM   22  C14 UNL     1      13.755  57.012   3.670  1.00  0.00     0.214 C 
BRANCH  22  23
HETATM   23  C15 UNL     1      13.527  57.344   2.211  1.00  0.00    -0.034 A 
HETATM   24  C16 UNL     1      13.348  58.666   1.780  1.00  0.00     0.009 A 
HETATM   25  C17 UNL     1      13.112  58.949   0.434  1.00  0.00     0.001 A 
HETATM   26  C18 UNL     1      13.040  57.913  -0.495  1.00  0.00     0.000 A 
HETATM   27  C19 UNL     1      13.200  56.593  -0.078  1.00  0.00     0.001 A 
HETATM   28  C20 UNL     1      13.437  56.309   1.268  1.00  0.00     0.009 A 
ENDBRANCH  22  23
ENDBRANCH  21  22
ENDBRANCH  18  21
ENDBRANCH  13  15
ENDBRANCH  10  13
BRANCH   1  29
HETATM   29  O1  UNL     1      16.862  46.613   5.438  1.00  0.00    -0.347 OA
BRANCH  29  30
HETATM   30  C3  UNL     1      17.502  45.885   4.391  1.00  0.00     0.202 C 
BRANCH  30  31
HETATM   31  C2  UNL     1      17.481  44.437   4.777  1.00  0.00    -0.011 C 
HETATM   32  C1  UNL     1      17.659  43.415   3.929  1.00  0.00     0.009 C 
ENDBRANCH  30  31
ENDBRANCH  29  30
ENDBRANCH   1  29
TORSDOF 8
ENDMDL
MODEL 8
REMARK minimizedAffinity -6.74732304
REMARK CNNscore 0.573438883
REMARK CNNaffinity 5.71065474
REMARK  8 active torsions:
REMARK  status: ('A' for Active; 'I' for Inactive)
REMARK    1  A    between atoms: C2_2  and  C3_3 
REMARK    2  A    between atoms: C3_3  and  O1_4 
REMARK    3  A    between atoms: O1_4  and  C4_5 
REMARK    4  A    between atoms: C9_14  and  N3_15 
REMARK    5  A    between atoms: N3_15  and  C10_16 
REMARK    6  A    between atoms: C13_19  and  O2_20 
REMARK    7  A    between atoms: O2_20  and  C14_21 
REMARK    8  A    between atoms: C14_21  and  C15_22 
ROOT
HETATM    1  C4  UNL     1      13.994  56.922   2.151  1.00  0.00     0.070 A 
HETATM    2  C5  UNL     1      13.630  56.591   0.854  1.00  0.00     0.039 A 
HETATM    3  C6  UNL     1      13.077  57.568   0.015  1.00  0.00     0.033 A 
HETATM    4  C7  UNL     1      12.881  58.878   0.435  1.00  0.00     0.047 A 
HETATM    5  N1  UNL     1      12.342  59.747  -0.423  1.00  0.00    -0.352 N 
ATOM      6  H1  UNL     1      12.081  59.474  -1.371  1.00  0.00     0.166 HD
HETATM    7  C8  UNL     1      12.163  60.994   0.023  1.00  0.00     0.182 A 
HETATM    8  N2  UNL     1      12.481  61.451   1.237  1.00  0.00    -0.338 N 
ATOM      9  H2  UNL     1      12.312  62.421   1.502  1.00  0.00     0.168 HD
HETATM   10  C9  UNL     1      13.036  60.575   2.093  1.00  0.00     0.119 A 
HETATM   11  C23 UNL     1      13.256  59.227   1.737  1.00  0.00     0.037 A 
HETATM   12  C24 UNL     1      13.804  58.233   2.589  1.00  0.00     0.054 A 
ENDROOT
BRANCH  10  13
HETATM   13  N3  UNL     1      13.428  61.013   3.388  1.00  0.00    -0.342 N 
HETATM   14  H9  UNL     1      13.961  61.871   3.296  1.00  0.00     0.167 HD
BRANCH  13  15
HETATM   15  C10 UNL     1      12.688  60.988   4.590  1.00  0.00     0.033 A 
HETATM   16  C11 UNL     1      12.060  62.164   5.026  1.00  0.00     0.032 A 
HETATM   17  C12 UNL     1      11.365  62.214   6.242  1.00  0.00     0.039 A 
HETATM   18  C13 UNL     1      11.301  61.087   7.057  1.00  0.00     0.069 A 
HETATM   19  C21 UNL     1      11.965  59.928   6.658  1.00  0.00     0.039 A 
HETATM   20  C22 UNL     1      12.657  59.882   5.442  1.00  0.00     0.032 A 
BRANCH  18  21
HETATM   21  O2  UNL     1      10.673  61.004   8.268  1.00  0.00    -0.347 OA
BRANCH  21  22
HETATM   22  C14 UNL     1      10.811  59.792   9.013  1.00  0.00     0.214 C 
BRANCH  22  23
HETATM   23  C15 UNL     1      12.089  59.718   9.821  1.00  0.00    -0.034 A 
HETATM   24  C16 UNL     1      12.754  60.876  10.248  1.00  0.00     0.009 A 
HETATM   25  C17 UNL     1      13.945  60.787  10.970  1.00  0.00     0.001 A 
HETATM   26  C18 UNL     1      14.493  59.539  11.261  1.00  0.00     0.000 A 
HETATM   27  C19 UNL     1      13.852  58.380  10.828  1.00  0.00     0.001 A 
HETATM   28  C20 UNL     1      12.659  58.468  10.108  1.00  0.00     0.009 A 
ENDBRANCH  22  23
ENDBRANCH  21  22
ENDBRANCH  18  21
ENDBRANCH  13  15
ENDBRANCH  10  13
BRANCH   1  29
HETATM   29  O1  UNL     1      14.536  56.081   3.081  1.00  0.00    -0.347 OA
BRANCH  29  30
HETATM   30  C3  UNL     1      13.635  55.442   3.984  1.00  0.00     0.202 C 
BRANCH  30  31
HETATM   31  C2  UNL     1      14.463  54.748   5.023  1.00  0.00    -0.011 C 
HETATM   32  C1  UNL     1      15.555  54.015   4.770  1.00  0.00     0.009 C 
ENDBRANCH  30  31
ENDBRANCH  29  30
ENDBRANCH   1  29
TORSDOF 8
ENDMDL
MODEL 9
REMARK minimizedAffinity -6.18270636
REMARK CNNscore 0.559353232
REMARK CNNaffinity 5.5813756
REMARK  8 active torsions:
REMARK  status: ('A' for Active; 'I' for Inactive)
REMARK    1  A    between atoms: C2_2  and  C3_3 
REMARK    2  A    between atoms: C3_3  and  O1_4 
REMARK    3  A    between atoms: O1_4  and  C4_5 
REMARK    4  A    between atoms: C9_14  and  N3_15 
REMARK    5  A    between atoms: N3_15  and  C10_16 
REMARK    6  A    between atoms: C13_19  and  O2_20 
REMARK    7  A    between atoms: O2_20  and  C14_21 
REMARK    8  A    between atoms: C14_21  and  C15_22 
ROOT
HETATM    1  C4  UNL     1      10.536  49.402  -2.083  1.00  0.00     0.070 A 
HETATM    2  C5  UNL     1       9.646  49.107  -3.106  1.00  0.00     0.039 A 
HETATM    3  C6  UNL     1       9.604  49.917  -4.248  1.00  0.00     0.033 A 
HETATM    4  C7  UNL     1      10.435  51.020  -4.404  1.00  0.00     0.047 A 
HETATM    5  N1  UNL     1      10.328  51.745  -5.519  1.00  0.00    -0.352 N 
ATOM      6  H1  UNL     1       9.661  51.505  -6.253  1.00  0.00     0.166 HD
HETATM    7  C8  UNL     1      11.139  52.802  -5.625  1.00  0.00     0.182 A 
HETATM    8  N2  UNL     1      12.050  53.191  -4.729  1.00  0.00    -0.338 N 
ATOM      9  H2  UNL     1      12.633  54.012  -4.884  1.00  0.00     0.168 HD
HETATM   10  C9  UNL     1      12.163  52.449  -3.612  1.00  0.00     0.119 A 
HETATM   11  C23 UNL     1      11.345  51.322  -3.385  1.00  0.00     0.037 A 
HETATM   12  C24 UNL     1      11.378  50.507  -2.223  1.00  0.00     0.054 A 
ENDROOT
BRANCH  10  13
HETATM   13  N3  UNL     1      13.139  52.793  -2.638  1.00  0.00    -0.342 N 
HETATM   14  H9  UNL     1      14.019  52.354  -2.886  1.00  0.00     0.167 HD
BRANCH  13  15
HETATM   15  C10 UNL     1      13.343  54.032  -1.992  1.00  0.00     0.033 A 
HETATM   16  C11 UNL     1      14.643  54.395  -1.610  1.00  0.00     0.032 A 
HETATM   17  C12 UNL     1      14.895  55.583  -0.911  1.00  0.00     0.039 A 
HETATM   18  C13 UNL     1      13.842  56.425  -0.562  1.00  0.00     0.069 A 
HETATM   19  C21 UNL     1      12.541  56.050  -0.891  1.00  0.00     0.039 A 
HETATM   20  C22 UNL     1      12.293  54.863  -1.591  1.00  0.00     0.032 A 
BRANCH  18  21
HETATM   21  O2  UNL     1      13.947  57.599   0.129  1.00  0.00    -0.347 OA
BRANCH  21  22
HETATM   22  C14 UNL     1      13.004  57.847   1.175  1.00  0.00     0.214 C 
BRANCH  22  23
HETATM   23  C15 UNL     1      13.494  57.433   2.546  1.00  0.00    -0.034 A 
HETATM   24  C16 UNL     1      13.925  56.124   2.805  1.00  0.00     0.009 A 
HETATM   25  C17 UNL     1      14.349  55.756   4.083  1.00  0.00     0.001 A 
HETATM   26  C18 UNL     1      14.334  56.687   5.119  1.00  0.00     0.000 A 
HETATM   27  C19 UNL     1      13.893  57.987   4.880  1.00  0.00     0.001 A 
HETATM   28  C20 UNL     1      13.470  58.357   3.602  1.00  0.00     0.009 A 
ENDBRANCH  22  23
ENDBRANCH  21  22
ENDBRANCH  18  21
ENDBRANCH  13  15
ENDBRANCH  10  13
BRANCH   1  29
HETATM   29  O1  UNL     1      10.687  48.712  -0.914  1.00  0.00    -0.347 OA
BRANCH  29  30
HETATM   30  C3  UNL     1       9.516  48.504  -0.125  1.00  0.00     0.202 C 
BRANCH  30  31
HETATM   31  C2  UNL     1       9.153  47.055  -0.236  1.00  0.00    -0.011 C 
HETATM   32  C1  UNL     1      10.011  46.037  -0.090  1.00  0.00     0.009 C 
ENDBRANCH  30  31
ENDBRANCH  29  30
ENDBRANCH   1  29
TORSDOF 8
ENDMDL
