MODEL 1
REMARK minimizedAffinity -9.98253345
REMARK  8 active torsions:
REMARK  status: ('A' for Active; 'I' for Inactive)
REMARK    1  A    between atoms: C3_3  and  C4_4 
REMARK       I    between atoms: C4_4  and  N1_6 
REMARK    2  A    between atoms: N1_6  and  C5_7 
REMARK    3  A    between atoms: C7_9  and  N2_10 
REMARK    4  A    between atoms: N2_10  and  C8_11 
REMARK    5  A    between atoms: C11_16  and  C12_17 
REMARK    6  A    between atoms: C21_29  and  O2_30 
REMARK    7  A    between atoms: C24_33  and  O3_34 
REMARK    8  A    between atoms: O3_34  and  C25_35 
ROOT
HETATM    1  C1  UNL     1       1.733   7.322   6.644  1.00  0.00     0.102 C 
HETATM    2  C2  UNL     1       2.341   6.516   7.460  1.00  0.00    -0.155 C 
HETATM    3  C3  UNL     1       2.962   5.704   8.265  1.00  0.00     0.124 C 
ENDROOT
BRANCH   3   4
HETATM    4  C4  UNL     1       2.762   5.645   9.738  1.00  0.00     0.253 C 
HETATM    5  O1  UNL     1       2.543   4.549  10.236  1.00  0.00    -0.268 OA
HETATM    6  N1  UNL     1       2.812   6.864  10.372  1.00  0.00    -0.321 N 
HETATM    7  H4  UNL     1       2.787   7.674   9.764  1.00  0.00     0.169 HD
BRANCH   6   8
HETATM    8  C5  UNL     1       2.657   7.151  11.750  1.00  0.00     0.071 A 
HETATM    9  C6  UNL     1       1.590   6.480  12.377  1.00  0.00     0.065 A 
HETATM   10  C7  UNL     1       1.339   6.588  13.751  1.00  0.00     0.085 A 
HETATM   11  C21 UNL     1       2.196   7.397  14.526  1.00  0.00     0.098 A 
HETATM   12  C23 UNL     1       3.234   8.101  13.912  1.00  0.00     0.078 A 
HETATM   13  C24 UNL     1       3.437   8.016  12.528  1.00  0.00     0.099 A 
BRANCH  10  14
HETATM   14  N2  UNL     1       0.294   5.912  14.401  1.00  0.00    -0.189 N 
HETATM   15  H6  UNL     1       0.515   4.958  14.661  1.00  0.00     0.184 HD
BRANCH  14  16
HETATM   16  C8  UNL     1      -1.013   6.221  14.751  1.00  0.00     0.683 A 
HETATM   17  N3  UNL     1      -1.296   7.145  15.681  1.00  0.00    -0.202 N 
HETATM   18  C9  UNL     1      -2.594   7.388  15.933  1.00  0.00     0.108 A 
ATOM     19  H3  UNL     1      -0.558   7.644  16.177  1.00  0.00     0.183 HD
HETATM   20  C10 UNL     1      -3.623   6.739  15.303  1.00  0.00     0.048 A 
HETATM   21  C11 UNL     1      -3.249   5.797  14.371  1.00  0.00     0.063 A 
HETATM   22  N5  UNL     1      -1.954   5.536  14.089  1.00  0.00    -0.191 N 
ATOM     23  H5  UNL     1      -1.700   4.836  13.391  1.00  0.00     0.184 HD
BRANCH  21  24
HETATM   24  C12 UNL     1      -4.234   5.021  13.621  1.00  0.00     0.019 A 
HETATM   25  C13 UNL     1      -3.925   3.901  12.868  1.00  0.00     0.105 A 
HETATM   26  N4  UNL     1      -5.076   3.435  12.290  1.00  0.00    -0.360 N 
HETATM   27  C14 UNL     1      -5.153   2.276  11.428  1.00  0.00     0.156 C 
HETATM   28  C15 UNL     1      -6.145   4.231  12.638  1.00  0.00     0.045 A 
HETATM   29  C16 UNL     1      -7.503   4.152  12.288  1.00  0.00     0.030 A 
HETATM   30  C20 UNL     1      -5.646   5.239  13.470  1.00  0.00     0.005 A 
HETATM   31  C17 UNL     1      -8.373   5.119  12.797  1.00  0.00     0.002 A 
HETATM   32  C18 UNL     1      -7.907   6.131  13.630  1.00  0.00     0.001 A 
HETATM   33  C19 UNL     1      -6.554   6.199  13.973  1.00  0.00     0.014 A 
ENDBRANCH  21  24
ENDBRANCH  14  16
ENDBRANCH  10  14
BRANCH  11  34
HETATM   34  O2  UNL     1       1.906   7.442  15.870  1.00  0.00    -0.354 OA
HETATM   35  C22 UNL     1       1.999   8.708  16.509  1.00  0.00     0.210 C 
ENDBRANCH  11  34
BRANCH  13  36
HETATM   36  O3  UNL     1       4.425   8.839  12.058  1.00  0.00    -0.341 OA
BRANCH  36  37
HETATM   37  C25 UNL     1       5.727   8.511  12.573  1.00  0.00     0.154 C 
HETATM   38  C26 UNL     1       6.078   7.062  12.292  1.00  0.00     0.061 C 
HETATM   39  C27 UNL     1       6.506   7.117  10.844  1.00  0.00     0.170 C 
HETATM   40  O4  UNL     1       7.212   8.351  10.687  1.00  0.00    -0.389 OA
HETATM   41  C28 UNL     1       6.781   9.242  11.739  1.00  0.00     0.200 C 
ENDBRANCH  36  37
ENDBRANCH  13  36
ENDBRANCH   6   8
ENDBRANCH   3   4
TORSDOF 8
ENDMDL
MODEL 2
REMARK minimizedAffinity -9.9050169
REMARK  8 active torsions:
REMARK  status: ('A' for Active; 'I' for Inactive)
REMARK    1  A    between atoms: C3_3  and  C4_4 
REMARK       I    between atoms: C4_4  and  N1_6 
REMARK    2  A    between atoms: N1_6  and  C5_7 
REMARK    3  A    between atoms: C7_9  and  N2_10 
REMARK    4  A    between atoms: N2_10  and  C8_11 
REMARK    5  A    between atoms: C11_16  and  C12_17 
REMARK    6  A    between atoms: C21_29  and  O2_30 
REMARK    7  A    between atoms: C24_33  and  O3_34 
REMARK    8  A    between atoms: O3_34  and  C25_35 
ROOT
HETATM    1  C1  UNL     1       1.650   7.329   6.739  1.00  0.00     0.102 C 
HETATM    2  C2  UNL     1       2.296   6.529   7.533  1.00  0.00    -0.155 C 
HETATM    3  C3  UNL     1       2.954   5.725   8.315  1.00  0.00     0.124 C 
ENDROOT
BRANCH   3   4
HETATM    4  C4  UNL     1       2.782   5.638   9.790  1.00  0.00     0.253 C 
HETATM    5  O1  UNL     1       2.682   4.523  10.283  1.00  0.00    -0.268 OA
HETATM    6  N1  UNL     1       2.718   6.852  10.431  1.00  0.00    -0.321 N 
HETATM    7  H4  UNL     1       2.602   7.659   9.829  1.00  0.00     0.169 HD
BRANCH   6   8
HETATM    8  C5  UNL     1       2.553   7.115  11.813  1.00  0.00     0.071 A 
HETATM    9  C6  UNL     1       1.435   6.496  12.403  1.00  0.00     0.065 A 
HETATM   10  C7  UNL     1       1.164   6.586  13.775  1.00  0.00     0.085 A 
HETATM   11  C21 UNL     1       2.053   7.322  14.585  1.00  0.00     0.098 A 
HETATM   12  C23 UNL     1       3.144   7.976  14.008  1.00  0.00     0.078 A 
HETATM   13  C24 UNL     1       3.369   7.912  12.626  1.00  0.00     0.099 A 
BRANCH  10  14
HETATM   14  N2  UNL     1       0.067   5.960  14.388  1.00  0.00    -0.189 N 
HETATM   15  H6  UNL     1       0.194   4.969  14.553  1.00  0.00     0.184 HD
BRANCH  14  16
HETATM   16  C8  UNL     1      -1.194   6.364  14.802  1.00  0.00     0.683 A 
HETATM   17  N3  UNL     1      -1.363   7.289  15.759  1.00  0.00    -0.202 N 
HETATM   18  C9  UNL     1      -2.625   7.628  16.072  1.00  0.00     0.108 A 
ATOM     19  H3  UNL     1      -0.566   7.718  16.229  1.00  0.00     0.183 HD
HETATM   20  C10 UNL     1      -3.729   7.075  15.478  1.00  0.00     0.048 A 
HETATM   21  C11 UNL     1      -3.471   6.125  14.515  1.00  0.00     0.063 A 
HETATM   22  N5  UNL     1      -2.215   5.769  14.171  1.00  0.00    -0.191 N 
ATOM     23  H5  UNL     1      -2.048   5.066  13.451  1.00  0.00     0.184 HD
BRANCH  21  24
HETATM   24  C12 UNL     1      -4.547   5.445  13.797  1.00  0.00     0.019 A 
HETATM   25  C13 UNL     1      -5.869   5.855  13.816  1.00  0.00     0.105 A 
HETATM   26  N4  UNL     1      -6.605   4.986  13.055  1.00  0.00    -0.360 N 
HETATM   27  C14 UNL     1      -8.031   5.088  12.836  1.00  0.00     0.156 C 
HETATM   28  C15 UNL     1      -5.796   3.999  12.535  1.00  0.00     0.045 A 
HETATM   29  C16 UNL     1      -6.097   2.902  11.712  1.00  0.00     0.030 A 
HETATM   30  C20 UNL     1      -4.498   4.258  12.988  1.00  0.00     0.005 A 
HETATM   31  C17 UNL     1      -5.054   2.049  11.340  1.00  0.00     0.002 A 
HETATM   32  C18 UNL     1      -3.753   2.284  11.772  1.00  0.00     0.001 A 
HETATM   33  C19 UNL     1      -3.464   3.380  12.590  1.00  0.00     0.014 A 
ENDBRANCH  21  24
ENDBRANCH  14  16
ENDBRANCH  10  14
BRANCH  11  34
HETATM   34  O2  UNL     1       1.740   7.352  15.924  1.00  0.00    -0.354 OA
HETATM   35  C22 UNL     1       1.895   8.595  16.596  1.00  0.00     0.210 C 
ENDBRANCH  11  34
BRANCH  13  36
HETATM   36  O3  UNL     1       4.414   8.684  12.195  1.00  0.00    -0.341 OA
BRANCH  36  37
HETATM   37  C25 UNL     1       5.686   8.253  12.712  1.00  0.00     0.154 C 
HETATM   38  C26 UNL     1       6.052   6.878  12.188  1.00  0.00     0.061 C 
HETATM   39  C27 UNL     1       6.561   7.194  10.800  1.00  0.00     0.170 C 
HETATM   40  O4  UNL     1       7.274   8.429  10.913  1.00  0.00    -0.389 OA
HETATM   41  C28 UNL     1       6.784   9.115  12.086  1.00  0.00     0.200 C 
ENDBRANCH  36  37
ENDBRANCH  13  36
ENDBRANCH   6   8
ENDBRANCH   3   4
TORSDOF 8
ENDMDL
MODEL 3
REMARK minimizedAffinity -9.66105366
REMARK  8 active torsions:
REMARK  status: ('A' for Active; 'I' for Inactive)
REMARK    1  A    between atoms: C3_3  and  C4_4 
REMARK       I    between atoms: C4_4  and  N1_6 
REMARK    2  A    between atoms: N1_6  and  C5_7 
REMARK    3  A    between atoms: C7_9  and  N2_10 
REMARK    4  A    between atoms: N2_10  and  C8_11 
REMARK    5  A    between atoms: C11_16  and  C12_17 
REMARK    6  A    between atoms: C21_29  and  O2_30 
REMARK    7  A    between atoms: C24_33  and  O3_34 
REMARK    8  A    between atoms: O3_34  and  C25_35 
ROOT
HETATM    1  C1  UNL     1       2.755   5.187   6.597  1.00  0.00     0.102 C 
HETATM    2  C2  UNL     1       2.313   6.378   6.865  1.00  0.00    -0.155 C 
HETATM    3  C3  UNL     1       1.870   7.575   7.116  1.00  0.00     0.124 C 
ENDROOT
BRANCH   3   4
HETATM    4  C4  UNL     1       1.337   8.030   8.429  1.00  0.00     0.253 C 
HETATM    5  O1  UNL     1       0.448   8.870   8.418  1.00  0.00    -0.268 OA
HETATM    6  N1  UNL     1       1.951   7.465   9.522  1.00  0.00    -0.321 N 
HETATM    7  H4  UNL     1       2.807   6.959   9.330  1.00  0.00     0.169 HD
BRANCH   6   8
HETATM    8  C5  UNL     1       1.688   7.686  10.896  1.00  0.00     0.071 A 
HETATM    9  C6  UNL     1       0.473   8.345  11.167  1.00  0.00     0.065 A 
HETATM   10  C7  UNL     1       0.019   8.576  12.471  1.00  0.00     0.085 A 
HETATM   11  C21 UNL     1       0.813   8.124  13.545  1.00  0.00     0.098 A 
HETATM   12  C23 UNL     1       2.039   7.505  13.294  1.00  0.00     0.078 A 
HETATM   13  C24 UNL     1       2.496   7.327  11.981  1.00  0.00     0.099 A 
BRANCH  10  14
HETATM   14  N2  UNL     1      -1.198   9.213  12.764  1.00  0.00    -0.189 N 
HETATM   15  H6  UNL     1      -1.200  10.209  12.577  1.00  0.00     0.184 HD
BRANCH  14  16
HETATM   16  C8  UNL     1      -2.417   8.815  13.293  1.00  0.00     0.683 A 
HETATM   17  N3  UNL     1      -3.156   9.630  14.061  1.00  0.00    -0.202 N 
HETATM   18  C9  UNL     1      -4.332   9.159  14.505  1.00  0.00     0.108 A 
ATOM     19  H3  UNL     1      -2.838  10.570  14.297  1.00  0.00     0.183 HD
HETATM   20  C10 UNL     1      -4.800   7.901  14.226  1.00  0.00     0.048 A 
HETATM   21  C11 UNL     1      -3.979   7.123  13.443  1.00  0.00     0.063 A 
HETATM   22  N5  UNL     1      -2.794   7.570  12.973  1.00  0.00    -0.191 N 
ATOM     23  H5  UNL     1      -2.203   6.977  12.390  1.00  0.00     0.184 HD
BRANCH  21  24
HETATM   24  C12 UNL     1      -4.341   5.758  13.065  1.00  0.00     0.019 A 
HETATM   25  C13 UNL     1      -3.440   4.828  12.573  1.00  0.00     0.105 A 
HETATM   26  N4  UNL     1      -4.117   3.667  12.309  1.00  0.00    -0.360 N 
HETATM   27  C14 UNL     1      -3.512   2.464  11.780  1.00  0.00     0.156 C 
HETATM   28  C15 UNL     1      -5.454   3.811  12.607  1.00  0.00     0.045 A 
HETATM   29  C16 UNL     1      -6.524   2.907  12.497  1.00  0.00     0.030 A 
HETATM   30  C20 UNL     1      -5.626   5.117  13.081  1.00  0.00     0.005 A 
HETATM   31  C17 UNL     1      -7.797   3.341  12.878  1.00  0.00     0.002 A 
HETATM   32  C18 UNL     1      -7.997   4.632  13.356  1.00  0.00     0.001 A 
HETATM   33  C19 UNL     1      -6.925   5.522  13.463  1.00  0.00     0.014 A 
ENDBRANCH  21  24
ENDBRANCH  14  16
ENDBRANCH  10  14
BRANCH  11  34
HETATM   34  O2  UNL     1       0.298   8.364  14.798  1.00  0.00    -0.354 OA
HETATM   35  C22 UNL     1       0.932   7.715  15.893  1.00  0.00     0.210 C 
ENDBRANCH  11  34
BRANCH  13  36
HETATM   36  O3  UNL     1       3.757   6.799  11.897  1.00  0.00    -0.341 OA
BRANCH  36  37
HETATM   37  C25 UNL     1       4.793   7.796  11.957  1.00  0.00     0.154 C 
HETATM   38  C26 UNL     1       5.965   7.319  12.792  1.00  0.00     0.061 C 
HETATM   39  C27 UNL     1       6.693   6.414  11.825  1.00  0.00     0.170 C 
HETATM   40  O4  UNL     1       6.585   7.037  10.542  1.00  0.00    -0.389 OA
HETATM   41  C28 UNL     1       5.436   7.914  10.574  1.00  0.00     0.200 C 
ENDBRANCH  36  37
ENDBRANCH  13  36
ENDBRANCH   6   8
ENDBRANCH   3   4
TORSDOF 8
ENDMDL
MODEL 4
REMARK minimizedAffinity -9.61458874
REMARK  8 active torsions:
REMARK  status: ('A' for Active; 'I' for Inactive)
REMARK    1  A    between atoms: C3_3  and  C4_4 
REMARK       I    between atoms: C4_4  and  N1_6 
REMARK    2  A    between atoms: N1_6  and  C5_7 
REMARK    3  A    between atoms: C7_9  and  N2_10 
REMARK    4  A    between atoms: N2_10  and  C8_11 
REMARK    5  A    between atoms: C11_16  and  C12_17 
REMARK    6  A    between atoms: C21_29  and  O2_30 
REMARK    7  A    between atoms: C24_33  and  O3_34 
REMARK    8  A    between atoms: O3_34  and  C25_35 
ROOT
HETATM    1  C1  UNL     1       2.744   5.492   6.862  1.00  0.00     0.102 C 
HETATM    2  C2  UNL     1       2.100   6.607   7.033  1.00  0.00    -0.155 C 
HETATM    3  C3  UNL     1       1.454   7.725   7.187  1.00  0.00     0.124 C 
ENDROOT
BRANCH   3   4
HETATM    4  C4  UNL     1       0.875   8.207   8.470  1.00  0.00     0.253 C 
HETATM    5  O1  UNL     1      -0.078   8.972   8.408  1.00  0.00    -0.268 OA
HETATM    6  N1  UNL     1       1.520   7.751   9.595  1.00  0.00    -0.321 N 
HETATM    7  H4  UNL     1       2.415   7.305   9.435  1.00  0.00     0.169 HD
BRANCH   6   8
HETATM    8  C5  UNL     1       1.228   8.025  10.954  1.00  0.00     0.071 A 
HETATM    9  C6  UNL     1      -0.070   8.519  11.191  1.00  0.00     0.065 A 
HETATM   10  C7  UNL     1      -0.553   8.770  12.481  1.00  0.00     0.085 A 
HETATM   11  C21 UNL     1       0.298   8.511  13.576  1.00  0.00     0.098 A 
HETATM   12  C23 UNL     1       1.600   8.059  13.355  1.00  0.00     0.078 A 
HETATM   13  C24 UNL     1       2.079   7.861  12.053  1.00  0.00     0.099 A 
BRANCH  10  14
HETATM   14  N2  UNL     1      -1.849   9.243  12.742  1.00  0.00    -0.189 N 
HETATM   15  H6  UNL     1      -2.091  10.088  12.238  1.00  0.00     0.184 HD
BRANCH  14  16
HETATM   16  C8  UNL     1      -2.894   8.853  13.567  1.00  0.00     0.683 A 
HETATM   17  N3  UNL     1      -3.198   9.522  14.689  1.00  0.00    -0.202 N 
HETATM   18  C9  UNL     1      -4.243   9.077  15.407  1.00  0.00     0.108 A 
ATOM     19  H3  UNL     1      -2.659  10.336  14.985  1.00  0.00     0.183 HD
HETATM   20  C10 UNL     1      -4.993   7.984  15.059  1.00  0.00     0.048 A 
HETATM   21  C11 UNL     1      -4.609   7.345  13.902  1.00  0.00     0.063 A 
HETATM   22  N5  UNL     1      -3.569   7.772  13.153  1.00  0.00    -0.191 N 
ATOM     23  H5  UNL     1      -3.305   7.286  12.296  1.00  0.00     0.184 HD
BRANCH  21  24
HETATM   24  C12 UNL     1      -5.310   6.163  13.405  1.00  0.00     0.019 A 
HETATM   25  C13 UNL     1      -6.684   6.004  13.450  1.00  0.00     0.105 A 
HETATM   26  N4  UNL     1      -6.998   4.781  12.920  1.00  0.00    -0.360 N 
HETATM   27  C14 UNL     1      -8.340   4.256  12.796  1.00  0.00     0.156 C 
HETATM   28  C15 UNL     1      -5.854   4.118  12.530  1.00  0.00     0.045 A 
HETATM   29  C16 UNL     1      -5.677   2.853  11.948  1.00  0.00     0.030 A 
HETATM   30  C20 UNL     1      -4.776   4.961  12.827  1.00  0.00     0.005 A 
HETATM   31  C17 UNL     1      -4.375   2.434  11.661  1.00  0.00     0.002 A 
HETATM   32  C18 UNL     1      -3.285   3.252  11.941  1.00  0.00     0.001 A 
HETATM   33  C19 UNL     1      -3.473   4.510  12.519  1.00  0.00     0.014 A 
ENDBRANCH  21  24
ENDBRANCH  14  16
ENDBRANCH  10  14
BRANCH  11  34
HETATM   34  O2  UNL     1      -0.247   8.759  14.815  1.00  0.00    -0.354 OA
HETATM   35  C22 UNL     1      -0.056   7.766  15.815  1.00  0.00     0.210 C 
ENDBRANCH  11  34
BRANCH  13  36
HETATM   36  O3  UNL     1       3.403   7.516  11.992  1.00  0.00    -0.341 OA
BRANCH  36  37
HETATM   37  C25 UNL     1       3.921   7.495  10.650  1.00  0.00     0.154 C 
HETATM   38  C26 UNL     1       5.209   8.288  10.548  1.00  0.00     0.061 C 
HETATM   39  C27 UNL     1       6.223   7.318  11.109  1.00  0.00     0.170 C 
HETATM   40  O4  UNL     1       5.824   6.022  10.652  1.00  0.00    -0.389 OA
HETATM   41  C28 UNL     1       4.414   6.080  10.340  1.00  0.00     0.200 C 
ENDBRANCH  36  37
ENDBRANCH  13  36
ENDBRANCH   6   8
ENDBRANCH   3   4
TORSDOF 8
ENDMDL
MODEL 5
REMARK minimizedAffinity -9.29621601
REMARK  8 active torsions:
REMARK  status: ('A' for Active; 'I' for Inactive)
REMARK    1  A    between atoms: C3_3  and  C4_4 
REMARK       I    between atoms: C4_4  and  N1_6 
REMARK    2  A    between atoms: N1_6  and  C5_7 
REMARK    3  A    between atoms: C7_9  and  N2_10 
REMARK    4  A    between atoms: N2_10  and  C8_11 
REMARK    5  A    between atoms: C11_16  and  C12_17 
REMARK    6  A    between atoms: C21_29  and  O2_30 
REMARK    7  A    between atoms: C24_33  and  O3_34 
REMARK    8  A    between atoms: O3_34  and  C25_35 
ROOT
HETATM    1  C1  UNL     1      -7.960   3.063  12.955  1.00  0.00     0.102 C 
HETATM    2  C2  UNL     1      -6.714   3.303  12.678  1.00  0.00    -0.155 C 
HETATM    3  C3  UNL     1      -5.467   3.531  12.389  1.00  0.00     0.124 C 
ENDROOT
BRANCH   3   4
HETATM    4  C4  UNL     1      -4.693   4.724  12.828  1.00  0.00     0.253 C 
HETATM    5  O1  UNL     1      -3.689   5.012  12.192  1.00  0.00    -0.268 OA
HETATM    6  N1  UNL     1      -5.193   5.350  13.946  1.00  0.00    -0.321 N 
HETATM    7  H4  UNL     1      -5.903   4.836  14.454  1.00  0.00     0.169 HD
BRANCH   6   8
HETATM    8  C5  UNL     1      -4.694   6.494  14.616  1.00  0.00     0.071 A 
HETATM    9  C6  UNL     1      -3.370   6.375  15.081  1.00  0.00     0.065 A 
HETATM   10  C7  UNL     1      -2.693   7.436  15.697  1.00  0.00     0.085 A 
HETATM   11  C21 UNL     1      -3.371   8.663  15.848  1.00  0.00     0.098 A 
HETATM   12  C23 UNL     1      -4.697   8.784  15.429  1.00  0.00     0.078 A 
HETATM   13  C24 UNL     1      -5.371   7.695  14.859  1.00  0.00     0.099 A 
BRANCH  10  14
HETATM   14  N2  UNL     1      -1.367   7.347  16.150  1.00  0.00    -0.189 N 
HETATM   15  H6  UNL     1      -1.278   7.239  17.153  1.00  0.00     0.184 HD
BRANCH  14  16
HETATM   16  C8  UNL     1      -0.116   7.408  15.555  1.00  0.00     0.683 A 
HETATM   17  N3  UNL     1       1.014   7.384  16.278  1.00  0.00    -0.202 N 
HETATM   18  C9  UNL     1       2.176   7.425  15.605  1.00  0.00     0.108 A 
ATOM     19  H3  UNL     1       0.992   7.335  17.296  1.00  0.00     0.183 HD
HETATM   20  C10 UNL     1       2.261   7.501  14.239  1.00  0.00     0.048 A 
HETATM   21  C11 UNL     1       1.058   7.534  13.571  1.00  0.00     0.063 A 
HETATM   22  N5  UNL     1      -0.127   7.486  14.217  1.00  0.00    -0.191 N 
ATOM     23  H5  UNL     1      -1.007   7.507  13.701  1.00  0.00     0.184 HD
BRANCH  21  24
HETATM   24  C12 UNL     1       0.987   7.619  12.114  1.00  0.00     0.019 A 
HETATM   25  C13 UNL     1       0.044   8.365  11.429  1.00  0.00     0.105 A 
HETATM   26  N4  UNL     1       0.257   8.206  10.085  1.00  0.00    -0.360 N 
HETATM   27  C14 UNL     1      -0.532   8.831   9.047  1.00  0.00     0.156 C 
HETATM   28  C15 UNL     1       1.321   7.359   9.864  1.00  0.00     0.045 A 
HETATM   29  C16 UNL     1       1.900   6.900   8.669  1.00  0.00     0.030 A 
HETATM   30  C20 UNL     1       1.798   6.970  11.121  1.00  0.00     0.005 A 
HETATM   31  C17 UNL     1       2.988   6.028   8.754  1.00  0.00     0.002 A 
HETATM   32  C18 UNL     1       3.486   5.628   9.990  1.00  0.00     0.001 A 
HETATM   33  C19 UNL     1       2.903   6.091  11.173  1.00  0.00     0.014 A 
ENDBRANCH  21  24
ENDBRANCH  14  16
ENDBRANCH  10  14
BRANCH  11  34
HETATM   34  O2  UNL     1      -2.642   9.668  16.442  1.00  0.00    -0.354 OA
HETATM   35  C22 UNL     1      -3.261  10.370  17.512  1.00  0.00     0.210 C 
ENDBRANCH  11  34
BRANCH  13  36
HETATM   36  O3  UNL     1      -6.692   7.934  14.592  1.00  0.00    -0.341 OA
BRANCH  36  37
HETATM   37  C25 UNL     1      -7.579   7.027  15.270  1.00  0.00     0.154 C 
HETATM   38  C26 UNL     1      -8.485   7.766  16.236  1.00  0.00     0.061 C 
HETATM   39  C27 UNL     1      -9.538   8.331  15.311  1.00  0.00     0.170 C 
HETATM   40  O4  UNL     1      -9.766   7.331  14.314  1.00  0.00    -0.389 OA
HETATM   41  C28 UNL     1      -8.593   6.488  14.259  1.00  0.00     0.200 C 
ENDBRANCH  36  37
ENDBRANCH  13  36
ENDBRANCH   6   8
ENDBRANCH   3   4
TORSDOF 8
ENDMDL
MODEL 6
REMARK minimizedAffinity -9.26742649
REMARK  8 active torsions:
REMARK  status: ('A' for Active; 'I' for Inactive)
REMARK    1  A    between atoms: C3_3  and  C4_4 
REMARK       I    between atoms: C4_4  and  N1_6 
REMARK    2  A    between atoms: N1_6  and  C5_7 
REMARK    3  A    between atoms: C7_9  and  N2_10 
REMARK    4  A    between atoms: N2_10  and  C8_11 
REMARK    5  A    between atoms: C11_16  and  C12_17 
REMARK    6  A    between atoms: C21_29  and  O2_30 
REMARK    7  A    between atoms: C24_33  and  O3_34 
REMARK    8  A    between atoms: O3_34  and  C25_35 
ROOT
HETATM    1  C1  UNL     1       2.682   8.066   7.676  1.00  0.00     0.102 C 
HETATM    2  C2  UNL     1       1.427   8.098   8.009  1.00  0.00    -0.155 C 
HETATM    3  C3  UNL     1       0.167   8.120   8.331  1.00  0.00     0.124 C 
ENDROOT
BRANCH   3   4
HETATM    4  C4  UNL     1      -0.390   8.748   9.559  1.00  0.00     0.253 C 
HETATM    5  O1  UNL     1      -1.322   9.528   9.423  1.00  0.00    -0.268 OA
HETATM    6  N1  UNL     1       0.252   8.395  10.723  1.00  0.00    -0.321 N 
HETATM    7  H4  UNL     1       1.134   7.910  10.606  1.00  0.00     0.169 HD
BRANCH   6   8
HETATM    8  C5  UNL     1      -0.024   8.816  12.047  1.00  0.00     0.071 A 
HETATM    9  C6  UNL     1      -1.393   8.925  12.359  1.00  0.00     0.065 A 
HETATM   10  C7  UNL     1      -1.846   9.254  13.643  1.00  0.00     0.085 A 
HETATM   11  C21 UNL     1      -0.887   9.478  14.653  1.00  0.00     0.098 A 
HETATM   12  C23 UNL     1       0.474   9.413  14.350  1.00  0.00     0.078 A 
HETATM   13  C24 UNL     1       0.905   9.129  13.046  1.00  0.00     0.099 A 
BRANCH  10  14
HETATM   14  N2  UNL     1      -3.205   9.349  13.982  1.00  0.00    -0.189 N 
HETATM   15  H6  UNL     1      -3.488  10.265  14.308  1.00  0.00     0.184 HD
BRANCH  14  16
HETATM   16  C8  UNL     1      -4.276   8.469  14.017  1.00  0.00     0.683 A 
HETATM   17  N3  UNL     1      -5.449   8.802  14.577  1.00  0.00    -0.202 N 
HETATM   18  C9  UNL     1      -6.432   7.887  14.539  1.00  0.00     0.108 A 
ATOM     19  H3  UNL     1      -5.589   9.713  15.014  1.00  0.00     0.183 HD
HETATM   20  C10 UNL     1      -6.292   6.646  13.974  1.00  0.00     0.048 A 
HETATM   21  C11 UNL     1      -5.056   6.377  13.432  1.00  0.00     0.063 A 
HETATM   22  N5  UNL     1      -4.050   7.278  13.446  1.00  0.00    -0.191 N 
ATOM     23  H5  UNL     1      -3.143   7.058  13.033  1.00  0.00     0.184 HD
BRANCH  21  24
HETATM   24  C12 UNL     1      -4.755   5.095  12.798  1.00  0.00     0.019 A 
HETATM   25  C13 UNL     1      -3.531   4.781  12.233  1.00  0.00     0.105 A 
HETATM   26  N4  UNL     1      -3.602   3.513  11.718  1.00  0.00    -0.360 N 
HETATM   27  C14 UNL     1      -2.516   2.836  11.046  1.00  0.00     0.156 C 
HETATM   28  C15 UNL     1      -4.857   2.982  11.923  1.00  0.00     0.045 A 
HETATM   29  C16 UNL     1      -5.395   1.733  11.571  1.00  0.00     0.030 A 
HETATM   30  C20 UNL     1      -5.605   3.954  12.595  1.00  0.00     0.005 A 
HETATM   31  C17 UNL     1      -6.724   1.467  11.911  1.00  0.00     0.002 A 
HETATM   32  C18 UNL     1      -7.491   2.413  12.583  1.00  0.00     0.001 A 
HETATM   33  C19 UNL     1      -6.944   3.652  12.930  1.00  0.00     0.014 A 
ENDBRANCH  21  24
ENDBRANCH  14  16
ENDBRANCH  10  14
BRANCH  11  34
HETATM   34  O2  UNL     1      -1.400   9.776  15.895  1.00  0.00    -0.354 OA
HETATM   35  C22 UNL     1      -0.466  10.032  16.935  1.00  0.00     0.210 C 
ENDBRANCH  11  34
BRANCH  13  36
HETATM   36  O3  UNL     1       2.262   9.200  12.880  1.00  0.00    -0.341 OA
BRANCH  36  37
HETATM   37  C25 UNL     1       2.958   8.059  13.414  1.00  0.00     0.154 C 
HETATM   38  C26 UNL     1       1.993   6.943  13.763  1.00  0.00     0.061 C 
HETATM   39  C27 UNL     1       1.722   6.326  12.410  1.00  0.00     0.170 C 
HETATM   40  O4  UNL     1       2.963   6.371  11.700  1.00  0.00    -0.389 OA
HETATM   41  C28 UNL     1       3.771   7.414  12.290  1.00  0.00     0.200 C 
ENDBRANCH  36  37
ENDBRANCH  13  36
ENDBRANCH   6   8
ENDBRANCH   3   4
TORSDOF 8
ENDMDL
MODEL 7
REMARK minimizedAffinity -9.23063183
REMARK  8 active torsions:
REMARK  status: ('A' for Active; 'I' for Inactive)
REMARK    1  A    between atoms: C3_3  and  C4_4 
REMARK       I    between atoms: C4_4  and  N1_6 
REMARK    2  A    between atoms: N1_6  and  C5_7 
REMARK    3  A    between atoms: C7_9  and  N2_10 
REMARK    4  A    between atoms: N2_10  and  C8_11 
REMARK    5  A    between atoms: C11_16  and  C12_17 
REMARK    6  A    between atoms: C21_29  and  O2_30 
REMARK    7  A    between atoms: C24_33  and  O3_34 
REMARK    8  A    between atoms: O3_34  and  C25_35 
ROOT
HETATM    1  C1  UNL     1      -0.937  10.659  14.485  1.00  0.00     0.102 C 
HETATM    2  C2  UNL     1      -1.459   9.508  14.784  1.00  0.00    -0.155 C 
HETATM    3  C3  UNL     1      -1.995   8.363  15.089  1.00  0.00     0.124 C 
ENDROOT
BRANCH   3   4
HETATM    4  C4  UNL     1      -1.486   7.037  14.646  1.00  0.00     0.253 C 
HETATM    5  O1  UNL     1      -0.811   6.396  15.440  1.00  0.00    -0.268 OA
HETATM    6  N1  UNL     1      -1.813   6.702  13.353  1.00  0.00    -0.321 N 
HETATM    7  H4  UNL     1      -2.190   7.454  12.789  1.00  0.00     0.169 HD
BRANCH   6   8
HETATM    8  C5  UNL     1      -1.482   5.528  12.633  1.00  0.00     0.071 A 
HETATM    9  C6  UNL     1      -2.587   4.793  12.161  1.00  0.00     0.065 A 
HETATM   10  C7  UNL     1      -2.444   3.649  11.367  1.00  0.00     0.085 A 
HETATM   11  C21 UNL     1      -1.140   3.229  11.030  1.00  0.00     0.098 A 
HETATM   12  C23 UNL     1      -0.034   3.923  11.523  1.00  0.00     0.078 A 
HETATM   13  C24 UNL     1      -0.200   5.037  12.357  1.00  0.00     0.099 A 
BRANCH  10  14
HETATM   14  N2  UNL     1      -3.530   2.913  10.869  1.00  0.00    -0.189 N 
HETATM   15  H6  UNL     1      -3.375   2.513   9.951  1.00  0.00     0.184 HD
BRANCH  14  16
HETATM   16  C8  UNL     1      -4.811   2.620  11.316  1.00  0.00     0.683 A 
HETATM   17  N3  UNL     1      -5.346   1.398  11.178  1.00  0.00    -0.202 N 
HETATM   18  C9  UNL     1      -6.584   1.210  11.664  1.00  0.00     0.108 A 
ATOM     19  H3  UNL     1      -4.835   0.642  10.723  1.00  0.00     0.183 HD
HETATM   20  C10 UNL     1      -7.318   2.194  12.274  1.00  0.00     0.048 A 
HETATM   21  C11 UNL     1      -6.703   3.422  12.366  1.00  0.00     0.063 A 
HETATM   22  N5  UNL     1      -5.456   3.641  11.895  1.00  0.00    -0.191 N 
ATOM     23  H5  UNL     1      -5.018   4.559  11.978  1.00  0.00     0.184 HD
BRANCH  21  24
HETATM   24  C12 UNL     1      -7.361   4.569  12.987  1.00  0.00     0.019 A 
HETATM   25  C13 UNL     1      -8.696   4.886  12.802  1.00  0.00     0.105 A 
HETATM   26  N4  UNL     1      -8.974   6.024  13.512  1.00  0.00    -0.360 N 
HETATM   27  C14 UNL     1     -10.270   6.666  13.564  1.00  0.00     0.156 C 
HETATM   28  C15 UNL     1      -7.845   6.475  14.159  1.00  0.00     0.045 A 
HETATM   29  C16 UNL     1      -7.643   7.590  14.989  1.00  0.00     0.030 A 
HETATM   30  C20 UNL     1      -6.814   5.583  13.844  1.00  0.00     0.005 A 
HETATM   31  C17 UNL     1      -6.364   7.802  15.511  1.00  0.00     0.002 A 
HETATM   32  C18 UNL     1      -5.321   6.930  15.218  1.00  0.00     0.001 A 
HETATM   33  C19 UNL     1      -5.533   5.822  14.393  1.00  0.00     0.014 A 
ENDBRANCH  21  24
ENDBRANCH  14  16
ENDBRANCH  10  14
BRANCH  11  34
HETATM   34  O2  UNL     1      -1.072   2.111  10.230  1.00  0.00    -0.354 OA
HETATM   35  C22 UNL     1      -0.757   0.879  10.867  1.00  0.00     0.210 C 
ENDBRANCH  11  34
BRANCH  13  36
HETATM   36  O3  UNL     1       0.972   5.550  12.843  1.00  0.00    -0.341 OA
BRANCH  36  37
HETATM   37  C25 UNL     1       1.852   6.029  11.810  1.00  0.00     0.154 C 
HETATM   38  C26 UNL     1       1.075   6.725  10.709  1.00  0.00     0.061 C 
HETATM   39  C27 UNL     1       0.815   8.084  11.317  1.00  0.00     0.170 C 
HETATM   40  O4  UNL     1       1.994   8.418  12.056  1.00  0.00    -0.389 OA
HETATM   41  C28 UNL     1       2.680   7.186  12.372  1.00  0.00     0.200 C 
ENDBRANCH  36  37
ENDBRANCH  13  36
ENDBRANCH   6   8
ENDBRANCH   3   4
TORSDOF 8
ENDMDL
MODEL 8
REMARK minimizedAffinity -9.15676689
REMARK  8 active torsions:
REMARK  status: ('A' for Active; 'I' for Inactive)
REMARK    1  A    between atoms: C3_3  and  C4_4 
REMARK       I    between atoms: C4_4  and  N1_6 
REMARK    2  A    between atoms: N1_6  and  C5_7 
REMARK    3  A    between atoms: C7_9  and  N2_10 
REMARK    4  A    between atoms: N2_10  and  C8_11 
REMARK    5  A    between atoms: C11_16  and  C12_17 
REMARK    6  A    between atoms: C21_29  and  O2_30 
REMARK    7  A    between atoms: C24_33  and  O3_34 
REMARK    8  A    between atoms: O3_34  and  C25_35 
ROOT
HETATM    1  C1  UNL     1      -0.617   0.327  10.659  1.00  0.00     0.102 C 
HETATM    2  C2  UNL     1      -1.217   1.479  10.668  1.00  0.00    -0.155 C 
HETATM    3  C3  UNL     1      -1.828   2.627  10.665  1.00  0.00     0.124 C 
ENDROOT
BRANCH   3   4
HETATM    4  C4  UNL     1      -1.727   3.651  11.740  1.00  0.00     0.253 C 
HETATM    5  O1  UNL     1      -2.724   3.858  12.419  1.00  0.00    -0.268 OA
HETATM    6  N1  UNL     1      -0.508   4.281  11.818  1.00  0.00    -0.321 N 
HETATM    7  H4  UNL     1       0.115   4.126  11.033  1.00  0.00     0.169 HD
BRANCH   6   8
HETATM    8  C5  UNL     1      -0.092   5.295  12.714  1.00  0.00     0.071 A 
HETATM    9  C6  UNL     1      -1.051   5.661  13.678  1.00  0.00     0.065 A 
HETATM   10  C7  UNL     1      -0.781   6.592  14.690  1.00  0.00     0.085 A 
HETATM   11  C21 UNL     1       0.502   7.175  14.737  1.00  0.00     0.098 A 
HETATM   12  C23 UNL     1       1.451   6.853  13.764  1.00  0.00     0.078 A 
HETATM   13  C24 UNL     1       1.143   5.954  12.733  1.00  0.00     0.099 A 
BRANCH  10  14
HETATM   14  N2  UNL     1      -1.715   6.957  15.672  1.00  0.00    -0.189 N 
HETATM   15  H6  UNL     1      -1.618   6.451  16.545  1.00  0.00     0.184 HD
BRANCH  14  16
HETATM   16  C8  UNL     1      -2.787   7.835  15.737  1.00  0.00     0.683 A 
HETATM   17  N3  UNL     1      -2.650   9.089  16.192  1.00  0.00    -0.202 N 
HETATM   18  C9  UNL     1      -3.745   9.868  16.192  1.00  0.00     0.108 A 
ATOM     19  H3  UNL     1      -1.750   9.438  16.523  1.00  0.00     0.183 HD
HETATM   20  C10 UNL     1      -4.977   9.444  15.768  1.00  0.00     0.048 A 
HETATM   21  C11 UNL     1      -5.038   8.142  15.328  1.00  0.00     0.063 A 
HETATM   22  N5  UNL     1      -3.954   7.336  15.306  1.00  0.00    -0.191 N 
ATOM     23  H5  UNL     1      -4.022   6.375  14.971  1.00  0.00     0.184 HD
BRANCH  21  24
HETATM   24  C12 UNL     1      -6.284   7.548  14.849  1.00  0.00     0.019 A 
HETATM   25  C13 UNL     1      -7.540   8.067  15.114  1.00  0.00     0.105 A 
HETATM   26  N4  UNL     1      -8.477   7.257  14.531  1.00  0.00    -0.360 N 
HETATM   27  C14 UNL     1      -9.906   7.475  14.591  1.00  0.00     0.156 C 
HETATM   28  C15 UNL     1      -7.868   6.201  13.889  1.00  0.00     0.045 A 
HETATM   29  C16 UNL     1      -8.411   5.126  13.166  1.00  0.00     0.030 A 
HETATM   30  C20 UNL     1      -6.489   6.355  14.075  1.00  0.00     0.005 A 
HETATM   31  C17 UNL     1      -7.532   4.186  12.620  1.00  0.00     0.002 A 
HETATM   32  C18 UNL     1      -6.157   4.316  12.785  1.00  0.00     0.001 A 
HETATM   33  C19 UNL     1      -5.627   5.390  13.505  1.00  0.00     0.014 A 
ENDBRANCH  21  24
ENDBRANCH  14  16
ENDBRANCH  10  14
BRANCH  11  34
HETATM   34  O2  UNL     1       0.706   8.064  15.767  1.00  0.00    -0.354 OA
HETATM   35  C22 UNL     1       2.029   8.167  16.279  1.00  0.00     0.210 C 
ENDBRANCH  11  34
BRANCH  13  36
HETATM   36  O3  UNL     1       2.135   5.817  11.800  1.00  0.00    -0.341 OA
BRANCH  36  37
HETATM   37  C25 UNL     1       1.871   6.536  10.582  1.00  0.00     0.154 C 
HETATM   38  C26 UNL     1       2.560   7.887  10.583  1.00  0.00     0.061 C 
HETATM   39  C27 UNL     1       3.981   7.517  10.225  1.00  0.00     0.170 C 
HETATM   40  O4  UNL     1       3.883   6.460   9.266  1.00  0.00    -0.389 OA
HETATM   41  C28 UNL     1       2.593   5.831   9.432  1.00  0.00     0.200 C 
ENDBRANCH  36  37
ENDBRANCH  13  36
ENDBRANCH   6   8
ENDBRANCH   3   4
TORSDOF 8
ENDMDL
MODEL 9
REMARK minimizedAffinity -9.08791542
REMARK  8 active torsions:
REMARK  status: ('A' for Active; 'I' for Inactive)
REMARK    1  A    between atoms: C3_3  and  C4_4 
REMARK       I    between atoms: C4_4  and  N1_6 
REMARK    2  A    between atoms: N1_6  and  C5_7 
REMARK    3  A    between atoms: C7_9  and  N2_10 
REMARK    4  A    between atoms: N2_10  and  C8_11 
REMARK    5  A    between atoms: C11_16  and  C12_17 
REMARK    6  A    between atoms: C21_29  and  O2_30 
REMARK    7  A    between atoms: C24_33  and  O3_34 
REMARK    8  A    between atoms: O3_34  and  C25_35 
ROOT
HETATM    1  C1  UNL     1      -1.174  12.645  15.035  1.00  0.00     0.102 C 
HETATM    2  C2  UNL     1      -0.638  11.500  14.738  1.00  0.00    -0.155 C 
HETATM    3  C3  UNL     1      -0.090  10.356  14.453  1.00  0.00     0.124 C 
ENDROOT
BRANCH   3   4
HETATM    4  C4  UNL     1      -0.647   9.355  13.504  1.00  0.00     0.253 C 
HETATM    5  O1  UNL     1      -1.518   9.732  12.731  1.00  0.00    -0.268 OA
HETATM    6  N1  UNL     1      -0.129   8.088  13.639  1.00  0.00    -0.321 N 
HETATM    7  H4  UNL     1       0.420   7.928  14.475  1.00  0.00     0.169 HD
BRANCH   6   8
HETATM    8  C5  UNL     1      -0.447   6.920  12.903  1.00  0.00     0.071 A 
HETATM    9  C6  UNL     1      -1.511   6.162  13.429  1.00  0.00     0.065 A 
HETATM   10  C7  UNL     1      -2.007   5.020  12.788  1.00  0.00     0.085 A 
HETATM   11  C21 UNL     1      -1.414   4.626  11.570  1.00  0.00     0.098 A 
HETATM   12  C23 UNL     1      -0.331   5.343  11.057  1.00  0.00     0.078 A 
HETATM   13  C24 UNL     1       0.180   6.456  11.741  1.00  0.00     0.099 A 
BRANCH  10  14
HETATM   14  N2  UNL     1      -3.080   4.261  13.282  1.00  0.00    -0.189 N 
HETATM   15  H6  UNL     1      -2.910   3.846  14.191  1.00  0.00     0.184 HD
BRANCH  14  16
HETATM   16  C8  UNL     1      -4.333   3.900  12.809  1.00  0.00     0.683 A 
HETATM   17  N3  UNL     1      -4.511   2.826  12.025  1.00  0.00    -0.202 N 
HETATM   18  C9  UNL     1      -5.767   2.548  11.639  1.00  0.00     0.108 A 
ATOM     19  H3  UNL     1      -3.725   2.245  11.734  1.00  0.00     0.183 HD
HETATM   20  C10 UNL     1      -6.855   3.302  11.993  1.00  0.00     0.048 A 
HETATM   21  C11 UNL     1      -6.587   4.393  12.789  1.00  0.00     0.063 A 
HETATM   22  N5  UNL     1      -5.337   4.695  13.201  1.00  0.00    -0.191 N 
ATOM     23  H5  UNL     1      -5.163   5.506  13.795  1.00  0.00     0.184 HD
BRANCH  21  24
HETATM   24  C12 UNL     1      -7.645   5.293  13.244  1.00  0.00     0.019 A 
HETATM   25  C13 UNL     1      -8.726   5.670  12.466  1.00  0.00     0.105 A 
HETATM   26  N4  UNL     1      -9.507   6.528  13.195  1.00  0.00    -0.360 N 
HETATM   27  C14 UNL     1     -10.729   7.136  12.716  1.00  0.00     0.156 C 
HETATM   28  C15 UNL     1      -8.959   6.736  14.441  1.00  0.00     0.045 A 
HETATM   29  C16 UNL     1      -9.392   7.528  15.516  1.00  0.00     0.030 A 
HETATM   30  C20 UNL     1      -7.785   5.976  14.500  1.00  0.00     0.005 A 
HETATM   31  C17 UNL     1      -8.615   7.549  16.678  1.00  0.00     0.002 A 
HETATM   32  C18 UNL     1      -7.446   6.801  16.766  1.00  0.00     0.001 A 
HETATM   33  C19 UNL     1      -7.025   6.014  15.691  1.00  0.00     0.014 A 
ENDBRANCH  21  24
ENDBRANCH  14  16
ENDBRANCH  10  14
BRANCH  11  34
HETATM   34  O2  UNL     1      -1.963   3.509  10.984  1.00  0.00    -0.354 OA
HETATM   35  C22 UNL     1      -1.225   2.298  11.086  1.00  0.00     0.210 C 
ENDBRANCH  11  34
BRANCH  13  36
HETATM   36  O3  UNL     1       1.302   6.993  11.170  1.00  0.00    -0.341 OA
BRANCH  36  37
HETATM   37  C25 UNL     1       1.668   6.355   9.933  1.00  0.00     0.154 C 
HETATM   38  C26 UNL     1       1.914   7.379   8.841  1.00  0.00     0.061 C 
HETATM   39  C27 UNL     1       3.307   7.863   9.171  1.00  0.00     0.170 C 
HETATM   40  O4  UNL     1       4.027   6.714   9.626  1.00  0.00    -0.389 OA
HETATM   41  C28 UNL     1       3.062   5.745  10.093  1.00  0.00     0.200 C 
ENDBRANCH  36  37
ENDBRANCH  13  36
ENDBRANCH   6   8
ENDBRANCH   3   4
TORSDOF 8
ENDMDL
