MODEL 1
REMARK minimizedAffinity -11.0269213
REMARK CNNscore 0.817015767
REMARK CNNaffinity 7.97076178
REMARK  6 active torsions:
REMARK  status: ('A' for Active; 'I' for Inactive)
REMARK    1  A    between atoms: O1_2  and  C2_3 
REMARK    2  A    between atoms: C3_4  and  N1_5 
REMARK       I    between atoms: N1_5  and  C5_7 
REMARK    3  A    between atoms: C5_7  and  C6_9 
REMARK    4  A    between atoms: C6_9  and  N2_10 
REMARK    5  A    between atoms: C8_12  and  N4_33 
REMARK    6  A    between atoms: C9_14  and  N3_16 
ROOT
HETATM    1  C2  UNL     1      -0.651   6.815  13.955  1.00  0.00     0.199 C 
HETATM    2  C3  UNL     1      -0.364   8.331  13.889  1.00  0.00     0.124 C 
HETATM    3  C7  UNL     1      -0.964   8.898  12.599  1.00  0.00     0.082 C 
HETATM    4  C8  UNL     1      -2.436   8.490  12.462  1.00  0.00     0.233 C 
HETATM    5  O3  UNL     1      -2.962   7.769  13.577  1.00  0.00    -0.333 OA
HETATM    6  C9  UNL     1      -2.203   6.637  14.081  1.00  0.00     0.168 C 
HETATM    7  C10 UNL     1      -2.613   6.695  15.573  1.00  0.00     0.074 C 
ENDROOT
BRANCH   2   8
HETATM    8  N1  UNL     1       1.047   8.702  14.166  1.00  0.00    -0.347 N 
HETATM    9  C4  UNL     1       1.729   9.418  13.090  1.00  0.00     0.153 C 
HETATM   10  C5  UNL     1       1.682   8.366  15.363  1.00  0.00     0.247 C 
HETATM   11  O2  UNL     1       1.106   7.808  16.298  1.00  0.00    -0.271 OA
BRANCH  10  12
HETATM   12  C6  UNL     1       3.177   8.689  15.521  1.00  0.00     0.369 C 
BRANCH  12  13
HETATM   13  N2  UNL     1       4.009   7.520  15.194  1.00  0.00     0.087 N 
HETATM   14  H11 UNL     1       3.725   6.751  15.806  1.00  0.00     0.313 HD
HETATM   15  H12 UNL     1       4.974   7.728  15.451  1.00  0.00     0.313 HD
ENDBRANCH  12  13
ENDBRANCH  10  12
ENDBRANCH   2   8
BRANCH   1  16
HETATM   16  O1  UNL     1      -0.169   6.211  12.745  1.00  0.00    -0.384 OA
HETATM   17  C1  UNL     1       1.247   6.154  12.660  1.00  0.00     0.202 C 
ENDBRANCH   1  16
BRANCH   6  18
HETATM   18  N3  UNL     1      -2.683   5.413  13.415  1.00  0.00    -0.308 N 
HETATM   19  C11 UNL     1      -1.944   4.468  12.702  1.00  0.00     0.049 A 
HETATM   20  C12 UNL     1      -0.578   4.382  12.367  1.00  0.00     0.030 A 
HETATM   21  C16 UNL     1      -2.842   3.473  12.274  1.00  0.00     0.004 A 
HETATM   22  C13 UNL     1      -0.118   3.269  11.656  1.00  0.00     0.002 A 
HETATM   23  C14 UNL     1      -0.988   2.262  11.265  1.00  0.00     0.001 A 
HETATM   24  C15 UNL     1      -2.349   2.358  11.559  1.00  0.00     0.014 A 
HETATM   25  C17 UNL     1      -4.152   3.882  12.645  1.00  0.00     0.015 A 
HETATM   26  C18 UNL     1      -5.464   3.412  12.465  1.00  0.00    -0.010 A 
HETATM   27  C28 UNL     1      -4.010   5.080  13.312  1.00  0.00     0.077 A 
HETATM   28  C19 UNL     1      -6.601   4.151  12.917  1.00  0.00     0.054 A 
HETATM   29  C30 UNL     1      -5.930   2.160  11.784  1.00  0.00     0.163 A 
HETATM   30  C20 UNL     1      -6.544   5.391  13.574  1.00  0.00     0.022 A 
HETATM   31  C29 UNL     1      -7.794   3.376  12.546  1.00  0.00     0.253 A 
HETATM   32  C21 UNL     1      -7.434   6.371  14.112  1.00  0.00     0.004 A 
HETATM   33  C27 UNL     1      -5.263   5.871  13.796  1.00  0.00     0.077 A 
HETATM   34  C22 UNL     1      -8.838   6.489  14.197  1.00  0.00     0.014 A 
HETATM   35  C26 UNL     1      -6.650   7.406  14.649  1.00  0.00     0.048 A 
HETATM   36  C23 UNL     1      -9.415   7.612  14.799  1.00  0.00     0.001 A 
HETATM   37  C24 UNL     1      -8.618   8.621  15.322  1.00  0.00     0.002 A 
HETATM   38  C25 UNL     1      -7.226   8.536  15.258  1.00  0.00     0.030 A 
HETATM   39  N4  UNL     1      -5.321   7.059  14.456  1.00  0.00    -0.316 N 
HETATM   40  O4  UNL     1      -8.959   3.649  12.751  1.00  0.00    -0.268 OA
HETATM   41  N5  UNL     1      -7.359   2.238  11.903  1.00  0.00    -0.353 N 
HETATM   42  H27 UNL     1      -8.019   1.559  11.549  1.00  0.00     0.163 HD
ENDBRANCH   6  18
TORSDOF 6
ENDMDL
MODEL 2
REMARK minimizedAffinity -10.5626106
REMARK CNNscore 0.55049634
REMARK CNNaffinity 7.523561
REMARK  6 active torsions:
REMARK  status: ('A' for Active; 'I' for Inactive)
REMARK    1  A    between atoms: O1_2  and  C2_3 
REMARK    2  A    between atoms: C3_4  and  N1_5 
REMARK       I    between atoms: N1_5  and  C5_7 
REMARK    3  A    between atoms: C5_7  and  C6_9 
REMARK    4  A    between atoms: C6_9  and  N2_10 
REMARK    5  A    between atoms: C8_12  and  N4_33 
REMARK    6  A    between atoms: C9_14  and  N3_16 
ROOT
HETATM    1  C2  UNL     1      -2.138   8.215  15.074  1.00  0.00     0.199 C 
HETATM    2  C3  UNL     1      -1.266   9.482  15.208  1.00  0.00     0.124 C 
HETATM    3  C7  UNL     1      -0.076   9.375  14.250  1.00  0.00     0.082 C 
HETATM    4  C8  UNL     1      -0.553   9.039  12.830  1.00  0.00     0.233 C 
HETATM    5  O3  UNL     1      -1.972   8.993  12.673  1.00  0.00    -0.333 OA
HETATM    6  C9  UNL     1      -2.742   8.213  13.627  1.00  0.00     0.168 C 
HETATM    7  C10 UNL     1      -4.062   9.022  13.615  1.00  0.00     0.074 C 
ENDROOT
BRANCH   2   8
HETATM    8  N1  UNL     1      -0.940   9.858  16.607  1.00  0.00    -0.347 N 
HETATM    9  C4  UNL     1      -2.013   9.653  17.577  1.00  0.00     0.153 C 
HETATM   10  C5  UNL     1       0.299  10.393  16.962  1.00  0.00     0.247 C 
HETATM   11  O2  UNL     1       1.230  10.525  16.166  1.00  0.00    -0.271 OA
BRANCH  10  12
HETATM   12  C6  UNL     1       0.513  10.860  18.412  1.00  0.00     0.369 C 
BRANCH  12  13
HETATM   13  N2  UNL     1       1.736  10.272  18.983  1.00  0.00     0.087 N 
HETATM   14  H11 UNL     1       1.651   9.254  18.925  1.00  0.00     0.313 HD
HETATM   15  H12 UNL     1       1.762  10.486  19.979  1.00  0.00     0.313 HD
ENDBRANCH  12  13
ENDBRANCH  10  12
ENDBRANCH   2   8
BRANCH   1  16
HETATM   16  O1  UNL     1      -1.300   7.067  15.272  1.00  0.00    -0.384 OA
HETATM   17  C1  UNL     1      -0.182   7.314  16.112  1.00  0.00     0.202 C 
ENDBRANCH   1  16
BRANCH   6  18
HETATM   18  N3  UNL     1      -2.915   6.850  13.093  1.00  0.00    -0.308 N 
HETATM   19  C11 UNL     1      -1.996   6.077  12.383  1.00  0.00     0.049 A 
HETATM   20  C12 UNL     1      -0.685   6.327  11.932  1.00  0.00     0.030 A 
HETATM   21  C16 UNL     1      -2.616   4.843  12.107  1.00  0.00     0.004 A 
HETATM   22  C13 UNL     1       0.011   5.317  11.261  1.00  0.00     0.002 A 
HETATM   23  C14 UNL     1      -0.576   4.083  11.020  1.00  0.00     0.001 A 
HETATM   24  C15 UNL     1      -1.888   3.840  11.429  1.00  0.00     0.014 A 
HETATM   25  C17 UNL     1      -3.960   4.921  12.565  1.00  0.00     0.015 A 
HETATM   26  C18 UNL     1      -5.103   4.105  12.538  1.00  0.00    -0.010 A 
HETATM   27  C28 UNL     1      -4.104   6.169  13.133  1.00  0.00     0.077 A 
HETATM   28  C19 UNL     1      -6.365   4.552  13.039  1.00  0.00     0.054 A 
HETATM   29  C30 UNL     1      -5.256   2.717  11.989  1.00  0.00     0.163 A 
HETATM   30  C20 UNL     1      -6.603   5.816  13.601  1.00  0.00     0.022 A 
HETATM   31  C29 UNL     1      -7.324   3.457  12.832  1.00  0.00     0.253 A 
HETATM   32  C21 UNL     1      -7.687   6.568  14.149  1.00  0.00     0.004 A 
HETATM   33  C27 UNL     1      -5.490   6.638  13.673  1.00  0.00     0.077 A 
HETATM   34  C22 UNL     1      -9.062   6.316  14.352  1.00  0.00     0.014 A 
HETATM   35  C26 UNL     1      -7.181   7.819  14.541  1.00  0.00     0.048 A 
HETATM   36  C23 UNL     1      -9.880   7.294  14.926  1.00  0.00     0.001 A 
HETATM   37  C24 UNL     1      -9.354   8.523  15.304  1.00  0.00     0.002 A 
HETATM   38  C25 UNL     1      -8.000   8.806  15.120  1.00  0.00     0.030 A 
HETATM   39  N4  UNL     1      -5.824   7.822  14.252  1.00  0.00    -0.316 N 
HETATM   40  O4  UNL     1      -8.502   3.427  13.121  1.00  0.00    -0.268 OA
HETATM   41  N5  UNL     1      -6.640   2.422  12.231  1.00  0.00    -0.353 N 
HETATM   42  H27 UNL     1      -7.112   1.563  11.985  1.00  0.00     0.163 HD
ENDBRANCH   6  18
TORSDOF 6
ENDMDL
MODEL 3
REMARK minimizedAffinity -10.6224632
REMARK CNNscore 0.227453947
REMARK CNNaffinity 7.40726137
REMARK  6 active torsions:
REMARK  status: ('A' for Active; 'I' for Inactive)
REMARK    1  A    between atoms: O1_2  and  C2_3 
REMARK    2  A    between atoms: C3_4  and  N1_5 
REMARK       I    between atoms: N1_5  and  C5_7 
REMARK    3  A    between atoms: C5_7  and  C6_9 
REMARK    4  A    between atoms: C6_9  and  N2_10 
REMARK    5  A    between atoms: C8_12  and  N4_33 
REMARK    6  A    between atoms: C9_14  and  N3_16 
ROOT
HETATM    1  C2  UNL     1      -7.821   6.916  13.835  1.00  0.00     0.199 C 
HETATM    2  C3  UNL     1      -8.712   7.229  15.057  1.00  0.00     0.124 C 
HETATM    3  C7  UNL     1      -8.810   5.981  15.938  1.00  0.00     0.082 C 
HETATM    4  C8  UNL     1      -7.413   5.429  16.252  1.00  0.00     0.233 C 
HETATM    5  O3  UNL     1      -6.333   6.222  15.758  1.00  0.00    -0.333 OA
HETATM    6  C9  UNL     1      -6.373   6.644  14.368  1.00  0.00     0.168 C 
HETATM    7  C10 UNL     1      -5.601   7.981  14.482  1.00  0.00     0.074 C 
ENDROOT
BRANCH   2   8
HETATM    8  N1  UNL     1      -9.999   7.892  14.725  1.00  0.00    -0.347 N 
HETATM    9  C4  UNL     1     -11.110   6.990  14.432  1.00  0.00     0.153 C 
HETATM   10  C5  UNL     1     -10.127   9.281  14.673  1.00  0.00     0.247 C 
HETATM   11  O2  UNL     1      -9.213  10.054  14.967  1.00  0.00    -0.271 OA
BRANCH  10  12
HETATM   12  C6  UNL     1     -11.465   9.882  14.212  1.00  0.00     0.369 C 
BRANCH  12  13
HETATM   13  N2  UNL     1     -11.532   9.961  12.744  1.00  0.00     0.087 N 
HETATM   14  H11 UNL     1     -10.738  10.522  12.423  1.00  0.00     0.313 HD
HETATM   15  H12 UNL     1     -12.362  10.494  12.486  1.00  0.00     0.313 HD
ENDBRANCH  12  13
ENDBRANCH  10  12
ENDBRANCH   2   8
BRANCH   1  16
HETATM   16  O1  UNL     1      -8.346   5.751  13.180  1.00  0.00    -0.384 OA
HETATM   17  C1  UNL     1      -8.898   6.017  11.899  1.00  0.00     0.202 C 
ENDBRANCH   1  16
BRANCH   6  18
HETATM   18  N3  UNL     1      -5.652   5.649  13.553  1.00  0.00    -0.308 N 
HETATM   19  C11 UNL     1      -6.093   4.395  13.129  1.00  0.00     0.049 A 
HETATM   20  C12 UNL     1      -7.287   3.680  13.346  1.00  0.00     0.030 A 
HETATM   21  C16 UNL     1      -5.058   3.828  12.361  1.00  0.00     0.004 A 
HETATM   22  C13 UNL     1      -7.453   2.428  12.745  1.00  0.00     0.002 A 
HETATM   23  C14 UNL     1      -6.456   1.878  11.953  1.00  0.00     0.001 A 
HETATM   24  C15 UNL     1      -5.255   2.563  11.764  1.00  0.00     0.014 A 
HETATM   25  C17 UNL     1      -3.943   4.709  12.416  1.00  0.00     0.015 A 
HETATM   26  C18 UNL     1      -2.617   4.717  11.954  1.00  0.00    -0.010 A 
HETATM   27  C28 UNL     1      -4.341   5.790  13.174  1.00  0.00     0.077 A 
HETATM   28  C19 UNL     1      -1.709   5.772  12.279  1.00  0.00     0.054 A 
HETATM   29  C30 UNL     1      -1.904   3.693  11.123  1.00  0.00     0.163 A 
HETATM   30  C20 UNL     1      -2.024   6.889  13.069  1.00  0.00     0.022 A 
HETATM   31  C29 UNL     1      -0.422   5.442  11.649  1.00  0.00     0.253 A 
HETATM   32  C21 UNL     1      -1.390   8.058  13.591  1.00  0.00     0.004 A 
HETATM   33  C27 UNL     1      -3.335   6.930  13.518  1.00  0.00     0.077 A 
HETATM   34  C22 UNL     1      -0.085   8.591  13.513  1.00  0.00     0.014 A 
HETATM   35  C26 UNL     1      -2.350   8.768  14.331  1.00  0.00     0.048 A 
HETATM   36  C23 UNL     1       0.226   9.791  14.162  1.00  0.00     0.001 A 
HETATM   37  C24 UNL     1      -0.743  10.473  14.887  1.00  0.00     0.002 A 
HETATM   38  C25 UNL     1      -2.043   9.976  14.983  1.00  0.00     0.030 A 
HETATM   39  N4  UNL     1      -3.539   8.058  14.249  1.00  0.00    -0.316 N 
HETATM   40  O4  UNL     1       0.611   6.078  11.676  1.00  0.00    -0.268 OA
HETATM   41  N5  UNL     1      -0.584   4.242  10.991  1.00  0.00    -0.353 N 
HETATM   42  H27 UNL     1       0.185   3.817  10.493  1.00  0.00     0.163 HD
ENDBRANCH   6  18
TORSDOF 6
ENDMDL
MODEL 4
REMARK minimizedAffinity -10.4717226
REMARK CNNscore 0.164132565
REMARK CNNaffinity 6.98986673
REMARK  6 active torsions:
REMARK  status: ('A' for Active; 'I' for Inactive)
REMARK    1  A    between atoms: O1_2  and  C2_3 
REMARK    2  A    between atoms: C3_4  and  N1_5 
REMARK       I    between atoms: N1_5  and  C5_7 
REMARK    3  A    between atoms: C5_7  and  C6_9 
REMARK    4  A    between atoms: C6_9  and  N2_10 
REMARK    5  A    between atoms: C8_12  and  N4_33 
REMARK    6  A    between atoms: C9_14  and  N3_16 
ROOT
HETATM    1  C2  UNL     1      -3.399   8.008  14.962  1.00  0.00     0.199 C 
HETATM    2  C3  UNL     1      -2.585   9.307  14.779  1.00  0.00     0.124 C 
HETATM    3  C7  UNL     1      -1.660   9.152  13.569  1.00  0.00     0.082 C 
HETATM    4  C8  UNL     1      -2.450   8.680  12.341  1.00  0.00     0.233 C 
HETATM    5  O3  UNL     1      -3.860   8.578  12.542  1.00  0.00    -0.333 OA
HETATM    6  C9  UNL     1      -4.336   7.863  13.714  1.00  0.00     0.168 C 
HETATM    7  C10 UNL     1      -5.658   8.628  13.964  1.00  0.00     0.074 C 
ENDROOT
BRANCH   2   8
HETATM    8  N1  UNL     1      -1.947   9.813  16.022  1.00  0.00    -0.347 N 
HETATM    9  C4  UNL     1      -2.842  10.503  16.948  1.00  0.00     0.153 C 
HETATM   10  C5  UNL     1      -0.583   9.659  16.272  1.00  0.00     0.247 C 
HETATM   11  O2  UNL     1       0.173   9.035  15.525  1.00  0.00    -0.271 OA
BRANCH  10  12
HETATM   12  C6  UNL     1       0.015  10.312  17.529  1.00  0.00     0.369 C 
BRANCH  12  13
HETATM   13  N2  UNL     1       1.396   9.857  17.756  1.00  0.00     0.087 N 
HETATM   14  H11 UNL     1       1.382   8.837  17.834  1.00  0.00     0.313 HD
HETATM   15  H12 UNL     1       1.701  10.194  18.669  1.00  0.00     0.313 HD
ENDBRANCH  12  13
ENDBRANCH  10  12
ENDBRANCH   2   8
BRANCH   1  16
HETATM   16  O1  UNL     1      -2.482   6.906  15.037  1.00  0.00    -0.384 OA
HETATM   17  C1  UNL     1      -2.754   6.008  16.103  1.00  0.00     0.202 C 
ENDBRANCH   1  16
BRANCH   6  18
HETATM   18  N3  UNL     1      -4.565   6.454  13.345  1.00  0.00    -0.308 N 
HETATM   19  C11 UNL     1      -5.707   5.680  13.553  1.00  0.00     0.049 A 
HETATM   20  C12 UNL     1      -6.942   5.949  14.175  1.00  0.00     0.030 A 
HETATM   21  C16 UNL     1      -5.450   4.406  13.011  1.00  0.00     0.004 A 
HETATM   22  C13 UNL     1      -7.928   4.957  14.195  1.00  0.00     0.002 A 
HETATM   23  C14 UNL     1      -7.700   3.712  13.628  1.00  0.00     0.001 A 
HETATM   24  C15 UNL     1      -6.466   3.424  13.044  1.00  0.00     0.014 A 
HETATM   25  C17 UNL     1      -4.099   4.386  12.569  1.00  0.00     0.015 A 
HETATM   26  C18 UNL     1      -3.211   3.445  12.023  1.00  0.00    -0.010 A 
HETATM   27  C28 UNL     1      -3.592   5.644  12.817  1.00  0.00     0.077 A 
HETATM   28  C19 UNL     1      -1.840   3.757  11.767  1.00  0.00     0.054 A 
HETATM   29  C30 UNL     1      -3.467   2.014  11.654  1.00  0.00     0.163 A 
HETATM   30  C20 UNL     1      -1.238   5.000  12.021  1.00  0.00     0.022 A 
HETATM   31  C29 UNL     1      -1.216   2.543  11.221  1.00  0.00     0.253 A 
HETATM   32  C21 UNL     1       0.044   5.621  11.919  1.00  0.00     0.004 A 
HETATM   33  C27 UNL     1      -2.093   5.964  12.532  1.00  0.00     0.077 A 
HETATM   34  C22 UNL     1       1.319   5.190  11.491  1.00  0.00     0.014 A 
HETATM   35  C26 UNL     1      -0.089   6.946  12.366  1.00  0.00     0.048 A 
HETATM   36  C23 UNL     1       2.407   6.069  11.521  1.00  0.00     0.001 A 
HETATM   37  C24 UNL     1       2.248   7.374  11.968  1.00  0.00     0.002 A 
HETATM   38  C25 UNL     1       1.002   7.835  12.397  1.00  0.00     0.030 A 
HETATM   39  N4  UNL     1      -1.418   7.130  12.718  1.00  0.00    -0.316 N 
HETATM   40  O4  UNL     1      -0.065   2.385  10.869  1.00  0.00    -0.268 OA
HETATM   41  N5  UNL     1      -2.190   1.570  11.169  1.00  0.00    -0.353 N 
HETATM   42  H27 UNL     1      -1.977   0.641  10.832  1.00  0.00     0.163 HD
ENDBRANCH   6  18
TORSDOF 6
ENDMDL
MODEL 5
REMARK minimizedAffinity -6.73944235
REMARK CNNscore 0.141647026
REMARK CNNaffinity 5.48208618
REMARK  6 active torsions:
REMARK  status: ('A' for Active; 'I' for Inactive)
REMARK    1  A    between atoms: O1_2  and  C2_3 
REMARK    2  A    between atoms: C3_4  and  N1_5 
REMARK       I    between atoms: N1_5  and  C5_7 
REMARK    3  A    between atoms: C5_7  and  C6_9 
REMARK    4  A    between atoms: C6_9  and  N2_10 
REMARK    5  A    between atoms: C8_12  and  N4_33 
REMARK    6  A    between atoms: C9_14  and  N3_16 
ROOT
HETATM    1  C2  UNL     1      -5.606 -12.021   2.757  1.00  0.00     0.199 C 
HETATM    2  C3  UNL     1      -5.842 -11.670   4.242  1.00  0.00     0.124 C 
HETATM    3  C7  UNL     1      -6.038 -10.157   4.374  1.00  0.00     0.082 C 
HETATM    4  C8  UNL     1      -7.107  -9.662   3.392  1.00  0.00     0.233 C 
HETATM    5  O3  UNL     1      -7.755 -10.693   2.645  1.00  0.00    -0.333 OA
HETATM    6  C9  UNL     1      -6.924 -11.682   1.979  1.00  0.00     0.168 C 
HETATM    7  C10 UNL     1      -7.882 -12.897   2.027  1.00  0.00     0.074 C 
ENDROOT
BRANCH   2   8
HETATM    8  N1  UNL     1      -4.867 -12.282   5.180  1.00  0.00    -0.347 N 
HETATM    9  C4  UNL     1      -4.961 -13.733   5.321  1.00  0.00     0.153 C 
HETATM   10  C5  UNL     1      -3.944 -11.518   5.895  1.00  0.00     0.247 C 
HETATM   11  O2  UNL     1      -3.819 -10.301   5.749  1.00  0.00    -0.271 OA
BRANCH  10  12
HETATM   12  C6  UNL     1      -3.048 -12.219   6.929  1.00  0.00     0.369 C 
BRANCH  12  13
HETATM   13  N2  UNL     1      -1.628 -12.110   6.561  1.00  0.00     0.087 N 
HETATM   14  H11 UNL     1      -1.513 -12.516   5.629  1.00  0.00     0.313 HD
HETATM   15  H12 UNL     1      -1.085 -12.707   7.185  1.00  0.00     0.313 HD
ENDBRANCH  12  13
ENDBRANCH  10  12
ENDBRANCH   2   8
BRANCH   1  16
HETATM   16  O1  UNL     1      -4.515 -11.223   2.272  1.00  0.00    -0.384 OA
HETATM   17  C1  UNL     1      -3.237 -11.776   2.549  1.00  0.00     0.202 C 
ENDBRANCH   1  16
BRANCH   6  18
HETATM   18  N3  UNL     1      -6.663 -11.228   0.601  1.00  0.00    -0.308 N 
HETATM   19  C11 UNL     1      -5.615 -11.591  -0.245  1.00  0.00     0.049 A 
HETATM   20  C12 UNL     1      -4.500 -12.434  -0.074  1.00  0.00     0.030 A 
HETATM   21  C16 UNL     1      -5.808 -10.909  -1.462  1.00  0.00     0.004 A 
HETATM   22  C13 UNL     1      -3.621 -12.631  -1.145  1.00  0.00     0.002 A 
HETATM   23  C14 UNL     1      -3.825 -11.996  -2.361  1.00  0.00     0.001 A 
HETATM   24  C15 UNL     1      -4.906 -11.129  -2.526  1.00  0.00     0.014 A 
HETATM   25  C17 UNL     1      -6.926 -10.046  -1.304  1.00  0.00     0.015 A 
HETATM   26  C18 UNL     1      -7.588  -9.072  -2.069  1.00  0.00    -0.010 A 
HETATM   27  C28 UNL     1      -7.398 -10.253  -0.024  1.00  0.00     0.077 A 
HETATM   28  C19 UNL     1      -8.673  -8.304  -1.543  1.00  0.00     0.054 A 
HETATM   29  C30 UNL     1      -7.305  -8.626  -3.473  1.00  0.00     0.163 A 
HETATM   30  C20 UNL     1      -9.191  -8.431  -0.245  1.00  0.00     0.022 A 
HETATM   31  C29 UNL     1      -9.101  -7.380  -2.604  1.00  0.00     0.253 A 
HETATM   32  C21 UNL     1     -10.197  -7.840   0.580  1.00  0.00     0.004 A 
HETATM   33  C27 UNL     1      -8.583  -9.405   0.530  1.00  0.00     0.077 A 
HETATM   34  C22 UNL     1     -11.142  -6.806   0.398  1.00  0.00     0.014 A 
HETATM   35  C26 UNL     1     -10.163  -8.491   1.825  1.00  0.00     0.048 A 
HETATM   36  C23 UNL     1     -12.009  -6.453   1.437  1.00  0.00     0.001 A 
HETATM   37  C24 UNL     1     -11.954  -7.113   2.658  1.00  0.00     0.002 A 
HETATM   38  C25 UNL     1     -11.034  -8.141   2.872  1.00  0.00     0.030 A 
HETATM   39  N4  UNL     1      -9.173  -9.460   1.754  1.00  0.00    -0.316 N 
HETATM   40  O4  UNL     1      -9.995  -6.560  -2.568  1.00  0.00    -0.268 OA
HETATM   41  N5  UNL     1      -8.290  -7.606  -3.695  1.00  0.00    -0.353 N 
HETATM   42  H27 UNL     1      -8.402  -7.068  -4.543  1.00  0.00     0.163 HD
ENDBRANCH   6  18
TORSDOF 6
ENDMDL
MODEL 6
REMARK minimizedAffinity -7.0462265
REMARK CNNscore 0.141055584
REMARK CNNaffinity 5.05174303
REMARK  6 active torsions:
REMARK  status: ('A' for Active; 'I' for Inactive)
REMARK    1  A    between atoms: O1_2  and  C2_3 
REMARK    2  A    between atoms: C3_4  and  N1_5 
REMARK       I    between atoms: N1_5  and  C5_7 
REMARK    3  A    between atoms: C5_7  and  C6_9 
REMARK    4  A    between atoms: C6_9  and  N2_10 
REMARK    5  A    between atoms: C8_12  and  N4_33 
REMARK    6  A    between atoms: C9_14  and  N3_16 
ROOT
HETATM    1  C2  UNL     1      -5.597 -11.207   4.244  1.00  0.00     0.199 C 
HETATM    2  C3  UNL     1      -5.126 -11.050   5.706  1.00  0.00     0.124 C 
HETATM    3  C7  UNL     1      -5.390  -9.613   6.165  1.00  0.00     0.082 C 
HETATM    4  C8  UNL     1      -6.845  -9.214   5.885  1.00  0.00     0.233 C 
HETATM    5  O3  UNL     1      -7.661 -10.263   5.359  1.00  0.00    -0.333 OA
HETATM    6  C9  UNL     1      -7.154 -11.025   4.231  1.00  0.00     0.168 C 
HETATM    7  C10 UNL     1      -7.838 -12.385   4.509  1.00  0.00     0.074 C 
ENDROOT
BRANCH   2   8
HETATM    8  N1  UNL     1      -3.763 -11.576   5.972  1.00  0.00    -0.347 N 
HETATM    9  C4  UNL     1      -2.755 -10.568   6.291  1.00  0.00     0.153 C 
HETATM   10  C5  UNL     1      -3.464 -12.937   5.896  1.00  0.00     0.247 C 
HETATM   11  O2  UNL     1      -4.314 -13.803   5.678  1.00  0.00    -0.271 OA
BRANCH  10  12
HETATM   12  C6  UNL     1      -2.004 -13.383   6.075  1.00  0.00     0.369 C 
BRANCH  12  13
HETATM   13  N2  UNL     1      -1.241 -12.398   6.858  1.00  0.00     0.087 N 
HETATM   14  H11 UNL     1      -1.301 -11.499   6.374  1.00  0.00     0.313 HD
HETATM   15  H12 UNL     1      -0.255 -12.656   6.829  1.00  0.00     0.313 HD
ENDBRANCH  12  13
ENDBRANCH  10  12
ENDBRANCH   2   8
BRANCH   1  16
HETATM   16  O1  UNL     1      -4.962 -10.191   3.453  1.00  0.00    -0.384 OA
HETATM   17  C1  UNL     1      -3.626 -10.503   3.088  1.00  0.00     0.202 C 
ENDBRANCH   1  16
BRANCH   6  18
HETATM   18  N3  UNL     1      -7.635 -10.400   2.985  1.00  0.00    -0.308 N 
HETATM   19  C11 UNL     1      -7.051 -10.432   1.719  1.00  0.00     0.049 A 
HETATM   20  C12 UNL     1      -5.860 -11.006   1.232  1.00  0.00     0.030 A 
HETATM   21  C16 UNL     1      -7.891  -9.706   0.854  1.00  0.00     0.004 A 
HETATM   22  C13 UNL     1      -5.554 -10.896  -0.128  1.00  0.00     0.002 A 
HETATM   23  C14 UNL     1      -6.397 -10.218  -0.997  1.00  0.00     0.001 A 
HETATM   24  C15 UNL     1      -7.558  -9.613  -0.516  1.00  0.00     0.014 A 
HETATM   25  C17 UNL     1      -8.937  -9.143   1.636  1.00  0.00     0.015 A 
HETATM   26  C18 UNL     1     -10.027  -8.283   1.426  1.00  0.00    -0.010 A 
HETATM   27  C28 UNL     1      -8.725  -9.569   2.930  1.00  0.00     0.077 A 
HETATM   28  C19 UNL     1     -10.859  -7.838   2.500  1.00  0.00     0.054 A 
HETATM   29  C30 UNL     1     -10.500  -7.658   0.147  1.00  0.00     0.163 A 
HETATM   30  C20 UNL     1     -10.692  -8.198   3.847  1.00  0.00     0.022 A 
HETATM   31  C29 UNL     1     -11.873  -6.946   1.919  1.00  0.00     0.253 A 
HETATM   32  C21 UNL     1     -11.288  -7.933   5.118  1.00  0.00     0.004 A 
HETATM   33  C27 UNL     1      -9.643  -9.072   4.088  1.00  0.00     0.077 A 
HETATM   34  C22 UNL     1     -12.366  -7.134   5.556  1.00  0.00     0.014 A 
HETATM   35  C26 UNL     1     -10.577  -8.669   6.082  1.00  0.00     0.048 A 
HETATM   36  C23 UNL     1     -12.702  -7.087   6.913  1.00  0.00     0.001 A 
HETATM   37  C24 UNL     1     -11.983  -7.824   7.845  1.00  0.00     0.002 A 
HETATM   38  C25 UNL     1     -10.912  -8.626   7.447  1.00  0.00     0.030 A 
HETATM   39  N4  UNL     1      -9.586  -9.373   5.413  1.00  0.00    -0.316 N 
HETATM   40  O4  UNL     1     -12.772  -6.361   2.489  1.00  0.00    -0.268 OA
HETATM   41  N5  UNL     1     -11.630  -6.877   0.565  1.00  0.00    -0.353 N 
HETATM   42  H27 UNL     1     -12.207  -6.305  -0.036  1.00  0.00     0.163 HD
ENDBRANCH   6  18
TORSDOF 6
ENDMDL
MODEL 7
REMARK minimizedAffinity -7.2916317
REMARK CNNscore 0.130789161
REMARK CNNaffinity 6.0049839
REMARK  6 active torsions:
REMARK  status: ('A' for Active; 'I' for Inactive)
REMARK    1  A    between atoms: O1_2  and  C2_3 
REMARK    2  A    between atoms: C3_4  and  N1_5 
REMARK       I    between atoms: N1_5  and  C5_7 
REMARK    3  A    between atoms: C5_7  and  C6_9 
REMARK    4  A    between atoms: C6_9  and  N2_10 
REMARK    5  A    between atoms: C8_12  and  N4_33 
REMARK    6  A    between atoms: C9_14  and  N3_16 
ROOT
HETATM    1  C2  UNL     1     -12.841   7.907  14.813  1.00  0.00     0.199 C 
HETATM    2  C3  UNL     1     -14.120   7.881  13.947  1.00  0.00     0.124 C 
HETATM    3  C7  UNL     1     -14.276   9.233  13.245  1.00  0.00     0.082 C 
HETATM    4  C8  UNL     1     -12.982   9.617  12.515  1.00  0.00     0.233 C 
HETATM    5  O3  UNL     1     -11.958   8.622  12.553  1.00  0.00    -0.333 OA
HETATM    6  C9  UNL     1     -11.619   8.037  13.840  1.00  0.00     0.168 C 
HETATM    7  C10 UNL     1     -11.174   6.629  13.374  1.00  0.00     0.074 C 
ENDROOT
BRANCH   2   8
HETATM    8  N1  UNL     1     -15.326   7.371  14.648  1.00  0.00    -0.347 N 
HETATM    9  C4  UNL     1     -16.339   8.375  14.962  1.00  0.00     0.153 C 
HETATM   10  C5  UNL     1     -15.465   6.028  15.003  1.00  0.00     0.247 C 
HETATM   11  O2  UNL     1     -14.643   5.161  14.700  1.00  0.00    -0.271 OA
BRANCH  10  12
HETATM   12  C6  UNL     1     -16.694   5.606  15.826  1.00  0.00     0.369 C 
BRANCH  12  13
HETATM   13  N2  UNL     1     -17.796   5.176  14.950  1.00  0.00     0.087 N 
HETATM   14  H11 UNL     1     -18.016   5.950  14.319  1.00  0.00     0.313 HD
HETATM   15  H12 UNL     1     -18.630   5.047  15.522  1.00  0.00     0.313 HD
ENDBRANCH  12  13
ENDBRANCH  10  12
ENDBRANCH   2   8
BRANCH   1  16
HETATM   16  O1  UNL     1     -12.912   9.042  15.690  1.00  0.00    -0.384 OA
HETATM   17  C1  UNL     1     -13.302   8.715  17.015  1.00  0.00     0.202 C 
ENDBRANCH   1  16
BRANCH   6  18
HETATM   18  N3  UNL     1     -10.510   8.808  14.431  1.00  0.00    -0.308 N 
HETATM   19  C11 UNL     1     -10.510  10.137  14.855  1.00  0.00     0.049 A 
HETATM   20  C12 UNL     1     -11.494  11.144  14.836  1.00  0.00     0.030 A 
HETATM   21  C16 UNL     1      -9.226  10.411  15.364  1.00  0.00     0.004 A 
HETATM   22  C13 UNL     1     -11.199  12.399  15.380  1.00  0.00     0.002 A 
HETATM   23  C14 UNL     1      -9.950  12.667  15.920  1.00  0.00     0.001 A 
HETATM   24  C15 UNL     1      -8.957  11.686  15.909  1.00  0.00     0.014 A 
HETATM   25  C17 UNL     1      -8.417   9.263  15.142  1.00  0.00     0.015 A 
HETATM   26  C18 UNL     1      -7.073   8.902  15.330  1.00  0.00    -0.010 A 
HETATM   27  C28 UNL     1      -9.232   8.323  14.548  1.00  0.00     0.077 A 
HETATM   28  C19 UNL     1      -6.559   7.640  14.897  1.00  0.00     0.054 A 
HETATM   29  C30 UNL     1      -5.959   9.704  15.937  1.00  0.00     0.163 A 
HETATM   30  C20 UNL     1      -7.313   6.644  14.257  1.00  0.00     0.022 A 
HETATM   31  C29 UNL     1      -5.128   7.618  15.235  1.00  0.00     0.253 A 
HETATM   32  C21 UNL     1      -7.129   5.344  13.693  1.00  0.00     0.004 A 
HETATM   33  C27 UNL     1      -8.653   6.952  14.082  1.00  0.00     0.077 A 
HETATM   34  C22 UNL     1      -6.022   4.481  13.541  1.00  0.00     0.014 A 
HETATM   35  C26 UNL     1      -8.374   4.912  13.206  1.00  0.00     0.048 A 
HETATM   36  C23 UNL     1      -6.178   3.238  12.920  1.00  0.00     0.001 A 
HETATM   37  C24 UNL     1      -7.420   2.835  12.447  1.00  0.00     0.002 A 
HETATM   38  C25 UNL     1      -8.537   3.662  12.582  1.00  0.00     0.030 A 
HETATM   39  N4  UNL     1      -9.293   5.915  13.478  1.00  0.00    -0.316 N 
HETATM   40  O4  UNL     1      -4.326   6.727  15.042  1.00  0.00    -0.268 OA
HETATM   41  N5  UNL     1      -4.831   8.821  15.835  1.00  0.00    -0.353 N 
HETATM   42  H27 UNL     1      -3.891   9.028  16.143  1.00  0.00     0.163 HD
ENDBRANCH   6  18
TORSDOF 6
ENDMDL
MODEL 8
REMARK minimizedAffinity -10.144042
REMARK CNNscore 0.11701268
REMARK CNNaffinity 6.489923
REMARK  6 active torsions:
REMARK  status: ('A' for Active; 'I' for Inactive)
REMARK    1  A    between atoms: O1_2  and  C2_3 
REMARK    2  A    between atoms: C3_4  and  N1_5 
REMARK       I    between atoms: N1_5  and  C5_7 
REMARK    3  A    between atoms: C5_7  and  C6_9 
REMARK    4  A    between atoms: C6_9  and  N2_10 
REMARK    5  A    between atoms: C8_12  and  N4_33 
REMARK    6  A    between atoms: C9_14  and  N3_16 
ROOT
HETATM    1  C2  UNL     1       0.240   8.807  13.691  1.00  0.00     0.199 C 
HETATM    2  C3  UNL     1       1.292   7.693  13.505  1.00  0.00     0.124 C 
HETATM    3  C7  UNL     1       0.830   6.438  14.251  1.00  0.00     0.082 C 
HETATM    4  C8  UNL     1      -0.607   6.073  13.857  1.00  0.00     0.233 C 
HETATM    5  O3  UNL     1      -1.171   6.893  12.832  1.00  0.00    -0.333 OA
HETATM    6  C9  UNL     1      -1.074   8.335  12.977  1.00  0.00     0.168 C 
HETATM    7  C10 UNL     1      -1.029   8.742  11.485  1.00  0.00     0.074 C 
ENDROOT
BRANCH   2   8
HETATM    8  N1  UNL     1       2.691   8.121  13.761  1.00  0.00    -0.347 N 
HETATM    9  C4  UNL     1       3.336   8.840  12.666  1.00  0.00     0.153 C 
HETATM   10  C5  UNL     1       3.349   7.831  14.957  1.00  0.00     0.247 C 
HETATM   11  O2  UNL     1       2.803   7.271  15.909  1.00  0.00    -0.271 OA
BRANCH  10  12
HETATM   12  C6  UNL     1       4.833   8.212  15.095  1.00  0.00     0.369 C 
BRANCH  12  13
HETATM   13  N2  UNL     1       5.701   7.044  14.881  1.00  0.00     0.087 N 
HETATM   14  H11 UNL     1       5.434   6.326  15.559  1.00  0.00     0.313 HD
HETATM   15  H12 UNL     1       6.657   7.303  15.124  1.00  0.00     0.313 HD
ENDBRANCH  12  13
ENDBRANCH  10  12
ENDBRANCH   2   8
BRANCH   1  16
HETATM   16  O1  UNL     1       0.014   8.986  15.098  1.00  0.00    -0.384 OA
HETATM   17  C1  UNL     1      -0.284   7.780  15.786  1.00  0.00     0.202 C 
ENDBRANCH   1  16
BRANCH   6  18
HETATM   18  N3  UNL     1      -2.288   8.824  13.655  1.00  0.00    -0.308 N 
HETATM   19  C11 UNL     1      -2.445   9.978  14.423  1.00  0.00     0.049 A 
HETATM   20  C12 UNL     1      -1.549  10.991  14.817  1.00  0.00     0.030 A 
HETATM   21  C16 UNL     1      -3.789  10.022  14.839  1.00  0.00     0.004 A 
HETATM   22  C13 UNL     1      -2.022  12.066  15.576  1.00  0.00     0.002 A 
HETATM   23  C14 UNL     1      -3.354  12.139  15.957  1.00  0.00     0.001 A 
HETATM   24  C15 UNL     1      -4.241  11.121  15.604  1.00  0.00     0.014 A 
HETATM   25  C17 UNL     1      -4.418   8.823  14.404  1.00  0.00     0.015 A 
HETATM   26  C18 UNL     1      -5.676   8.215  14.540  1.00  0.00    -0.010 A 
HETATM   27  C28 UNL     1      -3.460   8.113  13.711  1.00  0.00     0.077 A 
HETATM   28  C19 UNL     1      -5.948   6.911  14.022  1.00  0.00     0.054 A 
HETATM   29  C30 UNL     1      -6.901   8.733  15.235  1.00  0.00     0.163 A 
HETATM   30  C20 UNL     1      -5.021   6.111  13.335  1.00  0.00     0.022 A 
HETATM   31  C29 UNL     1      -7.343   6.593  14.363  1.00  0.00     0.253 A 
HETATM   32  C21 UNL     1      -4.946   4.817  12.735  1.00  0.00     0.004 A 
HETATM   33  C27 UNL     1      -3.775   6.691  13.154  1.00  0.00     0.077 A 
HETATM   34  C22 UNL     1      -5.850   3.742  12.588  1.00  0.00     0.014 A 
HETATM   35  C26 UNL     1      -3.654   4.669  12.203  1.00  0.00     0.048 A 
HETATM   36  C23 UNL     1      -5.453   2.572  11.932  1.00  0.00     0.001 A 
HETATM   37  C24 UNL     1      -4.169   2.452  11.416  1.00  0.00     0.002 A 
HETATM   38  C25 UNL     1      -3.250   3.495  11.541  1.00  0.00     0.030 A 
HETATM   39  N4  UNL     1      -2.966   5.846  12.461  1.00  0.00    -0.316 N 
HETATM   40  O4  UNL     1      -7.967   5.585  14.103  1.00  0.00    -0.268 OA
HETATM   41  N5  UNL     1      -7.851   7.671  15.054  1.00  0.00    -0.353 N 
HETATM   42  H27 UNL     1      -8.801   7.664  15.398  1.00  0.00     0.163 HD
ENDBRANCH   6  18
TORSDOF 6
ENDMDL
MODEL 9
REMARK minimizedAffinity -6.86692333
REMARK CNNscore 0.103222586
REMARK CNNaffinity 4.64046812
REMARK  6 active torsions:
REMARK  status: ('A' for Active; 'I' for Inactive)
REMARK    1  A    between atoms: O1_2  and  C2_3 
REMARK    2  A    between atoms: C3_4  and  N1_5 
REMARK       I    between atoms: N1_5  and  C5_7 
REMARK    3  A    between atoms: C5_7  and  C6_9 
REMARK    4  A    between atoms: C6_9  and  N2_10 
REMARK    5  A    between atoms: C8_12  and  N4_33 
REMARK    6  A    between atoms: C9_14  and  N3_16 
ROOT
HETATM    1  C2  UNL     1      -8.748 -11.135  11.393  1.00  0.00     0.199 C 
HETATM    2  C3  UNL     1      -8.277 -11.751  12.728  1.00  0.00     0.124 C 
HETATM    3  C7  UNL     1      -6.962 -12.500  12.497  1.00  0.00     0.082 C 
HETATM    4  C8  UNL     1      -5.945 -11.602  11.781  1.00  0.00     0.233 C 
HETATM    5  O3  UNL     1      -6.382 -10.258  11.568  1.00  0.00    -0.333 OA
HETATM    6  C9  UNL     1      -7.694 -10.050  10.980  1.00  0.00     0.168 C 
HETATM    7  C10 UNL     1      -8.059  -8.696  11.636  1.00  0.00     0.074 C 
ENDROOT
BRANCH   2   8
HETATM    8  N1  UNL     1      -9.329 -12.497  13.464  1.00  0.00    -0.347 N 
HETATM    9  C4  UNL     1     -10.159 -11.693  14.358  1.00  0.00     0.153 C 
HETATM   10  C5  UNL     1      -9.493 -13.877  13.329  1.00  0.00     0.247 C 
HETATM   11  O2  UNL     1      -8.835 -14.560  12.542  1.00  0.00    -0.271 OA
BRANCH  10  12
HETATM   12  C6  UNL     1     -10.531 -14.587  14.213  1.00  0.00     0.369 C 
BRANCH  12  13
HETATM   13  N2  UNL     1      -9.880 -15.502  15.164  1.00  0.00     0.087 N 
HETATM   14  H11 UNL     1      -9.325 -16.172  14.625  1.00  0.00     0.313 HD
HETATM   15  H12 UNL     1     -10.601 -16.056  15.625  1.00  0.00     0.313 HD
ENDBRANCH  12  13
ENDBRANCH  10  12
ENDBRANCH   2   8
BRANCH   1  16
HETATM   16  O1  UNL     1      -8.809 -12.179  10.410  1.00  0.00    -0.384 OA
HETATM   17  C1  UNL     1     -10.128 -12.487   9.985  1.00  0.00     0.202 C 
ENDBRANCH   1  16
BRANCH   6  18
HETATM   18  N3  UNL     1      -7.544  -9.941   9.517  1.00  0.00    -0.308 N 
HETATM   19  C11 UNL     1      -6.399 -10.147   8.748  1.00  0.00     0.049 A 
HETATM   20  C12 UNL     1      -5.071 -10.475   9.083  1.00  0.00     0.030 A 
HETATM   21  C16 UNL     1      -6.760  -9.944   7.402  1.00  0.00     0.004 A 
HETATM   22  C13 UNL     1      -4.132 -10.653   8.061  1.00  0.00     0.002 A 
HETATM   23  C14 UNL     1      -4.487 -10.495   6.729  1.00  0.00     0.001 A 
HETATM   24  C15 UNL     1      -5.791 -10.132   6.391  1.00  0.00     0.014 A 
HETATM   25  C17 UNL     1      -8.113  -9.506   7.377  1.00  0.00     0.015 A 
HETATM   26  C18 UNL     1      -9.034  -9.073   6.409  1.00  0.00    -0.010 A 
HETATM   27  C28 UNL     1      -8.541  -9.494   8.688  1.00  0.00     0.077 A 
HETATM   28  C19 UNL     1     -10.339  -8.607   6.761  1.00  0.00     0.054 A 
HETATM   29  C30 UNL     1      -8.860  -8.972   4.923  1.00  0.00     0.163 A 
HETATM   30  C20 UNL     1     -10.839  -8.532   8.070  1.00  0.00     0.022 A 
HETATM   31  C29 UNL     1     -11.011  -8.222   5.511  1.00  0.00     0.253 A 
HETATM   32  C21 UNL     1     -12.022  -8.113   8.753  1.00  0.00     0.004 A 
HETATM   33  C27 UNL     1      -9.967  -8.981   9.051  1.00  0.00     0.077 A 
HETATM   34  C22 UNL     1     -13.255  -7.560   8.345  1.00  0.00     0.014 A 
HETATM   35  C26 UNL     1     -11.821  -8.336  10.126  1.00  0.00     0.048 A 
HETATM   36  C23 UNL     1     -14.235  -7.246   9.292  1.00  0.00     0.001 A 
HETATM   37  C24 UNL     1     -14.010  -7.476  10.643  1.00  0.00     0.002 A 
HETATM   38  C25 UNL     1     -12.804  -8.024  11.083  1.00  0.00     0.030 A 
HETATM   39  N4  UNL     1     -10.556  -8.887  10.273  1.00  0.00    -0.316 N 
HETATM   40  O4  UNL     1     -12.132  -7.782   5.367  1.00  0.00    -0.268 OA
HETATM   41  N5  UNL     1     -10.125  -8.455   4.482  1.00  0.00    -0.353 N 
HETATM   42  H27 UNL     1     -10.377  -8.249   3.525  1.00  0.00     0.163 HD
ENDBRANCH   6  18
TORSDOF 6
ENDMDL
