MODEL 1
REMARK minimizedAffinity -8.84385967
REMARK  4 active torsions:
REMARK  status: ('A' for Active; 'I' for Inactive)
REMARK    1  A    between atoms: C4_4  and  C5_5 
REMARK    2  A    between atoms: C5_5  and  C6_6 
REMARK    3  A    between atoms: C9_11  and  N2_12 
REMARK    4  A    between atoms: N2_12  and  C10_13 
ROOT
HETATM    1  C6  UNL     1      15.915  35.525  15.485  1.00  0.00     0.086 A 
HETATM    2  N1  UNL     1      14.596  35.581  15.531  1.00  0.00    -0.344 N 
ATOM      3  H1  UNL     1      13.968  35.895  14.791  1.00  0.00     0.167 HD
HETATM    4  C7  UNL     1      14.248  35.130  16.781  1.00  0.00     0.062 A 
HETATM    5  C8  UNL     1      12.978  34.987  17.362  1.00  0.00     0.061 A 
HETATM    6  C9  UNL     1      12.858  34.506  18.681  1.00  0.00     0.035 A 
HETATM    7  C19 UNL     1      14.025  34.155  19.374  1.00  0.00     0.032 A 
HETATM    8  C20 UNL     1      15.307  34.289  18.814  1.00  0.00     0.034 A 
HETATM    9  C21 UNL     1      15.372  34.782  17.514  1.00  0.00     0.060 A 
HETATM   10  N7  UNL     1      16.420  35.039  16.671  1.00  0.00    -0.344 N 
HETATM   11  H15 UNL     1      17.400  34.915  16.883  1.00  0.00     0.167 HD
ENDROOT
BRANCH   6  12
HETATM   12  N2  UNL     1      11.564  34.356  19.217  1.00  0.00    -0.342 N 
HETATM   13  H7  UNL     1      11.407  33.454  19.641  1.00  0.00     0.167 HD
BRANCH  12  14
HETATM   14  C10 UNL     1      10.373  35.054  18.988  1.00  0.00     0.123 A 
HETATM   15  N3  UNL     1      10.008  35.502  17.749  1.00  0.00    -0.338 N 
HETATM   16  C11 UNL     1       8.798  36.110  17.560  1.00  0.00     0.183 A 
ATOM     17  H3  UNL     1      10.642  35.381  16.960  1.00  0.00     0.168 HD
HETATM   18  N4  UNL     1       7.811  36.376  18.445  1.00  0.00    -0.337 N 
HETATM   19  C12 UNL     1       8.152  35.961  19.685  1.00  0.00     0.137 A 
ATOM     20  H4  UNL     1       6.927  36.827  18.208  1.00  0.00     0.168 HD
HETATM   21  N5  UNL     1       7.397  36.081  20.772  1.00  0.00    -0.278 N 
HETATM   22  C18 UNL     1       9.392  35.328  19.959  1.00  0.00     0.082 A 
HETATM   23  N6  UNL     1       8.144  35.554  21.772  1.00  0.00    -0.265 N 
ATOM     24  H5  UNL     1       6.461  36.482  20.840  1.00  0.00     0.189 HD
HETATM   25  C13 UNL     1       7.762  35.447  23.112  1.00  0.00     0.116 A 
HETATM   26  C17 UNL     1       9.401  35.107  21.317  1.00  0.00     0.073 A 
HETATM   27  C14 UNL     1       8.601  34.926  24.019  1.00  0.00     0.019 A 
HETATM   28  C15 UNL     1       9.919  34.504  23.586  1.00  0.00     0.004 A 
HETATM   29  C16 UNL     1      10.305  34.594  22.299  1.00  0.00     0.032 A 
ENDBRANCH  12  14
ENDBRANCH   6  12
BRANCH   1  30
HETATM   30  C5  UNL     1      16.774  35.904  14.319  1.00  0.00     0.115 C 
BRANCH  30  31
HETATM   31  C4  UNL     1      17.338  34.726  13.555  1.00  0.00    -0.051 A 
HETATM   32  C3  UNL     1      18.657  34.302  13.771  1.00  0.00     0.007 A 
HETATM   33  C2  UNL     1      19.185  33.236  13.041  1.00  0.00     0.001 A 
HETATM   34  C1  UNL     1      18.401  32.587  12.089  1.00  0.00     0.000 A 
HETATM   35  C23 UNL     1      17.089  33.001  11.865  1.00  0.00     0.001 A 
HETATM   36  C22 UNL     1      16.559  34.067  12.594  1.00  0.00     0.007 A 
ENDBRANCH  30  31
ENDBRANCH   1  30
TORSDOF 4
ENDMDL
MODEL 2
REMARK minimizedAffinity -8.56751633
REMARK  4 active torsions:
REMARK  status: ('A' for Active; 'I' for Inactive)
REMARK    1  A    between atoms: C4_4  and  C5_5 
REMARK    2  A    between atoms: C5_5  and  C6_6 
REMARK    3  A    between atoms: C9_11  and  N2_12 
REMARK    4  A    between atoms: N2_12  and  C10_13 
ROOT
HETATM    1  C6  UNL     1      11.135  35.520  17.592  1.00  0.00     0.086 A 
HETATM    2  N1  UNL     1      12.050  36.011  16.776  1.00  0.00    -0.344 N 
ATOM      3  H1  UNL     1      11.901  36.661  16.003  1.00  0.00     0.167 HD
HETATM    4  C7  UNL     1      13.243  35.466  17.185  1.00  0.00     0.062 A 
HETATM    5  C8  UNL     1      14.535  35.644  16.667  1.00  0.00     0.061 A 
HETATM    6  C9  UNL     1      15.626  34.967  17.248  1.00  0.00     0.035 A 
HETATM    7  C19 UNL     1      15.388  34.145  18.359  1.00  0.00     0.032 A 
HETATM    8  C20 UNL     1      14.104  33.951  18.896  1.00  0.00     0.034 A 
HETATM    9  C21 UNL     1      13.059  34.631  18.276  1.00  0.00     0.060 A 
HETATM   10  N7  UNL     1      11.713  34.682  18.519  1.00  0.00    -0.344 N 
HETATM   11  H15 UNL     1      11.218  34.177  19.241  1.00  0.00     0.167 HD
ENDROOT
BRANCH   6  12
HETATM   12  N2  UNL     1      16.909  35.192  16.711  1.00  0.00    -0.342 N 
HETATM   13  H7  UNL     1      17.478  35.806  17.274  1.00  0.00     0.167 HD
BRANCH  12  14
HETATM   14  C10 UNL     1      17.424  35.017  15.422  1.00  0.00     0.123 A 
HETATM   15  N3  UNL     1      17.938  33.827  14.989  1.00  0.00    -0.338 N 
HETATM   16  C11 UNL     1      18.357  33.681  13.696  1.00  0.00     0.183 A 
ATOM     17  H3  UNL     1      18.009  33.041  15.635  1.00  0.00     0.168 HD
HETATM   18  N4  UNL     1      18.359  34.571  12.677  1.00  0.00    -0.337 N 
HETATM   19  C12 UNL     1      17.874  35.765  13.081  1.00  0.00     0.137 A 
ATOM     20  H4  UNL     1      18.683  34.368  11.732  1.00  0.00     0.168 HD
HETATM   21  N5  UNL     1      17.750  36.845  12.316  1.00  0.00    -0.278 N 
HETATM   22  C18 UNL     1      17.426  35.993  14.409  1.00  0.00     0.082 A 
HETATM   23  N6  UNL     1      17.246  37.796  13.139  1.00  0.00    -0.265 N 
ATOM     24  H5  UNL     1      17.982  36.937  11.326  1.00  0.00     0.189 HD
HETATM   25  C13 UNL     1      16.932  39.109  12.778  1.00  0.00     0.116 A 
HETATM   26  C17 UNL     1      17.063  37.320  14.452  1.00  0.00     0.073 A 
HETATM   27  C14 UNL     1      16.460  39.971  13.691  1.00  0.00     0.019 A 
HETATM   28  C15 UNL     1      16.310  39.520  15.061  1.00  0.00     0.004 A 
HETATM   29  C16 UNL     1      16.602  38.257  15.428  1.00  0.00     0.032 A 
ENDBRANCH  12  14
ENDBRANCH   6  12
BRANCH   1  30
HETATM   30  C5  UNL     1       9.670  35.826  17.559  1.00  0.00     0.115 C 
BRANCH  30  31
HETATM   31  C4  UNL     1       8.973  35.666  18.893  1.00  0.00    -0.051 A 
HETATM   32  C3  UNL     1       7.703  36.222  19.105  1.00  0.00     0.007 A 
HETATM   33  C2  UNL     1       7.077  36.100  20.347  1.00  0.00     0.001 A 
HETATM   34  C1  UNL     1       7.715  35.426  21.387  1.00  0.00     0.000 A 
HETATM   35  C23 UNL     1       8.979  34.871  21.187  1.00  0.00     0.001 A 
HETATM   36  C22 UNL     1       9.606  34.991  19.946  1.00  0.00     0.007 A 
ENDBRANCH  30  31
ENDBRANCH   1  30
TORSDOF 4
ENDMDL
MODEL 3
REMARK minimizedAffinity -8.47379303
REMARK  4 active torsions:
REMARK  status: ('A' for Active; 'I' for Inactive)
REMARK    1  A    between atoms: C4_4  and  C5_5 
REMARK    2  A    between atoms: C5_5  and  C6_6 
REMARK    3  A    between atoms: C9_11  and  N2_12 
REMARK    4  A    between atoms: N2_12  and  C10_13 
ROOT
HETATM    1  C6  UNL     1      11.827  34.070  20.011  1.00  0.00     0.086 A 
HETATM    2  N1  UNL     1      12.028  34.291  18.725  1.00  0.00    -0.344 N 
ATOM      3  H1  UNL     1      11.321  34.338  17.990  1.00  0.00     0.167 HD
HETATM    4  C7  UNL     1      13.386  34.443  18.581  1.00  0.00     0.062 A 
HETATM    5  C8  UNL     1      14.144  34.693  17.426  1.00  0.00     0.061 A 
HETATM    6  C9  UNL     1      15.546  34.804  17.516  1.00  0.00     0.035 A 
HETATM    7  C19 UNL     1      16.148  34.688  18.777  1.00  0.00     0.032 A 
HETATM    8  C20 UNL     1      15.411  34.439  19.947  1.00  0.00     0.034 A 
HETATM    9  C21 UNL     1      14.031  34.322  19.802  1.00  0.00     0.060 A 
HETATM   10  N7  UNL     1      13.021  34.088  20.697  1.00  0.00    -0.344 N 
HETATM   11  H15 UNL     1      13.129  33.932  21.690  1.00  0.00     0.167 HD
ENDROOT
BRANCH   6  12
HETATM   12  N2  UNL     1      16.266  35.078  16.335  1.00  0.00    -0.342 N 
HETATM   13  H7  UNL     1      17.049  34.458  16.190  1.00  0.00     0.167 HD
BRANCH  12  14
HETATM   14  C10 UNL     1      16.324  36.214  15.521  1.00  0.00     0.123 A 
HETATM   15  N3  UNL     1      15.974  37.459  15.966  1.00  0.00    -0.338 N 
HETATM   16  C11 UNL     1      16.122  38.552  15.159  1.00  0.00     0.183 A 
ATOM     17  H3  UNL     1      15.599  37.572  16.908  1.00  0.00     0.168 HD
HETATM   18  N4  UNL     1      16.590  38.640  13.893  1.00  0.00    -0.337 N 
HETATM   19  C12 UNL     1      16.927  37.421  13.418  1.00  0.00     0.137 A 
ATOM     20  H4  UNL     1      16.678  39.510  13.368  1.00  0.00     0.168 HD
HETATM   21  N5  UNL     1      17.415  37.174  12.207  1.00  0.00    -0.278 N 
HETATM   22  C18 UNL     1      16.795  36.241  14.196  1.00  0.00     0.082 A 
HETATM   23  N6  UNL     1      17.581  35.829  12.169  1.00  0.00    -0.265 N 
ATOM     24  H5  UNL     1      17.620  37.848  11.468  1.00  0.00     0.189 HD
HETATM   25  C13 UNL     1      18.086  35.097  11.091  1.00  0.00     0.116 A 
HETATM   26  C17 UNL     1      17.177  35.210  13.368  1.00  0.00     0.073 A 
HETATM   27  C14 UNL     1      18.182  33.761  11.163  1.00  0.00     0.019 A 
HETATM   28  C15 UNL     1      17.726  33.094  12.366  1.00  0.00     0.004 A 
HETATM   29  C16 UNL     1      17.241  33.783  13.418  1.00  0.00     0.032 A 
ENDBRANCH  12  14
ENDBRANCH   6  12
BRANCH   1  30
HETATM   30  C5  UNL     1      10.502  33.851  20.671  1.00  0.00     0.115 C 
BRANCH  30  31
HETATM   31  C4  UNL     1       9.396  34.743  20.152  1.00  0.00    -0.051 A 
HETATM   32  C3  UNL     1       8.067  34.537  20.551  1.00  0.00     0.007 A 
HETATM   33  C2  UNL     1       7.045  35.342  20.045  1.00  0.00     0.001 A 
HETATM   34  C1  UNL     1       7.340  36.356  19.135  1.00  0.00     0.000 A 
HETATM   35  C23 UNL     1       8.658  36.568  18.730  1.00  0.00     0.001 A 
HETATM   36  C22 UNL     1       9.681  35.765  19.235  1.00  0.00     0.007 A 
ENDBRANCH  30  31
ENDBRANCH   1  30
TORSDOF 4
ENDMDL
MODEL 4
REMARK minimizedAffinity -8.34647942
REMARK  4 active torsions:
REMARK  status: ('A' for Active; 'I' for Inactive)
REMARK    1  A    between atoms: C4_4  and  C5_5 
REMARK    2  A    between atoms: C5_5  and  C6_6 
REMARK    3  A    between atoms: C9_11  and  N2_12 
REMARK    4  A    between atoms: N2_12  and  C10_13 
ROOT
HETATM    1  C6  UNL     1      12.032  34.048  20.285  1.00  0.00     0.086 A 
HETATM    2  N1  UNL     1      12.655  33.834  19.141  1.00  0.00    -0.344 N 
ATOM      3  H1  UNL     1      12.250  33.471  18.278  1.00  0.00     0.167 HD
HETATM    4  C7  UNL     1      13.962  34.201  19.355  1.00  0.00     0.062 A 
HETATM    5  C8  UNL     1      15.058  34.174  18.478  1.00  0.00     0.061 A 
HETATM    6  C9  UNL     1      16.326  34.595  18.923  1.00  0.00     0.035 A 
HETATM    7  C19 UNL     1      16.453  35.060  20.240  1.00  0.00     0.032 A 
HETATM    8  C20 UNL     1      15.372  35.097  21.137  1.00  0.00     0.034 A 
HETATM    9  C21 UNL     1      14.143  34.656  20.651  1.00  0.00     0.060 A 
HETATM   10  N7  UNL     1      12.904  34.552  21.224  1.00  0.00    -0.344 N 
HETATM   11  H15 UNL     1      12.667  34.785  22.179  1.00  0.00     0.167 HD
ENDROOT
BRANCH   6  12
HETATM   12  N2  UNL     1      17.393  34.574  18.003  1.00  0.00    -0.342 N 
HETATM   13  H7  UNL     1      18.299  34.670  18.436  1.00  0.00     0.167 HD
BRANCH  12  14
HETATM   14  C10 UNL     1      17.436  34.784  16.620  1.00  0.00     0.123 A 
HETATM   15  N3  UNL     1      17.884  33.835  15.744  1.00  0.00    -0.338 N 
HETATM   16  C11 UNL     1      17.834  34.056  14.396  1.00  0.00     0.183 A 
ATOM     17  H3  UNL     1      18.259  32.956  16.099  1.00  0.00     0.168 HD
HETATM   18  N4  UNL     1      17.386  35.130  13.707  1.00  0.00    -0.337 N 
HETATM   19  C12 UNL     1      16.953  36.095  14.549  1.00  0.00     0.137 A 
ATOM     20  H4  UNL     1      17.374  35.202  12.690  1.00  0.00     0.168 HD
HETATM   21  N5  UNL     1      16.457  37.272  14.181  1.00  0.00    -0.278 N 
HETATM   22  C18 UNL     1      16.981  35.939  15.959  1.00  0.00     0.082 A 
HETATM   23  N6  UNL     1      16.180  37.909  15.345  1.00  0.00    -0.265 N 
ATOM     24  H5  UNL     1      16.315  37.619  13.232  1.00  0.00     0.189 HD
HETATM   25  C13 UNL     1      15.626  39.185  15.468  1.00  0.00     0.116 A 
HETATM   26  C17 UNL     1      16.521  37.132  16.470  1.00  0.00     0.073 A 
HETATM   27  C14 UNL     1      15.419  39.723  16.679  1.00  0.00     0.019 A 
HETATM   28  C15 UNL     1      15.808  38.966  17.852  1.00  0.00     0.004 A 
HETATM   29  C16 UNL     1      16.339  37.731  17.755  1.00  0.00     0.032 A 
ENDBRANCH  12  14
ENDBRANCH   6  12
BRANCH   1  30
HETATM   30  C5  UNL     1      10.579  33.810  20.555  1.00  0.00     0.115 C 
BRANCH  30  31
HETATM   31  C4  UNL     1       9.655  34.813  19.900  1.00  0.00    -0.051 A 
HETATM   32  C3  UNL     1       8.361  35.023  20.399  1.00  0.00     0.007 A 
HETATM   33  C2  UNL     1       7.500  35.925  19.772  1.00  0.00     0.001 A 
HETATM   34  C1  UNL     1       7.921  36.622  18.641  1.00  0.00     0.000 A 
HETATM   35  C23 UNL     1       9.205  36.419  18.135  1.00  0.00     0.001 A 
HETATM   36  C22 UNL     1      10.068  35.518  18.760  1.00  0.00     0.007 A 
ENDBRANCH  30  31
ENDBRANCH   1  30
TORSDOF 4
ENDMDL
MODEL 5
REMARK minimizedAffinity -8.31058788
REMARK  4 active torsions:
REMARK  status: ('A' for Active; 'I' for Inactive)
REMARK    1  A    between atoms: C4_4  and  C5_5 
REMARK    2  A    between atoms: C5_5  and  C6_6 
REMARK    3  A    between atoms: C9_11  and  N2_12 
REMARK    4  A    between atoms: N2_12  and  C10_13 
ROOT
HETATM    1  C6  UNL     1      17.871  52.065   5.405  1.00  0.00     0.086 A 
HETATM    2  N1  UNL     1      17.162  51.143   4.780  1.00  0.00    -0.344 N 
ATOM      3  H1  UNL     1      16.506  51.286   4.012  1.00  0.00     0.167 HD
HETATM    4  C7  UNL     1      17.491  49.951   5.380  1.00  0.00     0.062 A 
HETATM    5  C8  UNL     1      17.028  48.653   5.112  1.00  0.00     0.061 A 
HETATM    6  C9  UNL     1      17.504  47.566   5.871  1.00  0.00     0.035 A 
HETATM    7  C19 UNL     1      18.459  47.813   6.868  1.00  0.00     0.032 A 
HETATM    8  C20 UNL     1      18.938  49.102   7.155  1.00  0.00     0.034 A 
HETATM    9  C21 UNL     1      18.424  50.144   6.386  1.00  0.00     0.060 A 
HETATM   10  N7  UNL     1      18.654  51.494   6.384  1.00  0.00    -0.344 N 
HETATM   11  H15 UNL     1      19.274  51.994   7.005  1.00  0.00     0.167 HD
ENDROOT
BRANCH   6  12
HETATM   12  N2  UNL     1      17.031  46.277   5.554  1.00  0.00    -0.342 N 
HETATM   13  H7  UNL     1      17.321  45.570   6.212  1.00  0.00     0.167 HD
BRANCH  12  14
HETATM   14  C10 UNL     1      16.540  45.732   4.362  1.00  0.00     0.123 A 
HETATM   15  N3  UNL     1      15.466  46.258   3.699  1.00  0.00    -0.338 N 
HETATM   16  C11 UNL     1      15.071  45.740   2.497  1.00  0.00     0.183 A 
ATOM     17  H3  UNL     1      14.956  47.044   4.103  1.00  0.00     0.168 HD
HETATM   18  N4  UNL     1      15.587  44.715   1.781  1.00  0.00    -0.337 N 
HETATM   19  C12 UNL     1      16.639  44.162   2.422  1.00  0.00     0.137 A 
ATOM     20  H4  UNL     1      15.230  44.403   0.878  1.00  0.00     0.168 HD
HETATM   21  N5  UNL     1      17.359  43.135   1.979  1.00  0.00    -0.278 N 
HETATM   22  C18 UNL     1      17.103  44.642   3.675  1.00  0.00     0.082 A 
HETATM   23  N6  UNL     1      18.281  42.916   2.947  1.00  0.00    -0.265 N 
ATOM     24  H5  UNL     1      17.242  42.625   1.102  1.00  0.00     0.189 HD
HETATM   25  C13 UNL     1      19.276  41.935   2.923  1.00  0.00     0.116 A 
HETATM   26  C17 UNL     1      18.136  43.805   4.031  1.00  0.00     0.073 A 
HETATM   27  C14 UNL     1      20.120  41.798   3.956  1.00  0.00     0.019 A 
HETATM   28  C15 UNL     1      19.961  42.667   5.105  1.00  0.00     0.004 A 
HETATM   29  C16 UNL     1      19.012  43.622   5.145  1.00  0.00     0.032 A 
ENDBRANCH  12  14
ENDBRANCH   6  12
BRANCH   1  30
HETATM   30  C5  UNL     1      17.869  53.532   5.105  1.00  0.00     0.115 C 
BRANCH  30  31
HETATM   31  C4  UNL     1      16.501  54.098   4.793  1.00  0.00    -0.051 A 
HETATM   32  C3  UNL     1      16.367  55.223   3.966  1.00  0.00     0.007 A 
HETATM   33  C2  UNL     1      15.106  55.763   3.707  1.00  0.00     0.001 A 
HETATM   34  C1  UNL     1      13.970  55.186   4.272  1.00  0.00     0.000 A 
HETATM   35  C23 UNL     1      14.092  54.068   5.096  1.00  0.00     0.001 A 
HETATM   36  C22 UNL     1      15.351  53.527   5.357  1.00  0.00     0.007 A 
ENDBRANCH  30  31
ENDBRANCH   1  30
TORSDOF 4
ENDMDL
MODEL 6
REMARK minimizedAffinity -8.21192837
REMARK  4 active torsions:
REMARK  status: ('A' for Active; 'I' for Inactive)
REMARK    1  A    between atoms: C4_4  and  C5_5 
REMARK    2  A    between atoms: C5_5  and  C6_6 
REMARK    3  A    between atoms: C9_11  and  N2_12 
REMARK    4  A    between atoms: N2_12  and  C10_13 
ROOT
HETATM    1  C6  UNL     1      11.819  34.600  19.160  1.00  0.00     0.086 A 
HETATM    2  N1  UNL     1      11.775  35.373  18.090  1.00  0.00    -0.344 N 
ATOM      3  H1  UNL     1      10.962  35.867  17.720  1.00  0.00     0.167 HD
HETATM    4  C7  UNL     1      13.050  35.374  17.579  1.00  0.00     0.062 A 
HETATM    5  C8  UNL     1      13.564  36.027  16.447  1.00  0.00     0.061 A 
HETATM    6  C9  UNL     1      14.921  35.876  16.103  1.00  0.00     0.035 A 
HETATM    7  C19 UNL     1      15.737  35.087  16.928  1.00  0.00     0.032 A 
HETATM    8  C20 UNL     1      15.247  34.424  18.065  1.00  0.00     0.034 A 
HETATM    9  C21 UNL     1      13.895  34.595  18.353  1.00  0.00     0.060 A 
HETATM   10  N7  UNL     1      13.093  34.114  19.353  1.00  0.00    -0.344 N 
HETATM   11  H15 UNL     1      13.376  33.492  20.098  1.00  0.00     0.167 HD
ENDROOT
BRANCH   6  12
HETATM   12  N2  UNL     1      15.400  36.568  14.973  1.00  0.00    -0.342 N 
HETATM   13  H7  UNL     1      14.804  36.477  14.164  1.00  0.00     0.167 HD
BRANCH  12  14
HETATM   14  C10 UNL     1      16.670  37.060  14.649  1.00  0.00     0.123 A 
HETATM   15  N3  UNL     1      17.166  38.220  15.175  1.00  0.00    -0.338 N 
HETATM   16  C11 UNL     1      18.442  38.621  14.891  1.00  0.00     0.183 A 
ATOM     17  H3  UNL     1      16.579  38.792  15.783  1.00  0.00     0.168 HD
HETATM   18  N4  UNL     1      19.386  38.034  14.122  1.00  0.00    -0.337 N 
HETATM   19  C12 UNL     1      18.918  36.892  13.572  1.00  0.00     0.137 A 
ATOM     20  H4  UNL     1      20.326  38.402  13.977  1.00  0.00     0.168 HD
HETATM   21  N5  UNL     1      19.602  36.087  12.766  1.00  0.00    -0.278 N 
HETATM   22  C18 UNL     1      17.602  36.417  13.816  1.00  0.00     0.082 A 
HETATM   23  N6  UNL     1      18.736  35.094  12.451  1.00  0.00    -0.265 N 
ATOM     24  H5  UNL     1      20.568  36.194  12.452  1.00  0.00     0.189 HD
HETATM   25  C13 UNL     1      19.010  33.998  11.629  1.00  0.00     0.116 A 
HETATM   26  C17 UNL     1      17.475  35.278  13.053  1.00  0.00     0.073 A 
HETATM   27  C14 UNL     1      18.060  33.088  11.370  1.00  0.00     0.019 A 
HETATM   28  C15 UNL     1      16.739  33.279  11.937  1.00  0.00     0.004 A 
HETATM   29  C16 UNL     1      16.456  34.327  12.736  1.00  0.00     0.032 A 
ENDBRANCH  12  14
ENDBRANCH   6  12
BRANCH   1  30
HETATM   30  C5  UNL     1      10.673  34.291  20.072  1.00  0.00     0.115 C 
BRANCH  30  31
HETATM   31  C4  UNL     1       9.402  35.045  19.747  1.00  0.00    -0.051 A 
HETATM   32  C3  UNL     1       9.309  35.817  18.580  1.00  0.00     0.007 A 
HETATM   33  C2  UNL     1       8.146  36.537  18.300  1.00  0.00     0.001 A 
HETATM   34  C1  UNL     1       7.069  36.494  19.182  1.00  0.00     0.000 A 
HETATM   35  C23 UNL     1       7.150  35.730  20.346  1.00  0.00     0.001 A 
HETATM   36  C22 UNL     1       8.312  35.010  20.628  1.00  0.00     0.007 A 
ENDBRANCH  30  31
ENDBRANCH   1  30
TORSDOF 4
ENDMDL
MODEL 7
REMARK minimizedAffinity -8.14502621
REMARK  4 active torsions:
REMARK  status: ('A' for Active; 'I' for Inactive)
REMARK    1  A    between atoms: C4_4  and  C5_5 
REMARK    2  A    between atoms: C5_5  and  C6_6 
REMARK    3  A    between atoms: C9_11  and  N2_12 
REMARK    4  A    between atoms: N2_12  and  C10_13 
ROOT
HETATM    1  C6  UNL     1      17.744  53.127   5.129  1.00  0.00     0.086 A 
HETATM    2  N1  UNL     1      16.918  52.342   5.796  1.00  0.00    -0.344 N 
ATOM      3  H1  UNL     1      16.045  52.610   6.251  1.00  0.00     0.167 HD
HETATM    4  C7  UNL     1      17.480  51.088   5.752  1.00  0.00     0.062 A 
HETATM    5  C8  UNL     1      17.025  49.880   6.302  1.00  0.00     0.061 A 
HETATM    6  C9  UNL     1      17.779  48.702   6.136  1.00  0.00     0.035 A 
HETATM    7  C19 UNL     1      18.966  48.768   5.392  1.00  0.00     0.032 A 
HETATM    8  C20 UNL     1      19.443  49.964   4.831  1.00  0.00     0.034 A 
HETATM    9  C21 UNL     1      18.667  51.102   5.037  1.00  0.00     0.060 A 
HETATM   10  N7  UNL     1      18.815  52.407   4.648  1.00  0.00    -0.344 N 
HETATM   11  H15 UNL     1      19.586  52.787   4.117  1.00  0.00     0.167 HD
ENDROOT
BRANCH   6  12
HETATM   12  N2  UNL     1      17.274  47.507   6.686  1.00  0.00    -0.342 N 
HETATM   13  H7  UNL     1      16.564  47.657   7.387  1.00  0.00     0.167 HD
BRANCH  12  14
HETATM   14  C10 UNL     1      17.780  46.203   6.705  1.00  0.00     0.123 A 
HETATM   15  N3  UNL     1      18.399  45.669   7.800  1.00  0.00    -0.338 N 
HETATM   16  C11 UNL     1      18.807  44.364   7.800  1.00  0.00     0.183 A 
ATOM     17  H3  UNL     1      18.558  46.248   8.625  1.00  0.00     0.168 HD
HETATM   18  N4  UNL     1      18.704  43.422   6.835  1.00  0.00    -0.337 N 
HETATM   19  C12 UNL     1      18.113  43.927   5.730  1.00  0.00     0.137 A 
ATOM     20  H4  UNL     1      19.029  42.459   6.929  1.00  0.00     0.168 HD
HETATM   21  N5  UNL     1      17.871  43.253   4.610  1.00  0.00    -0.278 N 
HETATM   22  C18 UNL     1      17.669  45.273   5.655  1.00  0.00     0.082 A 
HETATM   23  N6  UNL     1      17.292  44.157   3.782  1.00  0.00    -0.265 N 
ATOM     24  H5  UNL     1      18.075  42.272   4.416  1.00  0.00     0.189 HD
HETATM   25  C13 UNL     1      16.846  43.907   2.482  1.00  0.00     0.116 A 
HETATM   26  C17 UNL     1      17.180  45.429   4.378  1.00  0.00     0.073 A 
HETATM   27  C14 UNL     1      16.310  44.893   1.747  1.00  0.00     0.019 A 
HETATM   28  C15 UNL     1      16.228  46.222   2.318  1.00  0.00     0.004 A 
HETATM   29  C16 UNL     1      16.647  46.482   3.572  1.00  0.00     0.032 A 
ENDBRANCH  12  14
ENDBRANCH   6  12
BRANCH   1  30
HETATM   30  C5  UNL     1      17.562  54.593   4.887  1.00  0.00     0.115 C 
BRANCH  30  31
HETATM   31  C4  UNL     1      16.189  54.973   4.377  1.00  0.00    -0.051 A 
HETATM   32  C3  UNL     1      16.049  55.836   3.280  1.00  0.00     0.007 A 
HETATM   33  C2  UNL     1      14.780  56.209   2.833  1.00  0.00     0.001 A 
HETATM   34  C1  UNL     1      13.643  55.727   3.478  1.00  0.00     0.000 A 
HETATM   35  C23 UNL     1      13.771  54.870   4.571  1.00  0.00     0.001 A 
HETATM   36  C22 UNL     1      15.038  54.495   5.019  1.00  0.00     0.007 A 
ENDBRANCH  30  31
ENDBRANCH   1  30
TORSDOF 4
ENDMDL
MODEL 8
REMARK minimizedAffinity -8.02594471
REMARK  4 active torsions:
REMARK  status: ('A' for Active; 'I' for Inactive)
REMARK    1  A    between atoms: C4_4  and  C5_5 
REMARK    2  A    between atoms: C5_5  and  C6_6 
REMARK    3  A    between atoms: C9_11  and  N2_12 
REMARK    4  A    between atoms: N2_12  and  C10_13 
ROOT
HETATM    1  C6  UNL     1      17.594  51.393   5.571  1.00  0.00     0.086 A 
HETATM    2  N1  UNL     1      16.310  51.677   5.688  1.00  0.00    -0.344 N 
ATOM      3  H1  UNL     1      15.578  51.074   6.066  1.00  0.00     0.167 HD
HETATM    4  C7  UNL     1      16.164  52.950   5.193  1.00  0.00     0.062 A 
HETATM    5  C8  UNL     1      15.010  53.740   5.074  1.00  0.00     0.061 A 
HETATM    6  C9  UNL     1      15.096  55.033   4.521  1.00  0.00     0.035 A 
HETATM    7  C19 UNL     1      16.354  55.508   4.124  1.00  0.00     0.032 A 
HETATM    8  C20 UNL     1      17.523  54.737   4.233  1.00  0.00     0.034 A 
HETATM    9  C21 UNL     1      17.381  53.461   4.773  1.00  0.00     0.060 A 
HETATM   10  N7  UNL     1      18.277  52.457   5.024  1.00  0.00    -0.344 N 
HETATM   11  H15 UNL     1      19.267  52.478   4.825  1.00  0.00     0.167 HD
ENDROOT
BRANCH   6  12
HETATM   12  N2  UNL     1      13.917  55.801   4.441  1.00  0.00    -0.342 N 
HETATM   13  H7  UNL     1      13.119  55.278   4.113  1.00  0.00     0.167 HD
BRANCH  12  14
HETATM   14  C10 UNL     1      13.705  57.183   4.399  1.00  0.00     0.123 A 
HETATM   15  N3  UNL     1      13.701  57.963   5.522  1.00  0.00    -0.338 N 
HETATM   16  C11 UNL     1      13.569  59.320   5.425  1.00  0.00     0.183 A 
ATOM     17  H3  UNL     1      13.797  57.529   6.440  1.00  0.00     0.168 HD
HETATM   18  N4  UNL     1      13.430  60.103   4.331  1.00  0.00    -0.337 N 
HETATM   19  C12 UNL     1      13.411  59.357   3.204  1.00  0.00     0.137 A 
ATOM     20  H4  UNL     1      13.351  61.120   4.353  1.00  0.00     0.168 HD
HETATM   21  N5  UNL     1      13.284  59.831   1.969  1.00  0.00    -0.278 N 
HETATM   22  C18 UNL     1      13.536  57.944   3.228  1.00  0.00     0.082 A 
HETATM   23  N6  UNL     1      13.297  58.733   1.175  1.00  0.00    -0.265 N 
ATOM     24  H5  UNL     1      13.196  60.806   1.681  1.00  0.00     0.189 HD
HETATM   25  C13 UNL     1      13.202  58.730  -0.219  1.00  0.00     0.116 A 
HETATM   26  C17 UNL     1      13.417  57.542   1.917  1.00  0.00     0.073 A 
HETATM   27  C14 UNL     1      13.201  57.573  -0.898  1.00  0.00     0.019 A 
HETATM   28  C15 UNL     1      13.273  56.330  -0.155  1.00  0.00     0.004 A 
HETATM   29  C16 UNL     1      13.371  56.312   1.189  1.00  0.00     0.032 A 
ENDBRANCH  12  14
ENDBRANCH   6  12
BRANCH   1  30
HETATM   30  C5  UNL     1      18.256  50.116   5.986  1.00  0.00     0.115 C 
BRANCH  30  31
HETATM   31  C4  UNL     1      17.501  48.868   5.585  1.00  0.00    -0.051 A 
HETATM   32  C3  UNL     1      16.816  48.811   4.362  1.00  0.00     0.007 A 
HETATM   33  C2  UNL     1      16.093  47.670   4.011  1.00  0.00     0.001 A 
HETATM   34  C1  UNL     1      16.045  46.579   4.876  1.00  0.00     0.000 A 
HETATM   35  C23 UNL     1      16.721  46.625   6.095  1.00  0.00     0.001 A 
HETATM   36  C22 UNL     1      17.445  47.765   6.449  1.00  0.00     0.007 A 
ENDBRANCH  30  31
ENDBRANCH   1  30
TORSDOF 4
ENDMDL
MODEL 9
REMARK minimizedAffinity -8.02487278
REMARK  4 active torsions:
REMARK  status: ('A' for Active; 'I' for Inactive)
REMARK    1  A    between atoms: C4_4  and  C5_5 
REMARK    2  A    between atoms: C5_5  and  C6_6 
REMARK    3  A    between atoms: C9_11  and  N2_12 
REMARK    4  A    between atoms: N2_12  and  C10_13 
ROOT
HETATM    1  C6  UNL     1      14.286  56.206   3.965  1.00  0.00     0.086 A 
HETATM    2  N1  UNL     1      13.909  55.021   4.407  1.00  0.00    -0.344 N 
ATOM      3  H1  UNL     1      12.953  54.690   4.542  1.00  0.00     0.167 HD
HETATM    4  C7  UNL     1      15.070  54.326   4.647  1.00  0.00     0.062 A 
HETATM    5  C8  UNL     1      15.252  53.021   5.130  1.00  0.00     0.061 A 
HETATM    6  C9  UNL     1      16.554  52.512   5.309  1.00  0.00     0.035 A 
HETATM    7  C19 UNL     1      17.643  53.327   4.969  1.00  0.00     0.032 A 
HETATM    8  C20 UNL     1      17.487  54.636   4.484  1.00  0.00     0.034 A 
HETATM    9  C21 UNL     1      16.180  55.096   4.339  1.00  0.00     0.060 A 
HETATM   10  N7  UNL     1      15.660  56.286   3.906  1.00  0.00    -0.344 N 
HETATM   11  H15 UNL     1      16.188  57.095   3.611  1.00  0.00     0.167 HD
ENDROOT
BRANCH   6  12
HETATM   12  N2  UNL     1      16.691  51.189   5.774  1.00  0.00    -0.342 N 
HETATM   13  H7  UNL     1      15.813  50.696   5.847  1.00  0.00     0.167 HD
BRANCH  12  14
HETATM   14  C10 UNL     1      17.726  50.545   6.461  1.00  0.00     0.123 A 
HETATM   15  N3  UNL     1      18.599  51.213   7.273  1.00  0.00    -0.338 N 
HETATM   16  C11 UNL     1      19.545  50.531   7.986  1.00  0.00     0.183 A 
ATOM     17  H3  UNL     1      18.544  52.229   7.348  1.00  0.00     0.168 HD
HETATM   18  N4  UNL     1      19.801  49.204   8.043  1.00  0.00    -0.337 N 
HETATM   19  C12 UNL     1      18.965  48.518   7.234  1.00  0.00     0.137 A 
ATOM     20  H4  UNL     1      20.527  48.779   8.619  1.00  0.00     0.168 HD
HETATM   21  N5  UNL     1      18.964  47.199   7.066  1.00  0.00    -0.278 N 
HETATM   22  C18 UNL     1      17.963  49.159   6.459  1.00  0.00     0.082 A 
HETATM   23  N6  UNL     1      17.983  46.966   6.162  1.00  0.00    -0.265 N 
ATOM     24  H5  UNL     1      19.570  46.514   7.519  1.00  0.00     0.189 HD
HETATM   25  C13 UNL     1      17.598  45.714   5.675  1.00  0.00     0.116 A 
HETATM   26  C17 UNL     1      17.360  48.155   5.734  1.00  0.00     0.073 A 
HETATM   27  C14 UNL     1      16.624  45.610   4.759  1.00  0.00     0.019 A 
HETATM   28  C15 UNL     1      16.001  46.822   4.266  1.00  0.00     0.004 A 
HETATM   29  C16 UNL     1      16.354  48.039   4.725  1.00  0.00     0.032 A 
ENDBRANCH  12  14
ENDBRANCH   6  12
BRANCH   1  30
HETATM   30  C5  UNL     1      13.378  57.324   3.554  1.00  0.00     0.115 C 
BRANCH  30  31
HETATM   31  C4  UNL     1      13.263  57.510   2.057  1.00  0.00    -0.051 A 
HETATM   32  C3  UNL     1      13.313  56.404   1.195  1.00  0.00     0.007 A 
HETATM   33  C2  UNL     1      13.239  56.583  -0.187  1.00  0.00     0.001 A 
HETATM   34  C1  UNL     1      13.117  57.865  -0.720  1.00  0.00     0.000 A 
HETATM   35  C23 UNL     1      13.067  58.971   0.128  1.00  0.00     0.001 A 
HETATM   36  C22 UNL     1      13.141  58.795   1.510  1.00  0.00     0.007 A 
ENDBRANCH  30  31
ENDBRANCH   1  30
TORSDOF 4
ENDMDL
