MODEL 1
REMARK minimizedAffinity -7.60546017
REMARK CNNscore 0.709573686
REMARK CNNaffinity 6.65361643
REMARK  4 active torsions:
REMARK  status: ('A' for Active; 'I' for Inactive)
REMARK       I    between atoms: C1_2  and  N1_3 
REMARK       I    between atoms: C1_2  and  N3_15 
REMARK    1  A    between atoms: N1_3  and  N2_4 
REMARK    2  A    between atoms: C2_6  and  C3_7 
REMARK    3  A    between atoms: C13_24  and  N6_25 
REMARK    4  A    between atoms: N6_25  and  C14_26 
ROOT
HETATM    1  O1  UNL     1      15.194  55.858   6.308  1.00  0.00    -0.245 OA
HETATM    2  C1  UNL     1      14.776  55.581   5.185  1.00  0.00     0.337 C 
HETATM    3  N1  UNL     1      14.889  54.319   4.607  1.00  0.00    -0.252 N 
HETATM    4  N3  UNL     1      14.166  56.536   4.370  1.00  0.00    -0.328 N 
HETATM    5  C9  UNL     1      13.834  57.837   4.946  1.00  0.00     0.134 C 
HETATM    6  C10 UNL     1      14.294  58.962   4.031  1.00  0.00     0.077 C 
HETATM    7  C11 UNL     1      13.736  58.772   2.647  1.00  0.00     0.023 A 
HETATM    8  N4  UNL     1      13.576  59.884   1.903  1.00  0.00    -0.355 N 
ATOM      9  H4  UNL     1      13.794  60.812   2.265  1.00  0.00     0.166 HD
HETATM   10  C12 UNL     1      13.116  59.696   0.664  1.00  0.00     0.182 A 
HETATM   11  N5  UNL     1      12.801  58.520   0.111  1.00  0.00    -0.338 N 
ATOM     12  H5  UNL     1      12.451  58.459  -0.845  1.00  0.00     0.168 HD
HETATM   13  C13 UNL     1      12.963  57.420   0.870  1.00  0.00     0.116 A 
HETATM   14  C20 UNL     1      13.447  57.499   2.174  1.00  0.00     0.026 A 
HETATM   15  C21 UNL     1      13.683  56.275   3.012  1.00  0.00     0.172 C 
HETATM   16  H1  UNL     1      14.097  54.039   4.044  1.00  0.00     0.191 HD
ENDROOT
BRANCH   3  17
HETATM   17  N2  UNL     1      15.422  53.233   5.265  1.00  0.00    -0.307 N 
HETATM   18  C2  UNL     1      16.700  53.054   5.161  1.00  0.00     0.120 C 
ATOM     19  H2  UNL     1      14.837  52.599   5.809  1.00  0.00     0.186 HD
BRANCH  18  20
HETATM   20  C3  UNL     1      17.435  51.975   5.858  1.00  0.00     0.003 A 
HETATM   21  C4  UNL     1      17.070  50.666   5.491  1.00  0.00     0.017 A 
HETATM   22  C5  UNL     1      17.702  49.567   6.073  1.00  0.00     0.043 A 
HETATM   23  C6  UNL     1      18.696  49.775   7.020  1.00  0.00     0.118 A 
HETATM   24  F1  UNL     1      19.303  48.720   7.579  1.00  0.00    -0.206 F 
HETATM   25  C7  UNL     1      19.066  51.058   7.400  1.00  0.00     0.066 A 
HETATM   26  C8  UNL     1      18.437  52.167   6.822  1.00  0.00     0.048 A 
HETATM   27 CL1  UNL     1      18.941  53.714   7.403  1.00  0.00    -0.083 Cl
ENDBRANCH  18  20
ENDBRANCH   3  17
BRANCH  13  28
HETATM   28  N6  UNL     1      12.607  56.151   0.346  1.00  0.00    -0.342 N 
HETATM   29  H11 UNL     1      11.891  55.741   0.939  1.00  0.00     0.167 HD
BRANCH  28  30
HETATM   30  C14 UNL     1      12.393  55.802  -1.010  1.00  0.00     0.034 A 
HETATM   31  C15 UNL     1      13.138  54.810  -1.660  1.00  0.00     0.029 A 
HETATM   32  C16 UNL     1      12.852  54.434  -2.976  1.00  0.00     0.004 A 
HETATM   33  C17 UNL     1      11.794  55.030  -3.657  1.00  0.00     0.019 A 
HETATM   34  C18 UNL     1      11.021  55.988  -3.010  1.00  0.00     0.013 A 
HETATM   35 BR1  UNL     1       9.564  56.784  -3.917  1.00  0.00    -0.051 Br
HETATM   36  C19 UNL     1      11.305  56.365  -1.694  1.00  0.00     0.048 A 
ENDBRANCH  28  30
ENDBRANCH  13  28
TORSDOF 4
ENDMDL
MODEL 2
REMARK minimizedAffinity -6.20993042
REMARK CNNscore 0.589214981
REMARK CNNaffinity 6.34392595
REMARK  4 active torsions:
REMARK  status: ('A' for Active; 'I' for Inactive)
REMARK       I    between atoms: C1_2  and  N1_3 
REMARK       I    between atoms: C1_2  and  N3_15 
REMARK    1  A    between atoms: N1_3  and  N2_4 
REMARK    2  A    between atoms: C2_6  and  C3_7 
REMARK    3  A    between atoms: C13_24  and  N6_25 
REMARK    4  A    between atoms: N6_25  and  C14_26 
ROOT
HETATM    1  O1  UNL     1      14.347  64.494   6.448  1.00  0.00    -0.245 OA
HETATM    2  C1  UNL     1      13.857  63.901   5.489  1.00  0.00     0.337 C 
HETATM    3  N1  UNL     1      13.343  62.608   5.558  1.00  0.00    -0.252 N 
HETATM    4  N3  UNL     1      13.798  64.477   4.219  1.00  0.00    -0.328 N 
HETATM    5  C9  UNL     1      14.139  65.891   4.077  1.00  0.00     0.134 C 
HETATM    6  C10 UNL     1      15.097  66.097   2.913  1.00  0.00     0.077 C 
HETATM    7  C11 UNL     1      14.530  65.500   1.655  1.00  0.00     0.023 A 
HETATM    8  N4  UNL     1      14.939  66.042   0.492  1.00  0.00    -0.355 N 
ATOM      9  H4  UNL     1      15.580  66.835   0.461  1.00  0.00     0.166 HD
HETATM   10  C12 UNL     1      14.456  65.477  -0.618  1.00  0.00     0.182 A 
HETATM   11  N5  UNL     1      13.611  64.442  -0.670  1.00  0.00    -0.338 N 
ATOM     12  H5  UNL     1      13.285  64.067  -1.561  1.00  0.00     0.168 HD
HETATM   13  C13 UNL     1      13.209  63.916   0.501  1.00  0.00     0.116 A 
HETATM   14  C20 UNL     1      13.659  64.420   1.720  1.00  0.00     0.026 A 
HETATM   15  C21 UNL     1      13.260  63.808   3.032  1.00  0.00     0.172 C 
HETATM   16  H1  UNL     1      12.520  62.449   4.993  1.00  0.00     0.191 HD
ENDROOT
BRANCH   3  17
HETATM   17  N2  UNL     1      13.273  61.887   6.729  1.00  0.00    -0.307 N 
HETATM   18  C2  UNL     1      13.055  60.615   6.621  1.00  0.00     0.120 C 
ATOM     19  H2  UNL     1      13.386  62.333   7.638  1.00  0.00     0.186 HD
BRANCH  18  20
HETATM   20  C3  UNL     1      13.016  59.690   7.777  1.00  0.00     0.003 A 
HETATM   21  C4  UNL     1      14.248  59.107   8.121  1.00  0.00     0.017 A 
HETATM   22  C5  UNL     1      14.337  58.227   9.200  1.00  0.00     0.043 A 
HETATM   23  C6  UNL     1      13.196  57.931   9.933  1.00  0.00     0.118 A 
HETATM   24  F1  UNL     1      13.279  57.087  10.970  1.00  0.00    -0.206 F 
HETATM   25  C7  UNL     1      11.968  58.492   9.606  1.00  0.00     0.066 A 
HETATM   26  C8  UNL     1      11.870  59.375   8.524  1.00  0.00     0.048 A 
HETATM   27 CL1  UNL     1      10.288  59.977   8.176  1.00  0.00    -0.083 Cl
ENDBRANCH  18  20
ENDBRANCH   3  17
BRANCH  13  28
HETATM   28  N6  UNL     1      12.283  62.841   0.504  1.00  0.00    -0.342 N 
HETATM   29  H11 UNL     1      11.420  63.150   0.067  1.00  0.00     0.167 HD
BRANCH  28  30
HETATM   30  C14 UNL     1      12.535  61.480   0.204  1.00  0.00     0.034 A 
HETATM   31  C15 UNL     1      12.940  60.556   1.175  1.00  0.00     0.029 A 
HETATM   32  C16 UNL     1      13.107  59.203   0.864  1.00  0.00     0.004 A 
HETATM   33  C17 UNL     1      12.843  58.746  -0.425  1.00  0.00     0.019 A 
HETATM   34  C18 UNL     1      12.402  59.646  -1.389  1.00  0.00     0.013 A 
HETATM   35 BR1  UNL     1      12.015  59.031  -3.136  1.00  0.00    -0.051 Br
HETATM   36  C19 UNL     1      12.235  60.999  -1.080  1.00  0.00     0.048 A 
ENDBRANCH  28  30
ENDBRANCH  13  28
TORSDOF 4
ENDMDL
MODEL 3
REMARK minimizedAffinity -6.36950731
REMARK CNNscore 0.35167405
REMARK CNNaffinity 6.02859735
REMARK  4 active torsions:
REMARK  status: ('A' for Active; 'I' for Inactive)
REMARK       I    between atoms: C1_2  and  N1_3 
REMARK       I    between atoms: C1_2  and  N3_15 
REMARK    1  A    between atoms: N1_3  and  N2_4 
REMARK    2  A    between atoms: C2_6  and  C3_7 
REMARK    3  A    between atoms: C13_24  and  N6_25 
REMARK    4  A    between atoms: N6_25  and  C14_26 
ROOT
HETATM    1  O1  UNL     1      13.754  63.517   5.440  1.00  0.00    -0.245 OA
HETATM    2  C1  UNL     1      13.436  62.621   4.660  1.00  0.00     0.337 C 
HETATM    3  N1  UNL     1      13.177  61.309   5.052  1.00  0.00    -0.252 N 
HETATM    4  N3  UNL     1      13.332  62.842   3.286  1.00  0.00    -0.328 N 
HETATM    5  C9  UNL     1      13.403  64.216   2.793  1.00  0.00     0.134 C 
HETATM    6  C10 UNL     1      14.362  64.315   1.616  1.00  0.00     0.077 C 
HETATM    7  C11 UNL     1      13.984  63.326   0.548  1.00  0.00     0.023 A 
HETATM    8  N4  UNL     1      14.341  63.635  -0.714  1.00  0.00    -0.355 N 
ATOM      9  H4  UNL     1      14.818  64.507  -0.943  1.00  0.00     0.166 HD
HETATM   10  C12 UNL     1      14.031  62.730  -1.647  1.00  0.00     0.182 A 
HETATM   11  N5  UNL     1      13.404  61.568  -1.438  1.00  0.00    -0.338 N 
ATOM     12  H5  UNL     1      13.201  60.928  -2.206  1.00  0.00     0.168 HD
HETATM   13  C13 UNL     1      13.051  61.277  -0.172  1.00  0.00     0.116 A 
HETATM   14  C20 UNL     1      13.334  62.145   0.882  1.00  0.00     0.026 A 
HETATM   15  C21 UNL     1      12.993  61.809   2.305  1.00  0.00     0.172 C 
HETATM   16  H1  UNL     1      12.429  60.855   4.544  1.00  0.00     0.191 HD
ENDROOT
BRANCH   3  17
HETATM   17  N2  UNL     1      13.186  60.899   6.366  1.00  0.00    -0.307 N 
HETATM   18  C2  UNL     1      13.007  59.636   6.587  1.00  0.00     0.120 C 
ATOM     19  H2  UNL     1      13.328  61.560   7.130  1.00  0.00     0.186 HD
BRANCH  18  20
HETATM   20  C3  UNL     1      13.054  59.026   7.936  1.00  0.00     0.003 A 
HETATM   21  C4  UNL     1      14.304  58.505   8.316  1.00  0.00     0.017 A 
HETATM   22  C5  UNL     1      14.473  57.916   9.569  1.00  0.00     0.043 A 
HETATM   23  C6  UNL     1      13.394  57.847  10.440  1.00  0.00     0.118 A 
HETATM   24  F1  UNL     1      13.554  57.281  11.643  1.00  0.00    -0.206 F 
HETATM   25  C7  UNL     1      12.150  58.350  10.081  1.00  0.00     0.066 A 
HETATM   26  C8  UNL     1      11.971  58.942   8.826  1.00  0.00     0.048 A 
HETATM   27 CL1  UNL     1      10.373  59.491   8.464  1.00  0.00    -0.083 Cl
ENDBRANCH  18  20
ENDBRANCH   3  17
BRANCH  13  28
HETATM   28  N6  UNL     1      12.349  60.075   0.101  1.00  0.00    -0.342 N 
HETATM   29  H11 UNL     1      11.596  59.975  -0.573  1.00  0.00     0.167 HD
BRANCH  28  30
HETATM   30  C14 UNL     1      12.894  58.810   0.431  1.00  0.00     0.034 A 
HETATM   31  C15 UNL     1      13.319  58.487   1.727  1.00  0.00     0.029 A 
HETATM   32  C16 UNL     1      13.781  57.205   2.039  1.00  0.00     0.004 A 
HETATM   33  C17 UNL     1      13.800  56.213   1.063  1.00  0.00     0.019 A 
HETATM   34  C18 UNL     1      13.344  56.509  -0.218  1.00  0.00     0.013 A 
HETATM   35 BR1  UNL     1      13.339  55.161  -1.545  1.00  0.00    -0.051 Br
HETATM   36  C19 UNL     1      12.881  57.790  -0.533  1.00  0.00     0.048 A 
ENDBRANCH  28  30
ENDBRANCH  13  28
TORSDOF 4
ENDMDL
MODEL 4
REMARK minimizedAffinity -8.09927368
REMARK CNNscore 0.328071803
REMARK CNNaffinity 5.42505074
REMARK  4 active torsions:
REMARK  status: ('A' for Active; 'I' for Inactive)
REMARK       I    between atoms: C1_2  and  N1_3 
REMARK       I    between atoms: C1_2  and  N3_15 
REMARK    1  A    between atoms: N1_3  and  N2_4 
REMARK    2  A    between atoms: C2_6  and  C3_7 
REMARK    3  A    between atoms: C13_24  and  N6_25 
REMARK    4  A    between atoms: N6_25  and  C14_26 
ROOT
HETATM    1  O1  UNL     1       8.205  30.242  -6.900  1.00  0.00    -0.245 OA
HETATM    2  C1  UNL     1       7.425  31.054  -6.404  1.00  0.00     0.337 C 
HETATM    3  N1  UNL     1       7.002  31.010  -5.077  1.00  0.00    -0.252 N 
HETATM    4  N3  UNL     1       6.866  32.090  -7.153  1.00  0.00    -0.328 N 
HETATM    5  C9  UNL     1       7.380  32.335  -8.499  1.00  0.00     0.134 C 
HETATM    6  C10 UNL     1       6.236  32.487  -9.491  1.00  0.00     0.077 C 
HETATM    7  C11 UNL     1       5.277  33.548  -9.026  1.00  0.00     0.023 A 
HETATM    8  N4  UNL     1       4.563  34.176  -9.980  1.00  0.00    -0.355 N 
ATOM      9  H4  UNL     1       4.684  33.968 -10.971  1.00  0.00     0.166 HD
HETATM   10  C12 UNL     1       3.688  35.089  -9.549  1.00  0.00     0.182 A 
HETATM   11  N5  UNL     1       3.470  35.429  -8.275  1.00  0.00    -0.338 N 
ATOM     12  H5  UNL     1       2.783  36.141  -8.025  1.00  0.00     0.168 HD
HETATM   13  C13 UNL     1       4.194  34.794  -7.335  1.00  0.00     0.116 A 
HETATM   14  C20 UNL     1       5.128  33.816  -7.671  1.00  0.00     0.026 A 
HETATM   15  C21 UNL     1       5.905  33.063  -6.629  1.00  0.00     0.172 C 
HETATM   16  H1  UNL     1       6.887  31.915  -4.640  1.00  0.00     0.191 HD
ENDROOT
BRANCH   3  17
HETATM   17  N2  UNL     1       7.471  30.090  -4.167  1.00  0.00    -0.307 N 
HETATM   18  C2  UNL     1       8.747  30.075  -3.951  1.00  0.00     0.120 C 
ATOM     19  H2  UNL     1       6.841  29.449  -3.684  1.00  0.00     0.186 HD
BRANCH  18  20
HETATM   20  C3  UNL     1       9.400  29.193  -2.958  1.00  0.00     0.003 A 
HETATM   21  C4  UNL     1      10.184  28.158  -3.499  1.00  0.00     0.017 A 
HETATM   22  C5  UNL     1      10.857  27.269  -2.660  1.00  0.00     0.043 A 
HETATM   23  C6  UNL     1      10.747  27.415  -1.284  1.00  0.00     0.118 A 
HETATM   24  F1  UNL     1      11.392  26.562  -0.478  1.00  0.00    -0.206 F 
HETATM   25  C7  UNL     1       9.973  28.426  -0.731  1.00  0.00     0.066 A 
HETATM   26  C8  UNL     1       9.293  29.322  -1.564  1.00  0.00     0.048 A 
HETATM   27 CL1  UNL     1       8.322  30.511  -0.772  1.00  0.00    -0.083 Cl
ENDBRANCH  18  20
ENDBRANCH   3  17
BRANCH  13  28
HETATM   28  N6  UNL     1       4.030  35.144  -5.969  1.00  0.00    -0.342 N 
HETATM   29  H11 UNL     1       4.567  34.498  -5.399  1.00  0.00     0.167 HD
BRANCH  28  30
HETATM   30  C14 UNL     1       4.041  36.441  -5.400  1.00  0.00     0.034 A 
HETATM   31  C15 UNL     1       3.436  36.729  -4.170  1.00  0.00     0.029 A 
HETATM   32  C16 UNL     1       3.530  38.001  -3.597  1.00  0.00     0.004 A 
HETATM   33  C17 UNL     1       4.257  39.002  -4.235  1.00  0.00     0.019 A 
HETATM   34  C18 UNL     1       4.896  38.718  -5.438  1.00  0.00     0.013 A 
HETATM   35 BR1  UNL     1       5.910  40.062  -6.300  1.00  0.00    -0.051 Br
HETATM   36  C19 UNL     1       4.804  37.447  -6.013  1.00  0.00     0.048 A 
ENDBRANCH  28  30
ENDBRANCH  13  28
TORSDOF 4
ENDMDL
MODEL 5
REMARK minimizedAffinity -6.26261234
REMARK CNNscore 0.293858081
REMARK CNNaffinity 5.73595762
REMARK  4 active torsions:
REMARK  status: ('A' for Active; 'I' for Inactive)
REMARK       I    between atoms: C1_2  and  N1_3 
REMARK       I    between atoms: C1_2  and  N3_15 
REMARK    1  A    between atoms: N1_3  and  N2_4 
REMARK    2  A    between atoms: C2_6  and  C3_7 
REMARK    3  A    between atoms: C13_24  and  N6_25 
REMARK    4  A    between atoms: N6_25  and  C14_26 
ROOT
HETATM    1  O1  UNL     1      15.010  59.328   5.054  1.00  0.00    -0.245 OA
HETATM    2  C1  UNL     1      14.223  59.382   4.111  1.00  0.00     0.337 C 
HETATM    3  N1  UNL     1      12.992  60.032   4.166  1.00  0.00    -0.252 N 
HETATM    4  N3  UNL     1      14.493  58.761   2.890  1.00  0.00    -0.328 N 
HETATM    5  C9  UNL     1      15.828  58.212   2.666  1.00  0.00     0.134 C 
HETATM    6  C10 UNL     1      15.741  56.802   2.103  1.00  0.00     0.077 C 
HETATM    7  C11 UNL     1      14.883  56.783   0.868  1.00  0.00     0.023 A 
HETATM    8  N4  UNL     1      15.134  55.808  -0.027  1.00  0.00    -0.355 N 
ATOM      9  H4  UNL     1      15.885  55.131   0.107  1.00  0.00     0.166 HD
HETATM   10  C12 UNL     1      14.340  55.782  -1.101  1.00  0.00     0.182 A 
HETATM   11  N5  UNL     1      13.339  56.630  -1.360  1.00  0.00    -0.338 N 
ATOM     12  H5  UNL     1      12.777  56.545  -2.207  1.00  0.00     0.168 HD
HETATM   13  C13 UNL     1      13.105  57.601  -0.457  1.00  0.00     0.116 A 
HETATM   14  C20 UNL     1      13.866  57.714   0.705  1.00  0.00     0.026 A 
HETATM   15  C21 UNL     1      13.581  58.760   1.745  1.00  0.00     0.172 C 
HETATM   16  H1  UNL     1      12.725  60.505   3.313  1.00  0.00     0.191 HD
ENDROOT
BRANCH   3  17
HETATM   17  N2  UNL     1      12.561  60.738   5.266  1.00  0.00    -0.307 N 
HETATM   18  C2  UNL     1      12.105  60.049   6.264  1.00  0.00     0.120 C 
ATOM     19  H2  UNL     1      12.599  61.756   5.295  1.00  0.00     0.186 HD
BRANCH  18  20
HETATM   20  C3  UNL     1      11.664  60.652   7.542  1.00  0.00     0.003 A 
HETATM   21  C4  UNL     1      10.620  59.973   8.197  1.00  0.00     0.017 A 
HETATM   22  C5  UNL     1      10.128  60.441   9.415  1.00  0.00     0.043 A 
HETATM   23  C6  UNL     1      10.677  61.585   9.977  1.00  0.00     0.118 A 
HETATM   24  F1  UNL     1      10.205  62.036  11.147  1.00  0.00    -0.206 F 
HETATM   25  C7  UNL     1      11.704  62.273   9.344  1.00  0.00     0.066 A 
HETATM   26  C8  UNL     1      12.204  61.811   8.121  1.00  0.00     0.048 A 
HETATM   27 CL1  UNL     1      13.447  62.769   7.398  1.00  0.00    -0.083 Cl
ENDBRANCH  18  20
ENDBRANCH   3  17
BRANCH  13  28
HETATM   28  N6  UNL     1      12.080  58.551  -0.701  1.00  0.00    -0.342 N 
HETATM   29  H11 UNL     1      11.596  58.742   0.171  1.00  0.00     0.167 HD
BRANCH  28  30
HETATM   30  C14 UNL     1      12.154  59.720  -1.498  1.00  0.00     0.034 A 
HETATM   31  C15 UNL     1      12.493  60.972  -0.969  1.00  0.00     0.029 A 
HETATM   32  C16 UNL     1      12.633  62.092  -1.793  1.00  0.00     0.004 A 
HETATM   33  C17 UNL     1      12.462  61.972  -3.169  1.00  0.00     0.019 A 
HETATM   34  C18 UNL     1      12.164  60.727  -3.712  1.00  0.00     0.013 A 
HETATM   35 BR1  UNL     1      11.957  60.546  -5.584  1.00  0.00    -0.051 Br
HETATM   36  C19 UNL     1      12.024  59.604  -2.890  1.00  0.00     0.048 A 
ENDBRANCH  28  30
ENDBRANCH  13  28
TORSDOF 4
ENDMDL
MODEL 6
REMARK minimizedAffinity -6.65151882
REMARK CNNscore 0.291897595
REMARK CNNaffinity 5.84529638
REMARK  4 active torsions:
REMARK  status: ('A' for Active; 'I' for Inactive)
REMARK       I    between atoms: C1_2  and  N1_3 
REMARK       I    between atoms: C1_2  and  N3_15 
REMARK    1  A    between atoms: N1_3  and  N2_4 
REMARK    2  A    between atoms: C2_6  and  C3_7 
REMARK    3  A    between atoms: C13_24  and  N6_25 
REMARK    4  A    between atoms: N6_25  and  C14_26 
ROOT
HETATM    1  O1  UNL     1      -0.410  70.088  -1.336  1.00  0.00    -0.245 OA
HETATM    2  C1  UNL     1       0.528  69.409  -1.752  1.00  0.00     0.337 C 
HETATM    3  N1  UNL     1       1.668  69.947  -2.346  1.00  0.00    -0.252 N 
HETATM    4  N3  UNL     1       0.515  68.015  -1.687  1.00  0.00    -0.328 N 
HETATM    5  C9  UNL     1      -0.544  67.362  -0.921  1.00  0.00     0.134 C 
HETATM    6  C10 UNL     1      -1.163  66.226  -1.722  1.00  0.00     0.077 C 
HETATM    7  C11 UNL     1      -0.097  65.271  -2.184  1.00  0.00     0.023 A 
HETATM    8  N4  UNL     1      -0.481  63.998  -2.402  1.00  0.00    -0.355 N 
ATOM      9  H4  UNL     1      -1.438  63.686  -2.236  1.00  0.00     0.166 HD
HETATM   10  C12 UNL     1       0.467  63.170  -2.848  1.00  0.00     0.182 A 
HETATM   11  N5  UNL     1       1.743  63.491  -3.087  1.00  0.00    -0.338 N 
ATOM     12  H5  UNL     1       2.411  62.798  -3.427  1.00  0.00     0.168 HD
HETATM   13  C13 UNL     1       2.110  64.766  -2.860  1.00  0.00     0.116 A 
HETATM   14  C20 UNL     1       1.199  65.717  -2.404  1.00  0.00     0.026 A 
HETATM   15  C21 UNL     1       1.583  67.154  -2.198  1.00  0.00     0.172 C 
HETATM   16  H1  UNL     1       2.529  69.465  -2.122  1.00  0.00     0.191 HD
ENDROOT
BRANCH   3  17
HETATM   17  N2  UNL     1       1.889  71.300  -2.466  1.00  0.00    -0.307 N 
HETATM   18  C2  UNL     1       2.942  71.776  -1.882  1.00  0.00     0.120 C 
ATOM     19  H2  UNL     1       1.253  71.900  -2.991  1.00  0.00     0.186 HD
BRANCH  18  20
HETATM   20  C3  UNL     1       3.356  73.195  -1.969  1.00  0.00     0.003 A 
HETATM   21  C4  UNL     1       3.559  73.682  -3.273  1.00  0.00     0.017 A 
HETATM   22  C5  UNL     1       3.940  75.008  -3.480  1.00  0.00     0.043 A 
HETATM   23  C6  UNL     1       4.117  75.845  -2.388  1.00  0.00     0.118 A 
HETATM   24  F1  UNL     1       4.483  77.118  -2.585  1.00  0.00    -0.206 F 
HETATM   25  C7  UNL     1       3.927  75.382  -1.092  1.00  0.00     0.066 A 
HETATM   26  C8  UNL     1       3.546  74.053  -0.874  1.00  0.00     0.048 A 
HETATM   27 CL1  UNL     1       3.384  73.570   0.777  1.00  0.00    -0.083 Cl
ENDBRANCH  18  20
ENDBRANCH   3  17
BRANCH  13  28
HETATM   28  N6  UNL     1       3.461  65.151  -3.060  1.00  0.00    -0.342 N 
HETATM   29  H11 UNL     1       4.051  64.619  -2.428  1.00  0.00     0.167 HD
BRANCH  28  30
HETATM   30  C14 UNL     1       4.124  65.375  -4.292  1.00  0.00     0.034 A 
HETATM   31  C15 UNL     1       5.374  64.816  -4.587  1.00  0.00     0.029 A 
HETATM   32  C16 UNL     1       5.969  64.992  -5.840  1.00  0.00     0.004 A 
HETATM   33  C17 UNL     1       5.308  65.712  -6.831  1.00  0.00     0.019 A 
HETATM   34  C18 UNL     1       4.049  66.240  -6.564  1.00  0.00     0.013 A 
HETATM   35 BR1  UNL     1       3.129  67.196  -7.912  1.00  0.00    -0.051 Br
HETATM   36  C19 UNL     1       3.452  66.065  -5.312  1.00  0.00     0.048 A 
ENDBRANCH  28  30
ENDBRANCH  13  28
TORSDOF 4
ENDMDL
MODEL 7
REMARK minimizedAffinity -6.54828405
REMARK CNNscore 0.284345478
REMARK CNNaffinity 5.52167654
REMARK  4 active torsions:
REMARK  status: ('A' for Active; 'I' for Inactive)
REMARK       I    between atoms: C1_2  and  N1_3 
REMARK       I    between atoms: C1_2  and  N3_15 
REMARK    1  A    between atoms: N1_3  and  N2_4 
REMARK    2  A    between atoms: C2_6  and  C3_7 
REMARK    3  A    between atoms: C13_24  and  N6_25 
REMARK    4  A    between atoms: N6_25  and  C14_26 
ROOT
HETATM    1  O1  UNL     1      16.966  44.109  -0.134  1.00  0.00    -0.245 OA
HETATM    2  C1  UNL     1      17.288  43.722   0.988  1.00  0.00     0.337 C 
HETATM    3  N1  UNL     1      17.799  42.453   1.252  1.00  0.00    -0.252 N 
HETATM    4  N3  UNL     1      17.141  44.530   2.117  1.00  0.00    -0.328 N 
HETATM    5  C9  UNL     1      16.789  45.935   1.928  1.00  0.00     0.134 C 
HETATM    6  C10 UNL     1      15.654  46.334   2.858  1.00  0.00     0.077 C 
HETATM    7  C11 UNL     1      16.003  46.002   4.283  1.00  0.00     0.023 A 
HETATM    8  N4  UNL     1      15.411  46.744   5.238  1.00  0.00    -0.355 N 
ATOM      9  H4  UNL     1      14.778  47.511   5.013  1.00  0.00     0.166 HD
HETATM   10  C12 UNL     1      15.701  46.413   6.500  1.00  0.00     0.182 A 
HETATM   11  N5  UNL     1      16.520  45.429   6.886  1.00  0.00    -0.338 N 
ATOM     12  H5  UNL     1      16.693  45.239   7.873  1.00  0.00     0.168 HD
HETATM   13  C13 UNL     1      17.107  44.700   5.918  1.00  0.00     0.116 A 
HETATM   14  C20 UNL     1      16.866  44.952   4.569  1.00  0.00     0.026 A 
HETATM   15  C21 UNL     1      17.472  44.113   3.481  1.00  0.00     0.172 C 
HETATM   16  H1  UNL     1      18.517  42.425   1.964  1.00  0.00     0.191 HD
ENDROOT
BRANCH   3  17
HETATM   17  N2  UNL     1      18.057  41.524   0.269  1.00  0.00    -0.307 N 
HETATM   18  C2  UNL     1      18.341  40.322   0.658  1.00  0.00     0.120 C 
ATOM     19  H2  UNL     1      18.026  41.772  -0.720  1.00  0.00     0.186 HD
BRANCH  18  20
HETATM   20  C3  UNL     1      18.580  39.196  -0.272  1.00  0.00     0.003 A 
HETATM   21  C4  UNL     1      19.919  38.776  -0.375  1.00  0.00     0.017 A 
HETATM   22  C5  UNL     1      20.264  37.715  -1.212  1.00  0.00     0.043 A 
HETATM   23  C6  UNL     1      19.275  37.076  -1.946  1.00  0.00     0.118 A 
HETATM   24  F1  UNL     1      19.605  36.058  -2.750  1.00  0.00    -0.206 F 
HETATM   25  C7  UNL     1      17.948  37.479  -1.864  1.00  0.00     0.066 A 
HETATM   26  C8  UNL     1      17.592  38.543  -1.027  1.00  0.00     0.048 A 
HETATM   27 CL1  UNL     1      15.924  38.993  -1.037  1.00  0.00    -0.083 Cl
ENDBRANCH  18  20
ENDBRANCH   3  17
BRANCH  13  28
HETATM   28  N6  UNL     1      18.015  43.669   6.272  1.00  0.00    -0.342 N 
HETATM   29  H11 UNL     1      17.965  42.934   5.572  1.00  0.00     0.167 HD
BRANCH  28  30
HETATM   30  C14 UNL     1      19.339  43.809   6.755  1.00  0.00     0.034 A 
HETATM   31  C15 UNL     1      19.624  44.218   8.064  1.00  0.00     0.029 A 
HETATM   32  C16 UNL     1      20.940  44.273   8.535  1.00  0.00     0.004 A 
HETATM   33  C17 UNL     1      21.993  43.892   7.709  1.00  0.00     0.019 A 
HETATM   34  C18 UNL     1      21.721  43.446   6.420  1.00  0.00     0.013 A 
HETATM   35 BR1  UNL     1      23.142  42.899   5.298  1.00  0.00    -0.051 Br
HETATM   36  C19 UNL     1      20.407  43.390   5.946  1.00  0.00     0.048 A 
ENDBRANCH  28  30
ENDBRANCH  13  28
TORSDOF 4
ENDMDL
MODEL 8
REMARK minimizedAffinity -6.65302372
REMARK CNNscore 0.261020243
REMARK CNNaffinity 5.64922762
REMARK  4 active torsions:
REMARK  status: ('A' for Active; 'I' for Inactive)
REMARK       I    between atoms: C1_2  and  N1_3 
REMARK       I    between atoms: C1_2  and  N3_15 
REMARK    1  A    between atoms: N1_3  and  N2_4 
REMARK    2  A    between atoms: C2_6  and  C3_7 
REMARK    3  A    between atoms: C13_24  and  N6_25 
REMARK    4  A    between atoms: N6_25  and  C14_26 
ROOT
HETATM    1  O1  UNL     1       2.455  72.555  -6.815  1.00  0.00    -0.245 OA
HETATM    2  C1  UNL     1       2.716  71.607  -6.076  1.00  0.00     0.337 C 
HETATM    3  N1  UNL     1       3.301  71.744  -4.819  1.00  0.00    -0.252 N 
HETATM    4  N3  UNL     1       2.466  70.287  -6.455  1.00  0.00    -0.328 N 
HETATM    5  C9  UNL     1       1.690  70.044  -7.669  1.00  0.00     0.134 C 
HETATM    6  C10 UNL     1       2.371  68.999  -8.540  1.00  0.00     0.077 C 
HETATM    7  C11 UNL     1       2.632  67.747  -7.749  1.00  0.00     0.023 A 
HETATM    8  N4  UNL     1       2.703  66.596  -8.446  1.00  0.00    -0.355 N 
ATOM      9  H4  UNL     1       2.559  66.566  -9.455  1.00  0.00     0.166 HD
HETATM   10  C12 UNL     1       2.972  65.498  -7.735  1.00  0.00     0.182 A 
HETATM   11  N5  UNL     1       3.169  65.445  -6.414  1.00  0.00    -0.338 N 
ATOM     12  H5  UNL     1       3.369  64.563  -5.941  1.00  0.00     0.168 HD
HETATM   13  C13 UNL     1       3.091  66.603  -5.732  1.00  0.00     0.116 A 
HETATM   14  C20 UNL     1       2.825  67.811  -6.375  1.00  0.00     0.026 A 
HETATM   15  C21 UNL     1       2.788  69.117  -5.635  1.00  0.00     0.172 C 
HETATM   16  H1  UNL     1       2.960  71.096  -4.121  1.00  0.00     0.191 HD
ENDROOT
BRANCH   3  17
HETATM   17  N2  UNL     1       3.586  72.964  -4.249  1.00  0.00    -0.307 N 
HETATM   18  C2  UNL     1       3.600  73.017  -2.955  1.00  0.00     0.120 C 
ATOM     19  H2  UNL     1       3.777  73.787  -4.819  1.00  0.00     0.186 HD
BRANCH  18  20
HETATM   20  C3  UNL     1       3.950  74.235  -2.189  1.00  0.00     0.003 A 
HETATM   21  C4  UNL     1       4.564  75.257  -2.936  1.00  0.00     0.017 A 
HETATM   22  C5  UNL     1       4.930  76.456  -2.325  1.00  0.00     0.043 A 
HETATM   23  C6  UNL     1       4.683  76.634  -0.971  1.00  0.00     0.118 A 
HETATM   24  F1  UNL     1       5.034  77.785  -0.382  1.00  0.00    -0.206 F 
HETATM   25  C7  UNL     1       4.084  75.635  -0.214  1.00  0.00     0.066 A 
HETATM   26  C8  UNL     1       3.714  74.428  -0.819  1.00  0.00     0.048 A 
HETATM   27 CL1  UNL     1       3.021  73.237   0.223  1.00  0.00    -0.083 Cl
ENDBRANCH  18  20
ENDBRANCH   3  17
BRANCH  13  28
HETATM   28  N6  UNL     1       3.253  66.599  -4.323  1.00  0.00    -0.342 N 
HETATM   29  H11 UNL     1       3.745  67.443  -4.047  1.00  0.00     0.167 HD
BRANCH  28  30
HETATM   30  C14 UNL     1       2.297  66.235  -3.342  1.00  0.00     0.034 A 
HETATM   31  C15 UNL     1       1.915  67.097  -2.307  1.00  0.00     0.029 A 
HETATM   32  C16 UNL     1       0.913  66.739  -1.399  1.00  0.00     0.004 A 
HETATM   33  C17 UNL     1       0.257  65.518  -1.529  1.00  0.00     0.019 A 
HETATM   34  C18 UNL     1       0.600  64.669  -2.577  1.00  0.00     0.013 A 
HETATM   35 BR1  UNL     1      -0.304  63.020  -2.780  1.00  0.00    -0.051 Br
HETATM   36  C19 UNL     1       1.601  65.025  -3.486  1.00  0.00     0.048 A 
ENDBRANCH  28  30
ENDBRANCH  13  28
TORSDOF 4
ENDMDL
MODEL 9
REMARK minimizedAffinity -6.01895189
REMARK CNNscore 0.256571382
REMARK CNNaffinity 5.49200201
REMARK  4 active torsions:
REMARK  status: ('A' for Active; 'I' for Inactive)
REMARK       I    between atoms: C1_2  and  N1_3 
REMARK       I    between atoms: C1_2  and  N3_15 
REMARK    1  A    between atoms: N1_3  and  N2_4 
REMARK    2  A    between atoms: C2_6  and  C3_7 
REMARK    3  A    between atoms: C13_24  and  N6_25 
REMARK    4  A    between atoms: N6_25  and  C14_26 
ROOT
HETATM    1  O1  UNL     1      13.131  66.378   4.778  1.00  0.00    -0.245 OA
HETATM    2  C1  UNL     1      12.790  65.229   5.058  1.00  0.00     0.337 C 
HETATM    3  N1  UNL     1      12.452  64.269   4.107  1.00  0.00    -0.252 N 
HETATM    4  N3  UNL     1      12.685  64.793   6.379  1.00  0.00    -0.328 N 
HETATM    5  C9  UNL     1      13.190  65.659   7.443  1.00  0.00     0.134 C 
HETATM    6  C10 UNL     1      12.172  65.779   8.566  1.00  0.00     0.077 C 
HETATM    7  C11 UNL     1      11.773  64.415   9.059  1.00  0.00     0.023 A 
HETATM    8  N4  UNL     1      11.347  64.335  10.334  1.00  0.00    -0.355 N 
ATOM      9  H4  UNL     1      11.321  65.149  10.948  1.00  0.00     0.166 HD
HETATM   10  C12 UNL     1      10.960  63.124  10.746  1.00  0.00     0.182 A 
HETATM   11  N5  UNL     1      10.966  62.005  10.014  1.00  0.00    -0.338 N 
ATOM     12  H5  UNL     1      10.656  61.114  10.403  1.00  0.00     0.168 HD
HETATM   13  C13 UNL     1      11.399  62.103   8.743  1.00  0.00     0.116 A 
HETATM   14  C20 UNL     1      11.816  63.319   8.206  1.00  0.00     0.026 A 
HETATM   15  C21 UNL     1      12.251  63.452   6.775  1.00  0.00     0.172 C 
HETATM   16  H1  UNL     1      12.750  63.329   4.331  1.00  0.00     0.191 HD
ENDROOT
BRANCH   3  17
HETATM   17  N2  UNL     1      12.531  64.491   2.750  1.00  0.00    -0.307 N 
HETATM   18  C2  UNL     1      13.225  63.645   2.057  1.00  0.00     0.120 C 
ATOM     19  H2  UNL     1      12.065  65.285   2.312  1.00  0.00     0.186 HD
BRANCH  18  20
HETATM   20  C3  UNL     1      13.354  63.705   0.584  1.00  0.00     0.003 A 
HETATM   21  C4  UNL     1      12.579  62.770  -0.126  1.00  0.00     0.017 A 
HETATM   22  C5  UNL     1      12.610  62.739  -1.520  1.00  0.00     0.043 A 
HETATM   23  C6  UNL     1      13.415  63.639  -2.204  1.00  0.00     0.118 A 
HETATM   24  F1  UNL     1      13.446  63.610  -3.542  1.00  0.00    -0.206 F 
HETATM   25  C7  UNL     1      14.193  64.566  -1.522  1.00  0.00     0.066 A 
HETATM   26  C8  UNL     1      14.168  64.604  -0.123  1.00  0.00     0.048 A 
HETATM   27 CL1  UNL     1      15.209  65.763   0.624  1.00  0.00    -0.083 Cl
ENDBRANCH  18  20
ENDBRANCH   3  17
BRANCH  13  28
HETATM   28  N6  UNL     1      11.462  60.939   7.934  1.00  0.00    -0.342 N 
HETATM   29  H11 UNL     1      11.257  61.196   6.973  1.00  0.00     0.167 HD
BRANCH  28  30
HETATM   30  C14 UNL     1      12.430  59.905   7.978  1.00  0.00     0.034 A 
HETATM   31  C15 UNL     1      13.384  59.722   6.969  1.00  0.00     0.029 A 
HETATM   32  C16 UNL     1      14.374  58.741   7.077  1.00  0.00     0.004 A 
HETATM   33  C17 UNL     1      14.442  57.941   8.214  1.00  0.00     0.019 A 
HETATM   34  C18 UNL     1      13.525  58.138   9.242  1.00  0.00     0.013 A 
HETATM   35 BR1  UNL     1      13.625  57.076  10.804  1.00  0.00    -0.051 Br
HETATM   36  C19 UNL     1      12.534  59.119   9.136  1.00  0.00     0.048 A 
ENDBRANCH  28  30
ENDBRANCH  13  28
TORSDOF 4
ENDMDL
