MODEL 1
REMARK minimizedAffinity -7.82866287
REMARK  3 active torsions:
REMARK  status: ('A' for Active; 'I' for Inactive)
REMARK    1  A    between atoms: C4_5  and  C5_6 
REMARK    2  A    between atoms: N2_9  and  C6_10 
REMARK    3  A    between atoms: C12_16  and  C13_17 
ROOT
HETATM    1  C5  UNL     1      13.903  58.821   3.348  1.00  0.00     0.038 C 
HETATM    2  N1  UNL     1      13.356  58.236   2.327  1.00  0.00    -0.301 N 
ATOM      3  H1  UNL     1      12.486  58.508   1.868  1.00  0.00     0.187 HD
HETATM    4  N2  UNL     1      14.161  57.188   1.981  1.00  0.00    -0.283 N 
HETATM    5  C12 UNL     1      15.300  57.009   2.887  1.00  0.00     0.148 C 
HETATM    6  C23 UNL     1      15.224  58.249   3.780  1.00  0.00     0.091 C 
ENDROOT
BRANCH   5   7
HETATM    7  C13 UNL     1      15.240  55.736   3.732  1.00  0.00    -0.022 A 
HETATM    8  C14 UNL     1      13.998  55.282   4.225  1.00  0.00     0.010 A 
HETATM    9  C15 UNL     1      13.907  54.137   5.007  1.00  0.00     0.002 A 
HETATM   10  C16 UNL     1      15.057  53.427   5.327  1.00  0.00     0.012 A 
HETATM   11  C17 UNL     1      16.314  53.852   4.877  1.00  0.00    -0.025 A 
HETATM   12  C18 UNL     1      17.460  53.119   5.228  1.00  0.00     0.012 A 
HETATM   13  C22 UNL     1      16.428  55.019   4.076  1.00  0.00    -0.018 A 
HETATM   14  C19 UNL     1      18.726  53.517   4.808  1.00  0.00     0.001 A 
HETATM   15  C20 UNL     1      18.862  54.656   4.030  1.00  0.00     0.001 A 
HETATM   16  C21 UNL     1      17.732  55.397   3.671  1.00  0.00     0.013 A 
ENDBRANCH   5   7
BRANCH   4  17
HETATM   17  C6  UNL     1      14.002  56.545   0.751  1.00  0.00     0.051 A 
HETATM   18  C7  UNL     1      12.725  56.372   0.189  1.00  0.00     0.031 A 
HETATM   19  C8  UNL     1      12.537  55.729  -1.040  1.00  0.00     0.002 A 
HETATM   20  C9  UNL     1      13.632  55.232  -1.738  1.00  0.00     0.000 A 
HETATM   21  C10 UNL     1      14.907  55.380  -1.206  1.00  0.00     0.002 A 
HETATM   22  C11 UNL     1      15.087  56.027   0.024  1.00  0.00     0.031 A 
ENDBRANCH   4  17
BRANCH   1  23
HETATM   23  C4  UNL     1      13.299  59.993   4.026  1.00  0.00    -0.012 A 
HETATM   24  C3  UNL     1      13.255  61.251   3.416  1.00  0.00     0.015 A 
HETATM   25  C2  UNL     1      12.678  62.335   4.086  1.00  0.00     0.024 A 
HETATM   26  C1  UNL     1      12.144  62.161   5.362  1.00  0.00     0.034 A 
HETATM   27 CL1  UNL     1      11.435  63.496   6.181  1.00  0.00    -0.084 Cl
HETATM   28  C25 UNL     1      12.182  60.912   5.977  1.00  0.00     0.024 A 
HETATM   29  C24 UNL     1      12.759  59.828   5.309  1.00  0.00     0.015 A 
ENDBRANCH   1  23
TORSDOF 3
ENDMDL
MODEL 2
REMARK minimizedAffinity -7.77912331
REMARK  3 active torsions:
REMARK  status: ('A' for Active; 'I' for Inactive)
REMARK    1  A    between atoms: C4_5  and  C5_6 
REMARK    2  A    between atoms: N2_9  and  C6_10 
REMARK    3  A    between atoms: C12_16  and  C13_17 
ROOT
HETATM    1  C5  UNL     1      14.901  57.219   4.895  1.00  0.00     0.038 C 
HETATM    2  N1  UNL     1      13.871  57.661   5.549  1.00  0.00    -0.301 N 
ATOM      3  H1  UNL     1      13.293  57.127   6.199  1.00  0.00     0.187 HD
HETATM    4  N2  UNL     1      13.705  58.972   5.206  1.00  0.00    -0.283 N 
HETATM    5  C12 UNL     1      14.653  59.427   4.183  1.00  0.00     0.148 C 
HETATM    6  C23 UNL     1      15.611  58.241   4.054  1.00  0.00     0.091 C 
ENDROOT
BRANCH   5   7
HETATM    7  C13 UNL     1      14.014  59.750   2.831  1.00  0.00    -0.022 A 
HETATM    8  C14 UNL     1      13.714  61.088   2.502  1.00  0.00     0.010 A 
HETATM    9  C15 UNL     1      13.121  61.416   1.289  1.00  0.00     0.002 A 
HETATM   10  C16 UNL     1      12.802  60.413   0.382  1.00  0.00     0.012 A 
HETATM   11  C17 UNL     1      13.064  59.068   0.676  1.00  0.00    -0.025 A 
HETATM   12  C18 UNL     1      12.719  58.076  -0.257  1.00  0.00     0.012 A 
HETATM   13  C22 UNL     1      13.670  58.712   1.910  1.00  0.00    -0.018 A 
HETATM   14  C19 UNL     1      12.954  56.729   0.005  1.00  0.00     0.001 A 
HETATM   15  C20 UNL     1      13.539  56.357   1.206  1.00  0.00     0.001 A 
HETATM   16  C21 UNL     1      13.890  57.332   2.144  1.00  0.00     0.013 A 
ENDBRANCH   5   7
BRANCH   4  17
HETATM   17  C6  UNL     1      12.869  59.803   5.955  1.00  0.00     0.051 A 
HETATM   18  C7  UNL     1      12.596  59.521   7.305  1.00  0.00     0.031 A 
HETATM   19  C8  UNL     1      11.759  60.335   8.078  1.00  0.00     0.002 A 
HETATM   20  C9  UNL     1      11.165  61.457   7.511  1.00  0.00     0.000 A 
HETATM   21  C10 UNL     1      11.409  61.759   6.176  1.00  0.00     0.002 A 
HETATM   22  C11 UNL     1      12.249  60.940   5.410  1.00  0.00     0.031 A 
ENDBRANCH   4  17
BRANCH   1  23
HETATM   23  C4  UNL     1      15.376  55.818   4.989  1.00  0.00    -0.012 A 
HETATM   24  C3  UNL     1      14.483  54.744   5.082  1.00  0.00     0.015 A 
HETATM   25  C2  UNL     1      14.968  53.435   5.169  1.00  0.00     0.024 A 
HETATM   26  C1  UNL     1      16.341  53.198   5.162  1.00  0.00     0.034 A 
HETATM   27 CL1  UNL     1      16.931  51.587   5.269  1.00  0.00    -0.084 Cl
HETATM   28  C25 UNL     1      17.238  54.260   5.068  1.00  0.00     0.024 A 
HETATM   29  C24 UNL     1      16.756  55.569   4.981  1.00  0.00     0.015 A 
ENDBRANCH   1  23
TORSDOF 3
ENDMDL
MODEL 3
REMARK minimizedAffinity -7.67068958
REMARK  3 active torsions:
REMARK  status: ('A' for Active; 'I' for Inactive)
REMARK    1  A    between atoms: C4_5  and  C5_6 
REMARK    2  A    between atoms: N2_9  and  C6_10 
REMARK    3  A    between atoms: C12_16  and  C13_17 
ROOT
HETATM    1  C5  UNL     1      13.548  58.715   5.511  1.00  0.00     0.038 C 
HETATM    2  N1  UNL     1      12.950  58.450   4.390  1.00  0.00    -0.301 N 
ATOM      3  H1  UNL     1      11.993  58.700   4.141  1.00  0.00     0.187 HD
HETATM    4  N2  UNL     1      13.841  57.773   3.606  1.00  0.00    -0.283 N 
HETATM    5  C12 UNL     1      15.113  57.496   4.282  1.00  0.00     0.148 C 
HETATM    6  C23 UNL     1      14.987  58.286   5.586  1.00  0.00     0.091 C 
ENDROOT
BRANCH   5   7
HETATM    7  C13 UNL     1      15.361  56.015   4.575  1.00  0.00    -0.022 A 
HETATM    8  C14 UNL     1      14.295  55.201   5.010  1.00  0.00     0.010 A 
HETATM    9  C15 UNL     1      14.487  53.855   5.299  1.00  0.00     0.002 A 
HETATM   10  C16 UNL     1      15.752  53.296   5.173  1.00  0.00     0.012 A 
HETATM   11  C17 UNL     1      16.845  54.072   4.764  1.00  0.00    -0.025 A 
HETATM   12  C18 UNL     1      18.114  53.479   4.658  1.00  0.00     0.012 A 
HETATM   13  C22 UNL     1      16.669  55.449   4.463  1.00  0.00    -0.018 A 
HETATM   14  C19 UNL     1      19.224  54.222   4.264  1.00  0.00     0.001 A 
HETATM   15  C20 UNL     1      19.078  55.569   3.972  1.00  0.00     0.001 A 
HETATM   16  C21 UNL     1      17.821  56.174   4.071  1.00  0.00     0.013 A 
ENDBRANCH   5   7
BRANCH   4  17
HETATM   17  C6  UNL     1      13.601  57.605   2.240  1.00  0.00     0.051 A 
HETATM   18  C7  UNL     1      13.227  58.695   1.436  1.00  0.00     0.031 A 
HETATM   19  C8  UNL     1      12.978  58.554   0.066  1.00  0.00     0.002 A 
HETATM   20  C9  UNL     1      13.092  57.307  -0.536  1.00  0.00     0.000 A 
HETATM   21  C10 UNL     1      13.454  56.207   0.234  1.00  0.00     0.002 A 
HETATM   22  C11 UNL     1      13.703  56.357   1.604  1.00  0.00     0.031 A 
ENDBRANCH   4  17
BRANCH   1  23
HETATM   23  C4  UNL     1      12.884  59.421   6.633  1.00  0.00    -0.012 A 
HETATM   24  C3  UNL     1      13.074  59.030   7.963  1.00  0.00     0.015 A 
HETATM   25  C2  UNL     1      12.431  59.720   8.995  1.00  0.00     0.024 A 
HETATM   26  C1  UNL     1      11.600  60.800   8.700  1.00  0.00     0.034 A 
HETATM   27 CL1  UNL     1      10.812  61.645   9.974  1.00  0.00    -0.084 Cl
HETATM   28  C25 UNL     1      11.405  61.198   7.380  1.00  0.00     0.024 A 
HETATM   29  C24 UNL     1      12.046  60.509   6.347  1.00  0.00     0.015 A 
ENDBRANCH   1  23
TORSDOF 3
ENDMDL
MODEL 4
REMARK minimizedAffinity -7.6048069
REMARK  3 active torsions:
REMARK  status: ('A' for Active; 'I' for Inactive)
REMARK    1  A    between atoms: C4_5  and  C5_6 
REMARK    2  A    between atoms: N2_9  and  C6_10 
REMARK    3  A    between atoms: C12_16  and  C13_17 
ROOT
HETATM    1  C5  UNL     1      14.295  58.909   2.914  1.00  0.00     0.038 C 
HETATM    2  N1  UNL     1      13.710  58.037   2.153  1.00  0.00    -0.301 N 
ATOM      3  H1  UNL     1      12.704  57.930   2.017  1.00  0.00     0.187 HD
HETATM    4  N2  UNL     1      14.690  57.287   1.567  1.00  0.00    -0.283 N 
HETATM    5  C12 UNL     1      16.038  57.635   2.029  1.00  0.00     0.148 C 
HETATM    6  C23 UNL     1      15.797  58.888   2.875  1.00  0.00     0.091 C 
ENDROOT
BRANCH   5   7
HETATM    7  C13 UNL     1      16.719  56.549   2.863  1.00  0.00    -0.022 A 
HETATM    8  C14 UNL     1      18.120  56.396   2.802  1.00  0.00     0.010 A 
HETATM    9  C15 UNL     1      18.770  55.411   3.535  1.00  0.00     0.002 A 
HETATM   10  C16 UNL     1      18.033  54.546   4.334  1.00  0.00     0.012 A 
HETATM   11  C17 UNL     1      16.638  54.647   4.409  1.00  0.00    -0.025 A 
HETATM   12  C18 UNL     1      15.921  53.750   5.218  1.00  0.00     0.012 A 
HETATM   13  C22 UNL     1      15.955  55.649   3.669  1.00  0.00    -0.018 A 
HETATM   14  C19 UNL     1      14.533  53.814   5.308  1.00  0.00     0.001 A 
HETATM   15  C20 UNL     1      13.844  54.779   4.589  1.00  0.00     0.001 A 
HETATM   16  C21 UNL     1      14.543  55.681   3.781  1.00  0.00     0.013 A 
ENDBRANCH   5   7
BRANCH   4  17
HETATM   17  C6  UNL     1      14.400  56.464   0.477  1.00  0.00     0.051 A 
HETATM   18  C7  UNL     1      13.070  56.204   0.105  1.00  0.00     0.031 A 
HETATM   19  C8  UNL     1      12.752  55.380  -0.981  1.00  0.00     0.002 A 
HETATM   20  C9  UNL     1      13.766  54.786  -1.723  1.00  0.00     0.000 A 
HETATM   21  C10 UNL     1      15.092  55.017  -1.376  1.00  0.00     0.002 A 
HETATM   22  C11 UNL     1      15.402  55.844  -0.289  1.00  0.00     0.031 A 
ENDBRANCH   4  17
BRANCH   1  23
HETATM   23  C4  UNL     1      13.549  59.888   3.741  1.00  0.00    -0.012 A 
HETATM   24  C3  UNL     1      13.349  61.206   3.316  1.00  0.00     0.015 A 
HETATM   25  C2  UNL     1      12.640  62.103   4.123  1.00  0.00     0.024 A 
HETATM   26  C1  UNL     1      12.131  61.683   5.351  1.00  0.00     0.034 A 
HETATM   27 CL1  UNL     1      11.260  62.789   6.338  1.00  0.00    -0.084 Cl
HETATM   28  C25 UNL     1      12.324  60.372   5.782  1.00  0.00     0.024 A 
HETATM   29  C24 UNL     1      13.032  59.475   4.978  1.00  0.00     0.015 A 
ENDBRANCH   1  23
TORSDOF 3
ENDMDL
MODEL 5
REMARK minimizedAffinity -7.54407501
REMARK  3 active torsions:
REMARK  status: ('A' for Active; 'I' for Inactive)
REMARK    1  A    between atoms: C4_5  and  C5_6 
REMARK    2  A    between atoms: N2_9  and  C6_10 
REMARK    3  A    between atoms: C12_16  and  C13_17 
ROOT
HETATM    1  C5  UNL     1       6.690  63.733  -5.630  1.00  0.00     0.038 C 
HETATM    2  N1  UNL     1       5.633  63.785  -4.880  1.00  0.00    -0.301 N 
ATOM      3  H1  UNL     1       5.331  63.078  -4.209  1.00  0.00     0.187 HD
HETATM    4  N2  UNL     1       4.997  64.963  -5.156  1.00  0.00    -0.283 N 
HETATM    5  C12 UNL     1       5.639  65.729  -6.230  1.00  0.00     0.148 C 
HETATM    6  C23 UNL     1       6.931  64.948  -6.481  1.00  0.00     0.091 C 
ENDROOT
BRANCH   5   7
HETATM    7  C13 UNL     1       4.814  65.826  -7.514  1.00  0.00    -0.022 A 
HETATM    8  C14 UNL     1       3.435  66.111  -7.438  1.00  0.00     0.010 A 
HETATM    9  C15 UNL     1       2.652  66.194  -8.583  1.00  0.00     0.002 A 
HETATM   10  C16 UNL     1       3.226  65.979  -9.830  1.00  0.00     0.012 A 
HETATM   11  C17 UNL     1       4.588  65.673  -9.951  1.00  0.00    -0.025 A 
HETATM   12  C18 UNL     1       5.136  65.449 -11.225  1.00  0.00     0.012 A 
HETATM   13  C22 UNL     1       5.406  65.585  -8.793  1.00  0.00    -0.018 A 
HETATM   14  C19 UNL     1       6.483  65.133 -11.383  1.00  0.00     0.001 A 
HETATM   15  C20 UNL     1       7.299  65.035 -10.266  1.00  0.00     0.001 A 
HETATM   16  C21 UNL     1       6.769  65.256  -8.992  1.00  0.00     0.013 A 
ENDBRANCH   5   7
BRANCH   4  17
HETATM   17  C6  UNL     1       3.995  65.445  -4.311  1.00  0.00     0.051 A 
HETATM   18  C7  UNL     1       3.475  66.740  -4.479  1.00  0.00     0.031 A 
HETATM   19  C8  UNL     1       2.473  67.250  -3.645  1.00  0.00     0.002 A 
HETATM   20  C9  UNL     1       1.969  66.472  -2.609  1.00  0.00     0.000 A 
HETATM   21  C10 UNL     1       2.469  65.190  -2.411  1.00  0.00     0.002 A 
HETATM   22  C11 UNL     1       3.470  64.686  -3.251  1.00  0.00     0.031 A 
ENDBRANCH   4  17
BRANCH   1  23
HETATM   23  C4  UNL     1       7.624  62.582  -5.630  1.00  0.00    -0.012 A 
HETATM   24  C3  UNL     1       9.007  62.758  -5.746  1.00  0.00     0.015 A 
HETATM   25  C2  UNL     1       9.858  61.647  -5.742  1.00  0.00     0.024 A 
HETATM   26  C1  UNL     1       9.328  60.364  -5.623  1.00  0.00     0.034 A 
HETATM   27 CL1  UNL     1      10.378  59.003  -5.619  1.00  0.00    -0.084 Cl
HETATM   28  C25 UNL     1       7.952  60.178  -5.506  1.00  0.00     0.024 A 
HETATM   29  C24 UNL     1       7.101  61.286  -5.509  1.00  0.00     0.015 A 
ENDBRANCH   1  23
TORSDOF 3
ENDMDL
MODEL 6
REMARK minimizedAffinity -7.51501513
REMARK  3 active torsions:
REMARK  status: ('A' for Active; 'I' for Inactive)
REMARK    1  A    between atoms: C4_5  and  C5_6 
REMARK    2  A    between atoms: N2_9  and  C6_10 
REMARK    3  A    between atoms: C12_16  and  C13_17 
ROOT
HETATM    1  C5  UNL     1       3.675  65.969  -5.103  1.00  0.00     0.038 C 
HETATM    2  N1  UNL     1       3.623  66.831  -4.135  1.00  0.00    -0.301 N 
ATOM      3  H1  UNL     1       4.419  67.236  -3.642  1.00  0.00     0.187 HD
HETATM    4  N2  UNL     1       2.304  67.095  -3.897  1.00  0.00    -0.283 N 
HETATM    5  C12 UNL     1       1.395  66.290  -4.722  1.00  0.00     0.148 C 
HETATM    6  C23 UNL     1       2.346  65.590  -5.695  1.00  0.00     0.091 C 
ENDROOT
BRANCH   5   7
HETATM    7  C13 UNL     1       0.578  65.263  -3.938  1.00  0.00    -0.022 A 
HETATM    8  C14 UNL     1       1.185  64.062  -3.515  1.00  0.00     0.010 A 
HETATM    9  C15 UNL     1       0.469  63.100  -2.813  1.00  0.00     0.002 A 
HETATM   10  C16 UNL     1      -0.875  63.309  -2.530  1.00  0.00     0.012 A 
HETATM   11  C17 UNL     1      -1.524  64.478  -2.949  1.00  0.00    -0.025 A 
HETATM   12  C18 UNL     1      -2.887  64.655  -2.657  1.00  0.00     0.012 A 
HETATM   13  C22 UNL     1      -0.810  65.474  -3.666  1.00  0.00    -0.018 A 
HETATM   14  C19 UNL     1      -3.568  65.798  -3.066  1.00  0.00     0.001 A 
HETATM   15  C20 UNL     1      -2.893  66.781  -3.773  1.00  0.00     0.001 A 
HETATM   16  C21 UNL     1      -1.536  66.621  -4.070  1.00  0.00     0.013 A 
ENDBRANCH   5   7
BRANCH   4  17
HETATM   17  C6  UNL     1       1.927  68.193  -3.120  1.00  0.00     0.051 A 
HETATM   18  C7  UNL     1       1.304  68.011  -1.874  1.00  0.00     0.031 A 
HETATM   19  C8  UNL     1       0.913  69.094  -1.076  1.00  0.00     0.002 A 
HETATM   20  C9  UNL     1       1.132  70.394  -1.515  1.00  0.00     0.000 A 
HETATM   21  C10 UNL     1       1.739  70.607  -2.747  1.00  0.00     0.002 A 
HETATM   22  C11 UNL     1       2.129  69.519  -3.538  1.00  0.00     0.031 A 
ENDBRANCH   4  17
BRANCH   1  23
HETATM   23  C4  UNL     1       4.948  65.417  -5.625  1.00  0.00    -0.012 A 
HETATM   24  C3  UNL     1       5.418  65.738  -6.904  1.00  0.00     0.015 A 
HETATM   25  C2  UNL     1       6.624  65.198  -7.363  1.00  0.00     0.024 A 
HETATM   26  C1  UNL     1       7.359  64.340  -6.546  1.00  0.00     0.034 A 
HETATM   27 CL1  UNL     1       8.841  63.680  -7.116  1.00  0.00    -0.084 Cl
HETATM   28  C25 UNL     1       6.900  64.015  -5.272  1.00  0.00     0.024 A 
HETATM   29  C24 UNL     1       5.696  64.554  -4.812  1.00  0.00     0.015 A 
ENDBRANCH   1  23
TORSDOF 3
ENDMDL
MODEL 7
REMARK minimizedAffinity -7.49402332
REMARK  3 active torsions:
REMARK  status: ('A' for Active; 'I' for Inactive)
REMARK    1  A    between atoms: C4_5  and  C5_6 
REMARK    2  A    between atoms: N2_9  and  C6_10 
REMARK    3  A    between atoms: C12_16  and  C13_17 
ROOT
HETATM    1  C5  UNL     1      14.739  57.432   4.334  1.00  0.00     0.038 C 
HETATM    2  N1  UNL     1      13.746  57.954   4.985  1.00  0.00    -0.301 N 
ATOM      3  H1  UNL     1      13.205  57.505   5.725  1.00  0.00     0.187 HD
HETATM    4  N2  UNL     1      13.558  59.215   4.497  1.00  0.00    -0.283 N 
HETATM    5  C12 UNL     1      14.449  59.540   3.376  1.00  0.00     0.148 C 
HETATM    6  C23 UNL     1      15.401  58.343   3.339  1.00  0.00     0.091 C 
ENDROOT
BRANCH   5   7
HETATM    7  C13 UNL     1      13.737  59.701   2.032  1.00  0.00    -0.022 A 
HETATM    8  C14 UNL     1      13.339  58.556   1.311  1.00  0.00     0.010 A 
HETATM    9  C15 UNL     1      12.703  58.665   0.080  1.00  0.00     0.002 A 
HETATM   10  C16 UNL     1      12.463  59.920  -0.465  1.00  0.00     0.012 A 
HETATM   11  C17 UNL     1      12.859  61.084   0.207  1.00  0.00    -0.025 A 
HETATM   12  C18 UNL     1      12.612  62.338  -0.376  1.00  0.00     0.012 A 
HETATM   13  C22 UNL     1      13.509  60.994   1.467  1.00  0.00    -0.018 A 
HETATM   14  C19 UNL     1      13.000  63.515   0.258  1.00  0.00     0.001 A 
HETATM   15  C20 UNL     1      13.643  63.452   1.485  1.00  0.00     0.001 A 
HETATM   16  C21 UNL     1      13.895  62.212   2.080  1.00  0.00     0.013 A 
ENDBRANCH   5   7
BRANCH   4  17
HETATM   17  C6  UNL     1      12.762  60.134   5.185  1.00  0.00     0.051 A 
HETATM   18  C7  UNL     1      12.220  59.816   6.442  1.00  0.00     0.031 A 
HETATM   19  C8  UNL     1      11.417  60.717   7.151  1.00  0.00     0.002 A 
HETATM   20  C9  UNL     1      11.129  61.965   6.611  1.00  0.00     0.000 A 
HETATM   21  C10 UNL     1      11.643  62.307   5.366  1.00  0.00     0.002 A 
HETATM   22  C11 UNL     1      12.448  61.401   4.663  1.00  0.00     0.031 A 
ENDBRANCH   4  17
BRANCH   1  23
HETATM   23  C4  UNL     1      15.222  56.050   4.569  1.00  0.00    -0.012 A 
HETATM   24  C3  UNL     1      14.351  55.023   4.951  1.00  0.00     0.015 A 
HETATM   25  C2  UNL     1      14.842  53.731   5.165  1.00  0.00     0.024 A 
HETATM   26  C1  UNL     1      16.200  53.465   4.997  1.00  0.00     0.034 A 
HETATM   27 CL1  UNL     1      16.798  51.874   5.260  1.00  0.00    -0.084 Cl
HETATM   28  C25 UNL     1      17.075  54.480   4.616  1.00  0.00     0.024 A 
HETATM   29  C24 UNL     1      16.586  55.772   4.402  1.00  0.00     0.015 A 
ENDBRANCH   1  23
TORSDOF 3
ENDMDL
MODEL 8
REMARK minimizedAffinity -7.42873478
REMARK  3 active torsions:
REMARK  status: ('A' for Active; 'I' for Inactive)
REMARK    1  A    between atoms: C4_5  and  C5_6 
REMARK    2  A    between atoms: N2_9  and  C6_10 
REMARK    3  A    between atoms: C12_16  and  C13_17 
ROOT
HETATM    1  C5  UNL     1      13.817  60.784   3.942  1.00  0.00     0.038 C 
HETATM    2  N1  UNL     1      13.706  59.526   3.645  1.00  0.00    -0.301 N 
ATOM      3  H1  UNL     1      13.505  59.138   2.722  1.00  0.00     0.187 HD
HETATM    4  N2  UNL     1      13.905  58.818   4.795  1.00  0.00    -0.283 N 
HETATM    5  C12 UNL     1      14.092  59.670   5.975  1.00  0.00     0.148 C 
HETATM    6  C23 UNL     1      14.184  61.073   5.371  1.00  0.00     0.091 C 
ENDROOT
BRANCH   5   7
HETATM    7  C13 UNL     1      12.952  59.598   6.991  1.00  0.00    -0.022 A 
HETATM    8  C14 UNL     1      11.725  60.234   6.711  1.00  0.00     0.010 A 
HETATM    9  C15 UNL     1      10.672  60.200   7.617  1.00  0.00     0.002 A 
HETATM   10  C16 UNL     1      10.827  59.544   8.831  1.00  0.00     0.012 A 
HETATM   11  C17 UNL     1      12.036  58.916   9.161  1.00  0.00    -0.025 A 
HETATM   12  C18 UNL     1      12.164  58.271  10.402  1.00  0.00     0.012 A 
HETATM   13  C22 UNL     1      13.123  58.938   8.248  1.00  0.00    -0.018 A 
HETATM   14  C19 UNL     1      13.354  57.646  10.768  1.00  0.00     0.001 A 
HETATM   15  C20 UNL     1      14.431  57.660   9.895  1.00  0.00     0.001 A 
HETATM   16  C21 UNL     1      14.319  58.297   8.656  1.00  0.00     0.013 A 
ENDBRANCH   5   7
BRANCH   4  17
HETATM   17  C6  UNL     1      14.139  57.441   4.752  1.00  0.00     0.051 A 
HETATM   18  C7  UNL     1      13.383  56.610   3.908  1.00  0.00     0.031 A 
HETATM   19  C8  UNL     1      13.593  55.227   3.848  1.00  0.00     0.002 A 
HETATM   20  C9  UNL     1      14.570  54.638   4.643  1.00  0.00     0.000 A 
HETATM   21  C10 UNL     1      15.329  55.432   5.494  1.00  0.00     0.002 A 
HETATM   22  C11 UNL     1      15.114  56.815   5.547  1.00  0.00     0.031 A 
ENDBRANCH   4  17
BRANCH   1  23
HETATM   23  C4  UNL     1      13.635  61.868   2.947  1.00  0.00    -0.012 A 
HETATM   24  C3  UNL     1      13.762  63.216   3.300  1.00  0.00     0.015 A 
HETATM   25  C2  UNL     1      13.583  64.213   2.334  1.00  0.00     0.024 A 
HETATM   26  C1  UNL     1      13.280  63.863   1.019  1.00  0.00     0.034 A 
HETATM   27 CL1  UNL     1      13.062  65.092  -0.163  1.00  0.00    -0.084 Cl
HETATM   28  C25 UNL     1      13.153  62.523   0.659  1.00  0.00     0.024 A 
HETATM   29  C24 UNL     1      13.331  61.527   1.622  1.00  0.00     0.015 A 
ENDBRANCH   1  23
TORSDOF 3
ENDMDL
MODEL 9
REMARK minimizedAffinity -7.3894124
REMARK  3 active torsions:
REMARK  status: ('A' for Active; 'I' for Inactive)
REMARK    1  A    between atoms: C4_5  and  C5_6 
REMARK    2  A    between atoms: N2_9  and  C6_10 
REMARK    3  A    between atoms: C12_16  and  C13_17 
ROOT
HETATM    1  C5  UNL     1       3.418  65.358  -4.953  1.00  0.00     0.038 C 
HETATM    2  N1  UNL     1       2.336  65.554  -5.642  1.00  0.00    -0.301 N 
ATOM      3  H1  UNL     1       2.269  65.617  -6.658  1.00  0.00     0.187 HD
HETATM    4  N2  UNL     1       1.304  65.662  -4.754  1.00  0.00    -0.283 N 
HETATM    5  C12 UNL     1       1.738  65.608  -3.353  1.00  0.00     0.148 C 
HETATM    6  C23 UNL     1       3.219  65.241  -3.468  1.00  0.00     0.091 C 
ENDROOT
BRANCH   5   7
HETATM    7  C13 UNL     1       1.570  66.923  -2.590  1.00  0.00    -0.022 A 
HETATM    8  C14 UNL     1       1.095  66.904  -1.262  1.00  0.00     0.010 A 
HETATM    9  C15 UNL     1       0.917  68.080  -0.544  1.00  0.00     0.002 A 
HETATM   10  C16 UNL     1       1.196  69.303  -1.141  1.00  0.00     0.012 A 
HETATM   11  C17 UNL     1       1.651  69.371  -2.464  1.00  0.00    -0.025 A 
HETATM   12  C18 UNL     1       1.914  70.623  -3.043  1.00  0.00     0.012 A 
HETATM   13  C22 UNL     1       1.841  68.180  -3.215  1.00  0.00    -0.018 A 
HETATM   14  C19 UNL     1       2.357  70.729  -4.359  1.00  0.00     0.001 A 
HETATM   15  C20 UNL     1       2.543  69.581  -5.113  1.00  0.00     0.001 A 
HETATM   16  C21 UNL     1       2.288  68.326  -4.552  1.00  0.00     0.013 A 
ENDBRANCH   5   7
BRANCH   4  17
HETATM   17  C6  UNL     1      -0.021  65.585  -5.189  1.00  0.00     0.051 A 
HETATM   18  C7  UNL     1      -0.341  64.971  -6.412  1.00  0.00     0.031 A 
HETATM   19  C8  UNL     1      -1.659  64.884  -6.874  1.00  0.00     0.002 A 
HETATM   20  C9  UNL     1      -2.697  65.418  -6.119  1.00  0.00     0.000 A 
HETATM   21  C10 UNL     1      -2.412  66.039  -4.909  1.00  0.00     0.002 A 
HETATM   22  C11 UNL     1      -1.090  66.121  -4.452  1.00  0.00     0.031 A 
ENDBRANCH   4  17
BRANCH   1  23
HETATM   23  C4  UNL     1       4.757  65.219  -5.576  1.00  0.00    -0.012 A 
HETATM   24  C3  UNL     1       5.794  64.527  -4.940  1.00  0.00     0.015 A 
HETATM   25  C2  UNL     1       7.044  64.416  -5.557  1.00  0.00     0.024 A 
HETATM   26  C1  UNL     1       7.258  64.995  -6.807  1.00  0.00     0.034 A 
HETATM   27 CL1  UNL     1       8.797  64.855  -7.561  1.00  0.00    -0.084 Cl
HETATM   28  C25 UNL     1       6.232  65.685  -7.448  1.00  0.00     0.024 A 
HETATM   29  C24 UNL     1       4.982  65.797  -6.833  1.00  0.00     0.015 A 
ENDBRANCH   1  23
TORSDOF 3
ENDMDL
