MODEL 1
REMARK minimizedAffinity -9.8369875
REMARK  7 active torsions:
REMARK  status: ('A' for Active; 'I' for Inactive)
REMARK    1  A    between atoms: C2_2  and  C3_3 
REMARK       I    between atoms: C3_3  and  N1_5 
REMARK    2  A    between atoms: N1_5  and  C4_6 
REMARK    3  A    between atoms: C7_9  and  N2_10 
REMARK    4  A    between atoms: C8_13  and  C9_14 
REMARK    5  A    between atoms: C12_17  and  O2_18 
REMARK    6  A    between atoms: O2_18  and  C13_19 
REMARK    7  A    between atoms: C22_28  and  N4_29 
ROOT
HETATM    1  N2  UNL     1       7.643  -6.033  29.008  1.00  0.00    -0.270 N 
HETATM    2  N3  UNL     1       6.353  -6.304  29.287  1.00  0.00    -0.295 N 
ATOM      3  H3  UNL     1       5.854  -6.134  30.160  1.00  0.00     0.187 HD
HETATM    4  C8  UNL     1       5.872  -6.849  28.156  1.00  0.00     0.075 A 
HETATM    5  C21 UNL     1       6.897  -6.982  27.170  1.00  0.00     0.076 A 
HETATM    6  C22 UNL     1       7.055  -7.491  25.876  1.00  0.00     0.095 A 
HETATM    7  N5  UNL     1       8.263  -7.392  25.283  1.00  0.00    -0.342 N 
ATOM      8  H5  UNL     1       8.411  -7.748  24.339  1.00  0.00     0.167 HD
HETATM    9  C23 UNL     1       9.271  -6.811  25.963  1.00  0.00     0.183 A 
HETATM   10  N6  UNL     1       9.244  -6.308  27.205  1.00  0.00    -0.337 N 
ATOM     11  H6  UNL     1      10.047  -5.888  27.673  1.00  0.00     0.168 HD
HETATM   12  C24 UNL     1       8.023  -6.429  27.756  1.00  0.00     0.139 A 
ENDROOT
BRANCH   4  13
HETATM   13  C9  UNL     1       4.463  -7.225  28.071  1.00  0.00    -0.007 A 
HETATM   14  C10 UNL     1       3.470  -6.314  28.459  1.00  0.00     0.016 A 
HETATM   15  C11 UNL     1       2.119  -6.658  28.373  1.00  0.00     0.038 A 
HETATM   16  C12 UNL     1       1.749  -7.919  27.901  1.00  0.00     0.076 A 
HETATM   17  C19 UNL     1       2.727  -8.822  27.483  1.00  0.00     0.038 A 
HETATM   18  C20 UNL     1       4.080  -8.477  27.570  1.00  0.00     0.016 A 
BRANCH  16  19
HETATM   19  O2  UNL     1       0.396  -8.162  27.802  1.00  0.00    -0.311 OA
BRANCH  19  20
HETATM   20  C13 UNL     1      -0.022  -9.463  27.940  1.00  0.00     0.076 A 
HETATM   21  C14 UNL     1       0.529 -10.502  27.184  1.00  0.00     0.037 A 
HETATM   22  C15 UNL     1       0.091 -11.812  27.390  1.00  0.00     0.003 A 
HETATM   23  C16 UNL     1      -0.879 -12.081  28.359  1.00  0.00     0.000 A 
HETATM   24  C17 UNL     1      -1.409 -11.043  29.128  1.00  0.00     0.003 A 
HETATM   25  C18 UNL     1      -0.974  -9.734  28.925  1.00  0.00     0.037 A 
ENDBRANCH  19  20
ENDBRANCH  16  19
ENDBRANCH   4  13
BRANCH   1  26
HETATM   26  C7  UNL     1       8.489  -5.387  30.005  1.00  0.00     0.110 C 
HETATM   27  C6  UNL     1       7.658  -4.734  31.121  1.00  0.00     0.029 C 
HETATM   28  C5  UNL     1       8.552  -4.057  32.157  1.00  0.00     0.027 C 
HETATM   29  C4  UNL     1       9.580  -5.034  32.740  1.00  0.00     0.084 C 
HETATM   30  C26 UNL     1      10.410  -5.685  31.626  1.00  0.00     0.027 C 
HETATM   31  C25 UNL     1       9.523  -6.364  30.583  1.00  0.00     0.029 C 
BRANCH  29  32
HETATM   32  N1  UNL     1      10.444  -4.346  33.689  1.00  0.00    -0.353 N 
HETATM   33  C3  UNL     1      11.232  -3.286  33.305  1.00  0.00     0.240 C 
HETATM   34  O1  UNL     1      11.335  -2.883  32.155  1.00  0.00    -0.269 OA
HETATM   35  H4  UNL     1      10.328  -4.542  34.674  1.00  0.00     0.163 HD
BRANCH  33  36
HETATM   36  C2  UNL     1      11.948  -2.659  34.444  1.00  0.00     0.064 C 
HETATM   37  C1  UNL     1      12.362  -3.405  35.475  1.00  0.00     0.017 C 
ENDBRANCH  33  36
ENDBRANCH  29  32
ENDBRANCH   1  26
BRANCH   6  38
HETATM   38  N4  UNL     1       6.062  -8.124  25.142  1.00  0.00    -0.288 NA
HETATM   39  H20 UNL     1       6.464  -8.638  24.367  1.00  0.00     0.125 HD
HETATM   40  H21 UNL     1       5.369  -8.621  25.689  1.00  0.00     0.125 HD
ENDBRANCH   6  38
TORSDOF 7
ENDMDL
MODEL 2
REMARK minimizedAffinity -9.55173397
REMARK  7 active torsions:
REMARK  status: ('A' for Active; 'I' for Inactive)
REMARK    1  A    between atoms: C2_2  and  C3_3 
REMARK       I    between atoms: C3_3  and  N1_5 
REMARK    2  A    between atoms: N1_5  and  C4_6 
REMARK    3  A    between atoms: C7_9  and  N2_10 
REMARK    4  A    between atoms: C8_13  and  C9_14 
REMARK    5  A    between atoms: C12_17  and  O2_18 
REMARK    6  A    between atoms: O2_18  and  C13_19 
REMARK    7  A    between atoms: C22_28  and  N4_29 
ROOT
HETATM    1  N2  UNL     1       7.779  -5.943  29.046  1.00  0.00    -0.270 N 
HETATM    2  N3  UNL     1       6.500  -6.261  29.328  1.00  0.00    -0.295 N 
ATOM      3  H3  UNL     1       6.002  -6.126  30.207  1.00  0.00     0.187 HD
HETATM    4  C8  UNL     1       6.029  -6.797  28.188  1.00  0.00     0.075 A 
HETATM    5  C21 UNL     1       7.051  -6.877  27.194  1.00  0.00     0.076 A 
HETATM    6  C22 UNL     1       7.215  -7.353  25.887  1.00  0.00     0.095 A 
HETATM    7  N5  UNL     1       8.416  -7.202  25.290  1.00  0.00    -0.342 N 
ATOM      8  H5  UNL     1       8.569  -7.534  24.337  1.00  0.00     0.167 HD
HETATM    9  C23 UNL     1       9.409  -6.605  25.976  1.00  0.00     0.183 A 
HETATM   10  N6  UNL     1       9.375  -6.129  27.229  1.00  0.00    -0.337 N 
ATOM     11  H6  UNL     1      10.168  -5.693  27.700  1.00  0.00     0.168 HD
HETATM   12  C24 UNL     1       8.163  -6.300  27.784  1.00  0.00     0.139 A 
ENDROOT
BRANCH   4  13
HETATM   13  C9  UNL     1       4.631  -7.216  28.104  1.00  0.00    -0.007 A 
HETATM   14  C10 UNL     1       3.609  -6.314  28.431  1.00  0.00     0.016 A 
HETATM   15  C11 UNL     1       2.269  -6.700  28.344  1.00  0.00     0.038 A 
HETATM   16  C12 UNL     1       1.940  -7.993  27.934  1.00  0.00     0.076 A 
HETATM   17  C19 UNL     1       2.948  -8.889  27.576  1.00  0.00     0.038 A 
HETATM   18  C20 UNL     1       4.290  -8.502  27.663  1.00  0.00     0.016 A 
BRANCH  16  19
HETATM   19  O2  UNL     1       0.596  -8.278  27.829  1.00  0.00    -0.311 OA
BRANCH  19  20
HETATM   20  C13 UNL     1       0.127  -8.664  26.597  1.00  0.00     0.076 A 
HETATM   21  C14 UNL     1      -0.927  -9.570  26.456  1.00  0.00     0.037 A 
HETATM   22  C15 UNL     1      -1.387  -9.901  25.181  1.00  0.00     0.003 A 
HETATM   23  C16 UNL     1      -0.807  -9.313  24.053  1.00  0.00     0.000 A 
HETATM   24  C17 UNL     1       0.230  -8.390  24.199  1.00  0.00     0.003 A 
HETATM   25  C18 UNL     1       0.692  -8.058  25.473  1.00  0.00     0.037 A 
ENDBRANCH  19  20
ENDBRANCH  16  19
ENDBRANCH   4  13
BRANCH   1  26
HETATM   26  C7  UNL     1       8.610  -5.293  30.052  1.00  0.00     0.110 C 
HETATM   27  C6  UNL     1       7.764  -4.559  31.104  1.00  0.00     0.029 C 
HETATM   28  C5  UNL     1       8.643  -3.876  32.150  1.00  0.00     0.027 C 
HETATM   29  C4  UNL     1       9.603  -4.871  32.815  1.00  0.00     0.084 C 
HETATM   30  C26 UNL     1      10.448  -5.603  31.765  1.00  0.00     0.027 C 
HETATM   31  C25 UNL     1       9.576  -6.287  30.712  1.00  0.00     0.029 C 
BRANCH  29  32
HETATM   32  N1  UNL     1      10.456  -4.180  33.772  1.00  0.00    -0.353 N 
HETATM   33  C3  UNL     1      11.339  -3.203  33.372  1.00  0.00     0.240 C 
HETATM   34  O1  UNL     1      11.537  -2.886  32.208  1.00  0.00    -0.269 OA
HETATM   35  H4  UNL     1      10.269  -4.301  34.757  1.00  0.00     0.163 HD
BRANCH  33  36
HETATM   36  C2  UNL     1      12.030  -2.551  34.513  1.00  0.00     0.064 C 
HETATM   37  C1  UNL     1      12.516  -3.287  35.519  1.00  0.00     0.017 C 
ENDBRANCH  33  36
ENDBRANCH  29  32
ENDBRANCH   1  26
BRANCH   6  38
HETATM   38  N4  UNL     1       6.238  -8.001  25.147  1.00  0.00    -0.288 NA
HETATM   39  H20 UNL     1       6.651  -8.486  24.358  1.00  0.00     0.125 HD
HETATM   40  H21 UNL     1       5.565  -8.532  25.687  1.00  0.00     0.125 HD
ENDBRANCH   6  38
TORSDOF 7
ENDMDL
MODEL 3
REMARK minimizedAffinity -9.38715458
REMARK  7 active torsions:
REMARK  status: ('A' for Active; 'I' for Inactive)
REMARK    1  A    between atoms: C2_2  and  C3_3 
REMARK       I    between atoms: C3_3  and  N1_5 
REMARK    2  A    between atoms: N1_5  and  C4_6 
REMARK    3  A    between atoms: C7_9  and  N2_10 
REMARK    4  A    between atoms: C8_13  and  C9_14 
REMARK    5  A    between atoms: C12_17  and  O2_18 
REMARK    6  A    between atoms: O2_18  and  C13_19 
REMARK    7  A    between atoms: C22_28  and  N4_29 
ROOT
HETATM    1  N2  UNL     1       4.963  -7.876  27.980  1.00  0.00    -0.270 N 
HETATM    2  N3  UNL     1       5.156  -6.718  28.641  1.00  0.00    -0.295 N 
ATOM      3  H3  UNL     1       4.492  -5.955  28.773  1.00  0.00     0.187 HD
HETATM    4  C8  UNL     1       6.423  -6.794  29.087  1.00  0.00     0.075 A 
HETATM    5  C21 UNL     1       7.056  -7.993  28.641  1.00  0.00     0.076 A 
HETATM    6  C22 UNL     1       8.310  -8.612  28.711  1.00  0.00     0.095 A 
HETATM    7  N5  UNL     1       8.472  -9.817  28.124  1.00  0.00    -0.342 N 
ATOM      8  H5  UNL     1       9.372 -10.297  28.160  1.00  0.00     0.167 HD
HETATM    9  C23 UNL     1       7.422 -10.373  27.490  1.00  0.00     0.183 A 
HETATM   10  N6  UNL     1       6.188  -9.871  27.342  1.00  0.00    -0.337 N 
ATOM     11  H6  UNL     1       5.434 -10.338  26.839  1.00  0.00     0.168 HD
HETATM   12  C24 UNL     1       6.072  -8.672  27.941  1.00  0.00     0.139 A 
ENDROOT
BRANCH   4  13
HETATM   13  C9  UNL     1       6.971  -5.716  29.908  1.00  0.00    -0.007 A 
HETATM   14  C10 UNL     1       6.112  -4.777  30.495  1.00  0.00     0.016 A 
HETATM   15  C11 UNL     1       6.624  -3.749  31.291  1.00  0.00     0.038 A 
HETATM   16  C12 UNL     1       8.000  -3.648  31.502  1.00  0.00     0.076 A 
HETATM   17  C19 UNL     1       8.862  -4.596  30.947  1.00  0.00     0.038 A 
HETATM   18  C20 UNL     1       8.349  -5.626  30.150  1.00  0.00     0.016 A 
BRANCH  16  19
HETATM   19  O2  UNL     1       8.419  -2.635  32.336  1.00  0.00    -0.311 OA
BRANCH  19  20
HETATM   20  C13 UNL     1       9.616  -2.809  32.987  1.00  0.00     0.076 A 
HETATM   21  C14 UNL     1      10.741  -2.035  32.689  1.00  0.00     0.037 A 
HETATM   22  C15 UNL     1      11.922  -2.229  33.406  1.00  0.00     0.003 A 
HETATM   23  C16 UNL     1      11.972  -3.181  34.428  1.00  0.00     0.000 A 
HETATM   24  C17 UNL     1      10.839  -3.936  34.739  1.00  0.00     0.003 A 
HETATM   25  C18 UNL     1       9.657  -3.744  34.024  1.00  0.00     0.037 A 
ENDBRANCH  19  20
ENDBRANCH  16  19
ENDBRANCH   4  13
BRANCH   1  26
HETATM   26  C7  UNL     1       3.666  -8.170  27.381  1.00  0.00     0.110 C 
HETATM   27  C6  UNL     1       3.307  -9.660  27.502  1.00  0.00     0.029 C 
HETATM   28  C5  UNL     1       1.950  -9.959  26.868  1.00  0.00     0.027 C 
HETATM   29  C4  UNL     1       0.844  -9.079  27.462  1.00  0.00     0.084 C 
HETATM   30  C26 UNL     1       1.202  -7.593  27.341  1.00  0.00     0.027 C 
HETATM   31  C25 UNL     1       2.560  -7.284  27.971  1.00  0.00     0.029 C 
BRANCH  29  32
HETATM   32  N1  UNL     1      -0.425  -9.358  26.805  1.00  0.00    -0.353 N 
HETATM   33  C3  UNL     1      -1.624  -9.193  27.459  1.00  0.00     0.240 C 
HETATM   34  O1  UNL     1      -1.730  -8.880  28.637  1.00  0.00    -0.269 OA
HETATM   35  H4  UNL     1      -0.427  -9.506  25.805  1.00  0.00     0.163 HD
BRANCH  33  36
HETATM   36  C2  UNL     1      -2.797  -9.423  26.578  1.00  0.00     0.064 C 
HETATM   37  C1  UNL     1      -3.530 -10.535  26.705  1.00  0.00     0.017 C 
ENDBRANCH  33  36
ENDBRANCH  29  32
ENDBRANCH   1  26
BRANCH   6  38
HETATM   38  N4  UNL     1       9.431  -8.072  29.324  1.00  0.00    -0.288 NA
HETATM   39  H20 UNL     1      10.270  -8.555  29.022  1.00  0.00     0.125 HD
HETATM   40  H21 UNL     1       9.480  -7.060  29.324  1.00  0.00     0.125 HD
ENDBRANCH   6  38
TORSDOF 7
ENDMDL
MODEL 4
REMARK minimizedAffinity -9.06562042
REMARK  7 active torsions:
REMARK  status: ('A' for Active; 'I' for Inactive)
REMARK    1  A    between atoms: C2_2  and  C3_3 
REMARK       I    between atoms: C3_3  and  N1_5 
REMARK    2  A    between atoms: N1_5  and  C4_6 
REMARK    3  A    between atoms: C7_9  and  N2_10 
REMARK    4  A    between atoms: C8_13  and  C9_14 
REMARK    5  A    between atoms: C12_17  and  O2_18 
REMARK    6  A    between atoms: O2_18  and  C13_19 
REMARK    7  A    between atoms: C22_28  and  N4_29 
ROOT
HETATM    1  N2  UNL     1       5.482  -8.409  27.837  1.00  0.00    -0.270 N 
HETATM    2  N3  UNL     1       5.417  -7.226  28.480  1.00  0.00    -0.295 N 
ATOM      3  H3  UNL     1       4.629  -6.580  28.518  1.00  0.00     0.187 HD
HETATM    4  C8  UNL     1       6.624  -7.091  29.057  1.00  0.00     0.075 A 
HETATM    5  C21 UNL     1       7.484  -8.179  28.716  1.00  0.00     0.076 A 
HETATM    6  C22 UNL     1       8.805  -8.587  28.936  1.00  0.00     0.095 A 
HETATM    7  N5  UNL     1       9.219  -9.757  28.406  1.00  0.00    -0.342 N 
ATOM      8  H5  UNL     1      10.174 -10.085  28.550  1.00  0.00     0.167 HD
HETATM    9  C23 UNL     1       8.345 -10.483  27.682  1.00  0.00     0.183 A 
HETATM   10  N6  UNL     1       7.070 -10.189  27.391  1.00  0.00    -0.337 N 
ATOM     11  H6  UNL     1       6.458 -10.778  26.827  1.00  0.00     0.168 HD
HETATM   12  C24 UNL     1       6.702  -9.016  27.938  1.00  0.00     0.139 A 
ENDROOT
BRANCH   4  13
HETATM   13  C9  UNL     1       6.902  -5.929  29.898  1.00  0.00    -0.007 A 
HETATM   14  C10 UNL     1       8.164  -5.780  30.491  1.00  0.00     0.016 A 
HETATM   15  C11 UNL     1       8.446  -4.668  31.288  1.00  0.00     0.038 A 
HETATM   16  C12 UNL     1       7.466  -3.697  31.503  1.00  0.00     0.076 A 
HETATM   17  C19 UNL     1       6.217  -3.820  30.892  1.00  0.00     0.038 A 
HETATM   18  C20 UNL     1       5.935  -4.933  30.094  1.00  0.00     0.016 A 
BRANCH  16  19
HETATM   19  O2  UNL     1       7.839  -2.609  32.261  1.00  0.00    -0.311 OA
BRANCH  19  20
HETATM   20  C13 UNL     1       9.183  -2.356  32.384  1.00  0.00     0.076 A 
HETATM   21  C14 UNL     1       9.991  -3.060  33.282  1.00  0.00     0.037 A 
HETATM   22  C15 UNL     1      11.358  -2.787  33.341  1.00  0.00     0.003 A 
HETATM   23  C16 UNL     1      11.917  -1.828  32.491  1.00  0.00     0.000 A 
HETATM   24  C17 UNL     1      11.111  -1.144  31.579  1.00  0.00     0.003 A 
HETATM   25  C18 UNL     1       9.744  -1.415  31.518  1.00  0.00     0.037 A 
ENDBRANCH  19  20
ENDBRANCH  16  19
ENDBRANCH   4  13
BRANCH   1  26
HETATM   26  C7  UNL     1       4.321  -8.916  27.115  1.00  0.00     0.110 C 
HETATM   27  C6  UNL     1       3.046  -8.132  27.464  1.00  0.00     0.029 C 
HETATM   28  C5  UNL     1       1.834  -8.673  26.708  1.00  0.00     0.027 C 
HETATM   29  C4  UNL     1       2.074  -8.684  25.193  1.00  0.00     0.084 C 
HETATM   30  C26 UNL     1       3.346  -9.468  24.846  1.00  0.00     0.027 C 
HETATM   31  C25 UNL     1       4.564  -8.935  25.600  1.00  0.00     0.029 C 
BRANCH  29  32
HETATM   32  N1  UNL     1       0.920  -9.247  24.507  1.00  0.00    -0.353 N 
HETATM   33  C3  UNL     1       0.788  -9.168  23.140  1.00  0.00     0.240 C 
HETATM   34  O1  UNL     1       1.564  -8.573  22.405  1.00  0.00    -0.269 OA
HETATM   35  H4  UNL     1       0.300  -9.853  25.027  1.00  0.00     0.163 HD
BRANCH  33  36
HETATM   36  C2  UNL     1      -0.400  -9.900  22.633  1.00  0.00     0.064 C 
HETATM   37  C1  UNL     1      -1.132  -9.391  21.635  1.00  0.00     0.017 C 
ENDBRANCH  33  36
ENDBRANCH  29  32
ENDBRANCH   1  26
BRANCH   6  38
HETATM   38  N4  UNL     1       9.753  -7.865  29.646  1.00  0.00    -0.288 NA
HETATM   39  H20 UNL     1      10.686  -8.210  29.448  1.00  0.00     0.125 HD
HETATM   40  H21 UNL     1       9.641  -6.859  29.620  1.00  0.00     0.125 HD
ENDBRANCH   6  38
TORSDOF 7
ENDMDL
MODEL 5
REMARK minimizedAffinity -8.75453472
REMARK  7 active torsions:
REMARK  status: ('A' for Active; 'I' for Inactive)
REMARK    1  A    between atoms: C2_2  and  C3_3 
REMARK       I    between atoms: C3_3  and  N1_5 
REMARK    2  A    between atoms: N1_5  and  C4_6 
REMARK    3  A    between atoms: C7_9  and  N2_10 
REMARK    4  A    between atoms: C8_13  and  C9_14 
REMARK    5  A    between atoms: C12_17  and  O2_18 
REMARK    6  A    between atoms: O2_18  and  C13_19 
REMARK    7  A    between atoms: C22_28  and  N4_29 
ROOT
HETATM    1  N2  UNL     1       5.557  -6.851  28.399  1.00  0.00    -0.270 N 
HETATM    2  N3  UNL     1       4.234  -6.805  28.142  1.00  0.00    -0.295 N 
ATOM      3  H3  UNL     1       3.580  -6.055  28.365  1.00  0.00     0.187 HD
HETATM    4  C8  UNL     1       3.972  -7.972  27.526  1.00  0.00     0.075 A 
HETATM    5  C21 UNL     1       5.139  -8.792  27.454  1.00  0.00     0.076 A 
HETATM    6  C22 UNL     1       5.505 -10.067  27.008  1.00  0.00     0.095 A 
HETATM    7  N5  UNL     1       6.793 -10.452  27.131  1.00  0.00    -0.342 N 
ATOM      8  H5  UNL     1       7.093 -11.374  26.813  1.00  0.00     0.167 HD
HETATM    9  C23 UNL     1       7.673  -9.595  27.682  1.00  0.00     0.183 A 
HETATM   10  N6  UNL     1       7.438  -8.364  28.159  1.00  0.00    -0.337 N 
ATOM     11  H6  UNL     1       8.149  -7.763  28.576  1.00  0.00     0.168 HD
HETATM   12  C24 UNL     1       6.145  -8.023  28.016  1.00  0.00     0.139 A 
ENDROOT
BRANCH   4  13
HETATM   13  C9  UNL     1       2.621  -8.253  27.044  1.00  0.00    -0.007 A 
HETATM   14  C10 UNL     1       1.527  -8.124  27.912  1.00  0.00     0.016 A 
HETATM   15  C11 UNL     1       0.231  -8.380  27.460  1.00  0.00     0.038 A 
HETATM   16  C12 UNL     1       0.016  -8.770  26.137  1.00  0.00     0.076 A 
HETATM   17  C19 UNL     1       1.095  -8.871  25.257  1.00  0.00     0.038 A 
HETATM   18  C20 UNL     1       2.394  -8.615  25.709  1.00  0.00     0.016 A 
BRANCH  16  19
HETATM   19  O2  UNL     1      -1.295  -8.957  25.759  1.00  0.00    -0.311 OA
BRANCH  19  20
HETATM   20  C13 UNL     1      -1.644  -8.576  24.486  1.00  0.00     0.076 A 
HETATM   21  C14 UNL     1      -1.449  -7.271  24.023  1.00  0.00     0.037 A 
HETATM   22  C15 UNL     1      -1.790  -6.947  22.709  1.00  0.00     0.003 A 
HETATM   23  C16 UNL     1      -2.305  -7.929  21.858  1.00  0.00     0.000 A 
HETATM   24  C17 UNL     1      -2.475  -9.236  22.317  1.00  0.00     0.003 A 
HETATM   25  C18 UNL     1      -2.136  -9.563  23.630  1.00  0.00     0.037 A 
ENDBRANCH  19  20
ENDBRANCH  16  19
ENDBRANCH   4  13
BRANCH   1  26
HETATM   26  C7  UNL     1       6.218  -5.720  29.038  1.00  0.00     0.110 C 
HETATM   27  C6  UNL     1       5.239  -4.891  29.885  1.00  0.00     0.029 C 
HETATM   28  C5  UNL     1       5.940  -3.706  30.546  1.00  0.00     0.027 C 
HETATM   29  C4  UNL     1       7.142  -4.157  31.384  1.00  0.00     0.084 C 
HETATM   30  C26 UNL     1       8.119  -4.984  30.538  1.00  0.00     0.027 C 
HETATM   31  C25 UNL     1       7.427  -6.171  29.870  1.00  0.00     0.029 C 
BRANCH  29  32
HETATM   32  N1  UNL     1       7.814  -3.001  31.962  1.00  0.00    -0.353 N 
HETATM   33  C3  UNL     1       9.143  -2.746  31.717  1.00  0.00     0.240 C 
HETATM   34  O1  UNL     1       9.880  -3.481  31.074  1.00  0.00    -0.269 OA
HETATM   35  H4  UNL     1       7.249  -2.289  32.403  1.00  0.00     0.163 HD
BRANCH  33  36
HETATM   36  C2  UNL     1       9.601  -1.463  32.307  1.00  0.00     0.064 C 
HETATM   37  C1  UNL     1      10.620  -0.793  31.758  1.00  0.00     0.017 C 
ENDBRANCH  33  36
ENDBRANCH  29  32
ENDBRANCH   1  26
BRANCH   6  38
HETATM   38  N4  UNL     1       4.635 -11.000  26.462  1.00  0.00    -0.288 NA
HETATM   39  H20 UNL     1       5.053 -11.923  26.467  1.00  0.00     0.125 HD
HETATM   40  H21 UNL     1       3.679 -10.947  26.793  1.00  0.00     0.125 HD
ENDBRANCH   6  38
TORSDOF 7
ENDMDL
MODEL 6
REMARK minimizedAffinity -8.73966503
REMARK  7 active torsions:
REMARK  status: ('A' for Active; 'I' for Inactive)
REMARK    1  A    between atoms: C2_2  and  C3_3 
REMARK       I    between atoms: C3_3  and  N1_5 
REMARK    2  A    between atoms: N1_5  and  C4_6 
REMARK    3  A    between atoms: C7_9  and  N2_10 
REMARK    4  A    between atoms: C8_13  and  C9_14 
REMARK    5  A    between atoms: C12_17  and  O2_18 
REMARK    6  A    between atoms: O2_18  and  C13_19 
REMARK    7  A    between atoms: C22_28  and  N4_29 
ROOT
HETATM    1  N2  UNL     1       3.107  -7.420  27.722  1.00  0.00    -0.270 N 
HETATM    2  N3  UNL     1       3.439  -6.334  28.448  1.00  0.00    -0.295 N 
ATOM      3  H3  UNL     1       2.847  -5.539  28.687  1.00  0.00     0.187 HD
HETATM    4  C8  UNL     1       4.725  -6.536  28.784  1.00  0.00     0.075 A 
HETATM    5  C21 UNL     1       5.228  -7.739  28.204  1.00  0.00     0.076 A 
HETATM    6  C22 UNL     1       6.432  -8.450  28.129  1.00  0.00     0.095 A 
HETATM    7  N5  UNL     1       6.456  -9.614  27.445  1.00  0.00    -0.342 N 
ATOM      8  H5  UNL     1       7.316 -10.159  27.375  1.00  0.00     0.167 HD
HETATM    9  C23 UNL     1       5.322 -10.042  26.858  1.00  0.00     0.183 A 
HETATM   10  N6  UNL     1       4.123  -9.442  26.846  1.00  0.00    -0.337 N 
ATOM     11  H6  UNL     1       3.299  -9.813  26.373  1.00  0.00     0.168 HD
HETATM   12  C24 UNL     1       4.146  -8.289  27.537  1.00  0.00     0.139 A 
ENDROOT
BRANCH   4  13
HETATM   13  C9  UNL     1       5.415  -5.568  29.634  1.00  0.00    -0.007 A 
HETATM   14  C10 UNL     1       6.681  -5.871  30.156  1.00  0.00     0.016 A 
HETATM   15  C11 UNL     1       7.355  -4.950  30.961  1.00  0.00     0.038 A 
HETATM   16  C12 UNL     1       6.767  -3.719  31.256  1.00  0.00     0.076 A 
HETATM   17  C19 UNL     1       5.521  -3.394  30.716  1.00  0.00     0.038 A 
HETATM   18  C20 UNL     1       4.846  -4.317  29.910  1.00  0.00     0.016 A 
BRANCH  16  19
HETATM   19  O2  UNL     1       7.517  -2.849  32.017  1.00  0.00    -0.311 OA
BRANCH  19  20
HETATM   20  C13 UNL     1       8.808  -3.217  32.308  1.00  0.00     0.076 A 
HETATM   21  C14 UNL     1       9.897  -2.746  31.569  1.00  0.00     0.037 A 
HETATM   22  C15 UNL     1      11.191  -3.125  31.930  1.00  0.00     0.003 A 
HETATM   23  C16 UNL     1      11.394  -3.955  33.037  1.00  0.00     0.000 A 
HETATM   24  C17 UNL     1      10.305  -4.403  33.786  1.00  0.00     0.003 A 
HETATM   25  C18 UNL     1       9.010  -4.027  33.427  1.00  0.00     0.037 A 
ENDBRANCH  19  20
ENDBRANCH  16  19
ENDBRANCH   4  13
BRANCH   1  26
HETATM   26  C7  UNL     1       1.751  -7.573  27.209  1.00  0.00     0.110 C 
HETATM   27  C6  UNL     1       1.744  -7.987  25.729  1.00  0.00     0.029 C 
HETATM   28  C5  UNL     1       0.320  -8.139  25.199  1.00  0.00     0.027 C 
HETATM   29  C4  UNL     1      -0.495  -9.123  26.047  1.00  0.00     0.084 C 
HETATM   30  C26 UNL     1      -0.489  -8.709  27.524  1.00  0.00     0.027 C 
HETATM   31  C25 UNL     1       0.933  -8.552  28.063  1.00  0.00     0.029 C 
BRANCH  29  32
HETATM   32  N1  UNL     1      -1.859  -9.210  25.543  1.00  0.00    -0.353 N 
HETATM   33  C3  UNL     1      -2.231  -8.596  24.370  1.00  0.00     0.240 C 
HETATM   34  O1  UNL     1      -1.496  -7.882  23.701  1.00  0.00    -0.269 OA
HETATM   35  H4  UNL     1      -2.488  -9.873  25.973  1.00  0.00     0.163 HD
BRANCH  33  36
HETATM   36  C2  UNL     1      -3.631  -8.900  23.980  1.00  0.00     0.064 C 
HETATM   37  C1  UNL     1      -4.359  -9.762  24.698  1.00  0.00     0.017 C 
ENDBRANCH  33  36
ENDBRANCH  29  32
ENDBRANCH   1  26
BRANCH   6  38
HETATM   38  N4  UNL     1       7.634  -8.042  28.688  1.00  0.00    -0.288 NA
HETATM   39  H20 UNL     1       8.408  -8.559  28.286  1.00  0.00     0.125 HD
HETATM   40  H21 UNL     1       7.762  -7.039  28.757  1.00  0.00     0.125 HD
ENDBRANCH   6  38
TORSDOF 7
ENDMDL
MODEL 7
REMARK minimizedAffinity -8.72868824
REMARK  7 active torsions:
REMARK  status: ('A' for Active; 'I' for Inactive)
REMARK    1  A    between atoms: C2_2  and  C3_3 
REMARK       I    between atoms: C3_3  and  N1_5 
REMARK    2  A    between atoms: N1_5  and  C4_6 
REMARK    3  A    between atoms: C7_9  and  N2_10 
REMARK    4  A    between atoms: C8_13  and  C9_14 
REMARK    5  A    between atoms: C12_17  and  O2_18 
REMARK    6  A    between atoms: O2_18  and  C13_19 
REMARK    7  A    between atoms: C22_28  and  N4_29 
ROOT
HETATM    1  N2  UNL     1       6.625  -7.746  27.021  1.00  0.00    -0.270 N 
HETATM    2  N3  UNL     1       6.502  -7.156  28.227  1.00  0.00    -0.295 N 
ATOM      3  H3  UNL     1       5.701  -7.184  28.857  1.00  0.00     0.187 HD
HETATM    4  C8  UNL     1       7.674  -6.523  28.411  1.00  0.00     0.075 A 
HETATM    5  C21 UNL     1       8.523  -6.664  27.271  1.00  0.00     0.076 A 
HETATM    6  C22 UNL     1       9.779  -6.229  26.832  1.00  0.00     0.095 A 
HETATM    7  N5  UNL     1      10.219  -6.637  25.623  1.00  0.00    -0.342 N 
ATOM      8  H5  UNL     1      11.131  -6.341  25.274  1.00  0.00     0.167 HD
HETATM    9  C23 UNL     1       9.430  -7.442  24.886  1.00  0.00     0.183 A 
HETATM   10  N6  UNL     1       8.210  -7.906  25.191  1.00  0.00    -0.337 N 
ATOM     11  H6  UNL     1       7.655  -8.508  24.584  1.00  0.00     0.168 HD
HETATM   12  C24 UNL     1       7.812  -7.475  26.402  1.00  0.00     0.139 A 
ENDROOT
BRANCH   4  13
HETATM   13  C9  UNL     1       7.926  -5.806  29.659  1.00  0.00    -0.007 A 
HETATM   14  C10 UNL     1       7.038  -4.808  30.085  1.00  0.00     0.016 A 
HETATM   15  C11 UNL     1       7.261  -4.123  31.282  1.00  0.00     0.038 A 
HETATM   16  C12 UNL     1       8.378  -4.427  32.062  1.00  0.00     0.076 A 
HETATM   17  C19 UNL     1       9.252  -5.441  31.663  1.00  0.00     0.038 A 
HETATM   18  C20 UNL     1       9.028  -6.126  30.465  1.00  0.00     0.016 A 
BRANCH  16  19
HETATM   19  O2  UNL     1       8.501  -3.740  33.249  1.00  0.00    -0.311 OA
BRANCH  19  20
HETATM   20  C13 UNL     1       9.768  -3.388  33.646  1.00  0.00     0.076 A 
HETATM   21  C14 UNL     1      10.540  -2.469  32.929  1.00  0.00     0.037 A 
HETATM   22  C15 UNL     1      11.808  -2.120  33.397  1.00  0.00     0.003 A 
HETATM   23  C16 UNL     1      12.292  -2.674  34.585  1.00  0.00     0.000 A 
HETATM   24  C17 UNL     1      11.508  -3.572  35.311  1.00  0.00     0.003 A 
HETATM   25  C18 UNL     1      10.241  -3.923  34.846  1.00  0.00     0.037 A 
ENDBRANCH  19  20
ENDBRANCH  16  19
ENDBRANCH   4  13
BRANCH   1  26
HETATM   26  C7  UNL     1       5.543  -8.570  26.495  1.00  0.00     0.110 C 
HETATM   27  C6  UNL     1       5.917 -10.061  26.480  1.00  0.00     0.029 C 
HETATM   28  C5  UNL     1       4.780 -10.914  25.922  1.00  0.00     0.027 C 
HETATM   29  C4  UNL     1       3.473 -10.685  26.691  1.00  0.00     0.084 C 
HETATM   30  C26 UNL     1       3.100  -9.197  26.706  1.00  0.00     0.027 C 
HETATM   31  C25 UNL     1       4.233  -8.334  27.260  1.00  0.00     0.029 C 
BRANCH  29  32
HETATM   32  N1  UNL     1       2.401 -11.478  26.106  1.00  0.00    -0.353 N 
HETATM   33  C3  UNL     1       1.836 -12.533  26.785  1.00  0.00     0.240 C 
HETATM   34  O1  UNL     1       2.217 -12.936  27.875  1.00  0.00    -0.269 OA
HETATM   35  H4  UNL     1       1.955 -11.138  25.266  1.00  0.00     0.163 HD
BRANCH  33  36
HETATM   36  C2  UNL     1       0.689 -13.135  26.060  1.00  0.00     0.064 C 
HETATM   37  C1  UNL     1       0.721 -13.258  24.728  1.00  0.00     0.017 C 
ENDBRANCH  33  36
ENDBRANCH  29  32
ENDBRANCH   1  26
BRANCH   6  38
HETATM   38  N4  UNL     1      10.617  -5.377  27.535  1.00  0.00    -0.288 NA
HETATM   39  H20 UNL     1      11.328  -4.991  26.924  1.00  0.00     0.125 HD
HETATM   40  H21 UNL     1      10.151  -4.714  28.143  1.00  0.00     0.125 HD
ENDBRANCH   6  38
TORSDOF 7
ENDMDL
MODEL 8
REMARK minimizedAffinity -8.63403606
REMARK  7 active torsions:
REMARK  status: ('A' for Active; 'I' for Inactive)
REMARK    1  A    between atoms: C2_2  and  C3_3 
REMARK       I    between atoms: C3_3  and  N1_5 
REMARK    2  A    between atoms: N1_5  and  C4_6 
REMARK    3  A    between atoms: C7_9  and  N2_10 
REMARK    4  A    between atoms: C8_13  and  C9_14 
REMARK    5  A    between atoms: C12_17  and  O2_18 
REMARK    6  A    between atoms: O2_18  and  C13_19 
REMARK    7  A    between atoms: C22_28  and  N4_29 
ROOT
HETATM    1  N2  UNL     1       5.650  -8.001  26.964  1.00  0.00    -0.270 N 
HETATM    2  N3  UNL     1       5.614  -7.275  28.099  1.00  0.00    -0.295 N 
ATOM      3  H3  UNL     1       4.834  -7.168  28.748  1.00  0.00     0.187 HD
HETATM    4  C8  UNL     1       6.837  -6.721  28.183  1.00  0.00     0.075 A 
HETATM    5  C21 UNL     1       7.633  -7.055  27.045  1.00  0.00     0.076 A 
HETATM    6  C22 UNL     1       8.904  -6.772  26.529  1.00  0.00     0.095 A 
HETATM    7  N5  UNL     1       9.271  -7.344  25.363  1.00  0.00    -0.342 N 
ATOM      8  H5  UNL     1      10.191  -7.163  24.961  1.00  0.00     0.167 HD
HETATM    9  C23 UNL     1       8.398  -8.158  24.739  1.00  0.00     0.183 A 
HETATM   10  N6  UNL     1       7.156  -8.486  25.125  1.00  0.00    -0.337 N 
ATOM     11  H6  UNL     1       6.536  -9.104  24.602  1.00  0.00     0.168 HD
HETATM   12  C24 UNL     1       6.834  -7.895  26.289  1.00  0.00     0.139 A 
ENDROOT
BRANCH   4  13
HETATM   13  C9  UNL     1       7.185  -5.896  29.337  1.00  0.00    -0.007 A 
HETATM   14  C10 UNL     1       6.322  -4.871  29.750  1.00  0.00     0.016 A 
HETATM   15  C11 UNL     1       6.638  -4.082  30.859  1.00  0.00     0.038 A 
HETATM   16  C12 UNL     1       7.823  -4.307  31.561  1.00  0.00     0.076 A 
HETATM   17  C19 UNL     1       8.675  -5.345  31.177  1.00  0.00     0.038 A 
HETATM   18  C20 UNL     1       8.358  -6.135  30.067  1.00  0.00     0.016 A 
BRANCH  16  19
HETATM   19  O2  UNL     1       8.038  -3.517  32.669  1.00  0.00    -0.311 OA
BRANCH  19  20
HETATM   20  C13 UNL     1       9.336  -3.165  32.951  1.00  0.00     0.076 A 
HETATM   21  C14 UNL     1       9.992  -2.140  32.263  1.00  0.00     0.037 A 
HETATM   22  C15 UNL     1      11.299  -1.801  32.614  1.00  0.00     0.003 A 
HETATM   23  C16 UNL     1      11.939  -2.471  33.660  1.00  0.00     0.000 A 
HETATM   24  C17 UNL     1      11.272  -3.477  34.361  1.00  0.00     0.003 A 
HETATM   25  C18 UNL     1       9.965  -3.820  34.012  1.00  0.00     0.037 A 
ENDBRANCH  19  20
ENDBRANCH  16  19
ENDBRANCH   4  13
BRANCH   1  26
HETATM   26  C7  UNL     1       4.491  -8.787  26.560  1.00  0.00     0.110 C 
HETATM   27  C6  UNL     1       3.304  -8.586  27.517  1.00  0.00     0.029 C 
HETATM   28  C5  UNL     1       2.097  -9.417  27.088  1.00  0.00     0.027 C 
HETATM   29  C4  UNL     1       1.690  -9.116  25.640  1.00  0.00     0.084 C 
HETATM   30  C26 UNL     1       2.874  -9.316  24.686  1.00  0.00     0.027 C 
HETATM   31  C25 UNL     1       4.089  -8.491  25.108  1.00  0.00     0.029 C 
BRANCH  29  32
HETATM   32  N1  UNL     1       0.567  -9.956  25.250  1.00  0.00    -0.353 N 
HETATM   33  C3  UNL     1      -0.426  -9.487  24.421  1.00  0.00     0.240 C 
HETATM   34  O1  UNL     1      -0.496  -8.338  24.009  1.00  0.00    -0.269 OA
HETATM   35  H4  UNL     1       0.613 -10.945  25.452  1.00  0.00     0.163 HD
BRANCH  33  36
HETATM   36  C2  UNL     1      -1.415 -10.534  24.058  1.00  0.00     0.064 C 
HETATM   37  C1  UNL     1      -1.771 -11.465  24.950  1.00  0.00     0.017 C 
ENDBRANCH  33  36
ENDBRANCH  29  32
ENDBRANCH   1  26
BRANCH   6  38
HETATM   38  N4  UNL     1       9.829  -5.919  27.112  1.00  0.00    -0.288 NA
HETATM   39  H20 UNL     1      10.546  -5.661  26.444  1.00  0.00     0.125 HD
HETATM   40  H21 UNL     1       9.436  -5.159  27.654  1.00  0.00     0.125 HD
ENDBRANCH   6  38
TORSDOF 7
ENDMDL
MODEL 9
REMARK minimizedAffinity -8.56701851
REMARK  7 active torsions:
REMARK  status: ('A' for Active; 'I' for Inactive)
REMARK    1  A    between atoms: C2_2  and  C3_3 
REMARK       I    between atoms: C3_3  and  N1_5 
REMARK    2  A    between atoms: N1_5  and  C4_6 
REMARK    3  A    between atoms: C7_9  and  N2_10 
REMARK    4  A    between atoms: C8_13  and  C9_14 
REMARK    5  A    between atoms: C12_17  and  O2_18 
REMARK    6  A    between atoms: O2_18  and  C13_19 
REMARK    7  A    between atoms: C22_28  and  N4_29 
ROOT
HETATM    1  N2  UNL     1       7.976  -6.621  29.737  1.00  0.00    -0.270 N 
HETATM    2  N3  UNL     1       7.084  -7.324  29.010  1.00  0.00    -0.295 N 
ATOM      3  H3  UNL     1       7.248  -8.179  28.479  1.00  0.00     0.187 HD
HETATM    4  C8  UNL     1       5.932  -6.644  29.145  1.00  0.00     0.075 A 
HETATM    5  C21 UNL     1       6.119  -5.457  29.916  1.00  0.00     0.076 A 
HETATM    6  C22 UNL     1       5.374  -4.355  30.351  1.00  0.00     0.095 A 
HETATM    7  N5  UNL     1       5.983  -3.421  31.113  1.00  0.00    -0.342 N 
ATOM      8  H5  UNL     1       5.468  -2.608  31.450  1.00  0.00     0.167 HD
HETATM    9  C23 UNL     1       7.284  -3.586  31.420  1.00  0.00     0.183 A 
HETATM   10  N6  UNL     1       8.099  -4.584  31.048  1.00  0.00    -0.337 N 
ATOM     11  H6  UNL     1       9.084  -4.648  31.306  1.00  0.00     0.168 HD
HETATM   12  C24 UNL     1       7.452  -5.488  30.292  1.00  0.00     0.139 A 
ENDROOT
BRANCH   4  13
HETATM   13  C9  UNL     1       4.710  -7.153  28.525  1.00  0.00    -0.007 A 
HETATM   14  C10 UNL     1       3.525  -6.407  28.597  1.00  0.00     0.016 A 
HETATM   15  C11 UNL     1       2.354  -6.878  27.999  1.00  0.00     0.038 A 
HETATM   16  C12 UNL     1       2.356  -8.101  27.328  1.00  0.00     0.076 A 
HETATM   17  C19 UNL     1       3.537  -8.838  27.223  1.00  0.00     0.038 A 
HETATM   18  C20 UNL     1       4.710  -8.366  27.822  1.00  0.00     0.016 A 
BRANCH  16  19
HETATM   19  O2  UNL     1       1.173  -8.471  26.726  1.00  0.00    -0.311 OA
BRANCH  19  20
HETATM   20  C13 UNL     1       1.147  -8.503  25.352  1.00  0.00     0.076 A 
HETATM   21  C14 UNL     1       2.274  -8.843  24.598  1.00  0.00     0.037 A 
HETATM   22  C15 UNL     1       2.182  -8.894  23.206  1.00  0.00     0.003 A 
HETATM   23  C16 UNL     1       0.965  -8.625  22.575  1.00  0.00     0.000 A 
HETATM   24  C17 UNL     1      -0.164  -8.310  23.334  1.00  0.00     0.003 A 
HETATM   25  C18 UNL     1      -0.076  -8.258  24.725  1.00  0.00     0.037 A 
ENDBRANCH  19  20
ENDBRANCH  16  19
ENDBRANCH   4  13
BRANCH   1  26
HETATM   26  C7  UNL     1       9.352  -7.087  29.858  1.00  0.00     0.110 C 
HETATM   27  C6  UNL     1      10.008  -7.291  28.483  1.00  0.00     0.029 C 
HETATM   28  C5  UNL     1      11.448  -7.784  28.621  1.00  0.00     0.027 C 
HETATM   29  C4  UNL     1      12.285  -6.842  29.493  1.00  0.00     0.084 C 
HETATM   30  C26 UNL     1      11.630  -6.639  30.866  1.00  0.00     0.027 C 
HETATM   31  C25 UNL     1      10.189  -6.148  30.739  1.00  0.00     0.029 C 
BRANCH  29  32
HETATM   32  N1  UNL     1      13.637  -7.364  29.641  1.00  0.00    -0.353 N 
HETATM   33  C3  UNL     1      13.875  -8.582  30.235  1.00  0.00     0.240 C 
HETATM   34  O1  UNL     1      13.011  -9.282  30.745  1.00  0.00    -0.269 OA
HETATM   35  H4  UNL     1      14.387  -6.904  29.144  1.00  0.00     0.163 HD
BRANCH  33  36
HETATM   36  C2  UNL     1      15.305  -8.977  30.185  1.00  0.00     0.064 C 
HETATM   37  C1  UNL     1      15.828  -9.478  29.060  1.00  0.00     0.017 C 
ENDBRANCH  33  36
ENDBRANCH  29  32
ENDBRANCH   1  26
BRANCH   6  38
HETATM   38  N4  UNL     1       4.043  -4.120  30.041  1.00  0.00    -0.288 NA
HETATM   39  H20 UNL     1       3.798  -3.154  30.228  1.00  0.00     0.125 HD
HETATM   40  H21 UNL     1       3.735  -4.488  29.149  1.00  0.00     0.125 HD
ENDBRANCH   6  38
TORSDOF 7
ENDMDL
