MODEL 1
REMARK minimizedAffinity -7.8507905
REMARK  3 active torsions:
REMARK  status: ('A' for Active; 'I' for Inactive)
REMARK    1  A    between atoms: C4_4  and  C5_5 
REMARK    2  A    between atoms: N2_8  and  C6_9 
REMARK    3  A    between atoms: C12_15  and  C13_16 
ROOT
HETATM    1  C5  UNL     1      14.075  58.803   2.787  1.00  0.00     0.038 C 
HETATM    2  N1  UNL     1      14.116  57.514   2.936  1.00  0.00    -0.301 N 
ATOM      3  H1  UNL     1      13.720  56.819   2.303  1.00  0.00     0.187 HD
HETATM    4  N2  UNL     1      14.790  57.261   4.097  1.00  0.00    -0.283 N 
HETATM    5  C12 UNL     1      15.139  58.476   4.836  1.00  0.00     0.147 C 
HETATM    6  C23 UNL     1      14.800  59.590   3.843  1.00  0.00     0.091 C 
ENDROOT
BRANCH   5   7
HETATM    7  C13 UNL     1      14.355  58.650   6.129  1.00  0.00    -0.032 A 
HETATM    8  C14 UNL     1      14.778  58.085   7.340  1.00  0.00     0.010 A 
HETATM    9  C15 UNL     1      14.022  58.242   8.504  1.00  0.00     0.013 A 
HETATM   10  C16 UNL     1      12.818  58.960   8.487  1.00  0.00    -0.026 A 
HETATM   11  C17 UNL     1      12.047  59.125   9.649  1.00  0.00     0.012 A 
HETATM   12  C21 UNL     1      12.371  59.529   7.273  1.00  0.00    -0.025 A 
HETATM   13  C18 UNL     1      10.851  59.842   9.616  1.00  0.00     0.001 A 
HETATM   14  C19 UNL     1      10.409  60.401   8.421  1.00  0.00     0.001 A 
HETATM   15  C20 UNL     1      11.164  60.247   7.257  1.00  0.00     0.012 A 
HETATM   16  C22 UNL     1      13.143  59.364   6.111  1.00  0.00     0.021 A 
ENDBRANCH   5   7
BRANCH   4  17
HETATM   17  C6  UNL     1      15.195  55.966   4.422  1.00  0.00     0.051 A 
HETATM   18  C7  UNL     1      14.260  55.005   4.842  1.00  0.00     0.031 A 
HETATM   19  C8  UNL     1      14.637  53.699   5.175  1.00  0.00     0.002 A 
HETATM   20  C9  UNL     1      15.972  53.322   5.099  1.00  0.00     0.000 A 
HETATM   21  C10 UNL     1      16.923  54.251   4.691  1.00  0.00     0.002 A 
HETATM   22  C11 UNL     1      16.536  55.555   4.358  1.00  0.00     0.031 A 
ENDBRANCH   4  17
BRANCH   1  23
HETATM   23  C4  UNL     1      13.398  59.465   1.647  1.00  0.00    -0.012 A 
HETATM   24  C3  UNL     1      12.807  60.726   1.778  1.00  0.00     0.013 A 
HETATM   25  C2  UNL     1      12.177  61.321   0.682  1.00  0.00     0.001 A 
HETATM   26  C1  UNL     1      12.136  60.662  -0.546  1.00  0.00     0.000 A 
HETATM   27  C25 UNL     1      12.725  59.406  -0.683  1.00  0.00     0.001 A 
HETATM   28  C24 UNL     1      13.356  58.809   0.410  1.00  0.00     0.013 A 
ENDBRANCH   1  23
TORSDOF 3
ENDMDL
MODEL 2
REMARK minimizedAffinity -7.73370504
REMARK  3 active torsions:
REMARK  status: ('A' for Active; 'I' for Inactive)
REMARK    1  A    between atoms: C4_4  and  C5_5 
REMARK    2  A    between atoms: N2_8  and  C6_9 
REMARK    3  A    between atoms: C12_15  and  C13_16 
ROOT
HETATM    1  C5  UNL     1      17.259  38.046  14.886  1.00  0.00     0.038 C 
HETATM    2  N1  UNL     1      17.015  37.203  13.930  1.00  0.00    -0.301 N 
ATOM      3  H1  UNL     1      16.791  37.434  12.962  1.00  0.00     0.187 HD
HETATM    4  N2  UNL     1      17.113  35.947  14.460  1.00  0.00    -0.283 N 
HETATM    5  C12 UNL     1      17.340  35.950  15.907  1.00  0.00     0.147 C 
HETATM    6  C23 UNL     1      17.624  37.423  16.206  1.00  0.00     0.091 C 
ENDROOT
BRANCH   5   7
HETATM    7  C13 UNL     1      16.147  35.456  16.712  1.00  0.00    -0.032 A 
HETATM    8  C14 UNL     1      16.265  34.445  17.675  1.00  0.00     0.010 A 
HETATM    9  C15 UNL     1      15.145  33.997  18.380  1.00  0.00     0.013 A 
HETATM   10  C16 UNL     1      13.876  34.541  18.135  1.00  0.00    -0.026 A 
HETATM   11  C17 UNL     1      12.742  34.100  18.835  1.00  0.00     0.012 A 
HETATM   12  C21 UNL     1      13.738  35.556  17.161  1.00  0.00    -0.025 A 
HETATM   13  C18 UNL     1      11.486  34.651  18.579  1.00  0.00     0.001 A 
HETATM   14  C19 UNL     1      11.349  35.650  17.619  1.00  0.00     0.001 A 
HETATM   15  C20 UNL     1      12.467  36.099  16.915  1.00  0.00     0.012 A 
HETATM   16  C22 UNL     1      14.874  35.998  16.462  1.00  0.00     0.021 A 
ENDBRANCH   5   7
BRANCH   4  17
HETATM   17  C6  UNL     1      17.125  34.822  13.636  1.00  0.00     0.051 A 
HETATM   18  C7  UNL     1      16.087  34.592  12.717  1.00  0.00     0.031 A 
HETATM   19  C8  UNL     1      16.072  33.472  11.879  1.00  0.00     0.002 A 
HETATM   20  C9  UNL     1      17.103  32.544  11.944  1.00  0.00     0.000 A 
HETATM   21  C10 UNL     1      18.144  32.738  12.845  1.00  0.00     0.002 A 
HETATM   22  C11 UNL     1      18.151  33.864  13.679  1.00  0.00     0.031 A 
ENDBRANCH   4  17
BRANCH   1  23
HETATM   23  C4  UNL     1      17.219  39.515  14.700  1.00  0.00    -0.012 A 
HETATM   24  C3  UNL     1      16.646  40.095  13.564  1.00  0.00     0.013 A 
HETATM   25  C2  UNL     1      16.626  41.485  13.421  1.00  0.00     0.001 A 
HETATM   26  C1  UNL     1      17.177  42.299  14.410  1.00  0.00     0.000 A 
HETATM   27  C25 UNL     1      17.748  41.727  15.545  1.00  0.00     0.001 A 
HETATM   28  C24 UNL     1      17.769  40.338  15.691  1.00  0.00     0.013 A 
ENDBRANCH   1  23
TORSDOF 3
ENDMDL
MODEL 3
REMARK minimizedAffinity -7.72210789
REMARK  3 active torsions:
REMARK  status: ('A' for Active; 'I' for Inactive)
REMARK    1  A    between atoms: C4_4  and  C5_5 
REMARK    2  A    between atoms: N2_8  and  C6_9 
REMARK    3  A    between atoms: C12_15  and  C13_16 
ROOT
HETATM    1  C5  UNL     1      13.581  57.446   1.208  1.00  0.00     0.038 C 
HETATM    2  N1  UNL     1      13.677  56.341   1.882  1.00  0.00    -0.301 N 
ATOM      3  H1  UNL     1      13.248  55.447   1.642  1.00  0.00     0.187 HD
HETATM    4  N2  UNL     1      14.459  56.597   2.973  1.00  0.00    -0.283 N 
HETATM    5  C12 UNL     1      14.834  58.007   3.094  1.00  0.00     0.147 C 
HETATM    6  C23 UNL     1      14.373  58.600   1.761  1.00  0.00     0.091 C 
ENDROOT
BRANCH   5   7
HETATM    7  C13 UNL     1      14.163  58.718   4.261  1.00  0.00    -0.032 A 
HETATM    8  C14 UNL     1      14.238  58.231   5.573  1.00  0.00     0.010 A 
HETATM    9  C15 UNL     1      13.590  58.893   6.618  1.00  0.00     0.013 A 
HETATM   10  C16 UNL     1      12.842  60.055   6.379  1.00  0.00    -0.026 A 
HETATM   11  C17 UNL     1      12.185  60.730   7.419  1.00  0.00     0.012 A 
HETATM   12  C21 UNL     1      12.749  60.555   5.060  1.00  0.00    -0.025 A 
HETATM   13  C18 UNL     1      11.444  61.885   7.164  1.00  0.00     0.001 A 
HETATM   14  C19 UNL     1      11.350  62.378   5.866  1.00  0.00     0.001 A 
HETATM   15  C20 UNL     1      11.999  61.718   4.821  1.00  0.00     0.012 A 
HETATM   16  C22 UNL     1      13.408  59.879   4.020  1.00  0.00     0.021 A 
ENDBRANCH   5   7
BRANCH   4  17
HETATM   17  C6  UNL     1      14.933  55.557   3.773  1.00  0.00     0.051 A 
HETATM   18  C7  UNL     1      16.307  55.275   3.847  1.00  0.00     0.031 A 
HETATM   19  C8  UNL     1      16.811  54.238   4.640  1.00  0.00     0.002 A 
HETATM   20  C9  UNL     1      15.942  53.448   5.382  1.00  0.00     0.000 A 
HETATM   21  C10 UNL     1      14.574  53.697   5.327  1.00  0.00     0.002 A 
HETATM   22  C11 UNL     1      14.080  54.738   4.532  1.00  0.00     0.031 A 
ENDBRANCH   4  17
BRANCH   1  23
HETATM   23  C4  UNL     1      12.785  57.571  -0.035  1.00  0.00    -0.012 A 
HETATM   24  C3  UNL     1      12.730  58.770  -0.753  1.00  0.00     0.013 A 
HETATM   25  C2  UNL     1      11.968  58.852  -1.922  1.00  0.00     0.001 A 
HETATM   26  C1  UNL     1      11.262  57.740  -2.377  1.00  0.00     0.000 A 
HETATM   27  C25 UNL     1      11.314  56.542  -1.667  1.00  0.00     0.001 A 
HETATM   28  C24 UNL     1      12.075  56.456  -0.499  1.00  0.00     0.013 A 
ENDBRANCH   1  23
TORSDOF 3
ENDMDL
MODEL 4
REMARK minimizedAffinity -7.67167854
REMARK  3 active torsions:
REMARK  status: ('A' for Active; 'I' for Inactive)
REMARK    1  A    between atoms: C4_4  and  C5_5 
REMARK    2  A    between atoms: N2_8  and  C6_9 
REMARK    3  A    between atoms: C12_15  and  C13_16 
ROOT
HETATM    1  C5  UNL     1      11.098  35.138  20.010  1.00  0.00     0.038 C 
HETATM    2  N1  UNL     1      11.820  35.893  20.780  1.00  0.00    -0.301 N 
ATOM      3  H1  UNL     1      11.487  36.669  21.351  1.00  0.00     0.187 HD
HETATM    4  N2  UNL     1      13.110  35.454  20.684  1.00  0.00    -0.283 N 
HETATM    5  C12 UNL     1      13.283  34.387  19.695  1.00  0.00     0.147 C 
HETATM    6  C23 UNL     1      11.843  34.022  19.330  1.00  0.00     0.091 C 
ENDROOT
BRANCH   5   7
HETATM    7  C13 UNL     1      14.059  34.821  18.460  1.00  0.00    -0.032 A 
HETATM    8  C14 UNL     1      13.497  35.648  17.478  1.00  0.00     0.010 A 
HETATM    9  C15 UNL     1      14.227  36.008  16.344  1.00  0.00     0.013 A 
HETATM   10  C16 UNL     1      15.537  35.543  16.155  1.00  0.00    -0.026 A 
HETATM   11  C17 UNL     1      16.282  35.895  15.018  1.00  0.00     0.012 A 
HETATM   12  C21 UNL     1      16.117  34.701  17.130  1.00  0.00    -0.025 A 
HETATM   13  C18 UNL     1      17.584  35.424  14.845  1.00  0.00     0.001 A 
HETATM   14  C19 UNL     1      18.156  34.594  15.805  1.00  0.00     0.001 A 
HETATM   15  C20 UNL     1      17.428  34.235  16.940  1.00  0.00     0.012 A 
HETATM   16  C22 UNL     1      15.370  34.350  18.267  1.00  0.00     0.021 A 
ENDBRANCH   5   7
BRANCH   4  17
HETATM   17  C6  UNL     1      14.091  35.917  21.562  1.00  0.00     0.051 A 
HETATM   18  C7  UNL     1      13.932  37.139  22.236  1.00  0.00     0.031 A 
HETATM   19  C8  UNL     1      14.899  37.629  23.122  1.00  0.00     0.002 A 
HETATM   20  C9  UNL     1      16.060  36.903  23.351  1.00  0.00     0.000 A 
HETATM   21  C10 UNL     1      16.251  35.691  22.696  1.00  0.00     0.002 A 
HETATM   22  C11 UNL     1      15.277  35.208  21.813  1.00  0.00     0.031 A 
ENDBRANCH   4  17
BRANCH   1  23
HETATM   23  C4  UNL     1       9.639  35.325  19.830  1.00  0.00    -0.012 A 
HETATM   24  C3  UNL     1       8.709  34.548  20.527  1.00  0.00     0.013 A 
HETATM   25  C2  UNL     1       7.340  34.751  20.333  1.00  0.00     0.001 A 
HETATM   26  C1  UNL     1       6.896  35.729  19.444  1.00  0.00     0.000 A 
HETATM   27  C25 UNL     1       7.818  36.508  18.748  1.00  0.00     0.001 A 
HETATM   28  C24 UNL     1       9.187  36.308  18.940  1.00  0.00     0.013 A 
ENDBRANCH   1  23
TORSDOF 3
ENDMDL
MODEL 5
REMARK minimizedAffinity -7.59027338
REMARK  3 active torsions:
REMARK  status: ('A' for Active; 'I' for Inactive)
REMARK    1  A    between atoms: C4_4  and  C5_5 
REMARK    2  A    between atoms: N2_8  and  C6_9 
REMARK    3  A    between atoms: C12_15  and  C13_16 
ROOT
HETATM    1  C5  UNL     1      17.174  52.366   5.475  1.00  0.00     0.038 C 
HETATM    2  N1  UNL     1      16.704  51.183   5.727  1.00  0.00    -0.301 N 
ATOM      3  H1  UNL     1      15.732  50.887   5.637  1.00  0.00     0.187 HD
HETATM    4  N2  UNL     1      17.752  50.408   6.134  1.00  0.00    -0.283 N 
HETATM    5  C12 UNL     1      19.005  51.155   6.263  1.00  0.00     0.147 C 
HETATM    6  C23 UNL     1      18.663  52.506   5.632  1.00  0.00     0.091 C 
ENDROOT
BRANCH   5   7
HETATM    7  C13 UNL     1      19.463  51.333   7.703  1.00  0.00    -0.032 A 
HETATM    8  C14 UNL     1      19.093  52.444   8.472  1.00  0.00     0.010 A 
HETATM    9  C15 UNL     1      19.552  52.590   9.783  1.00  0.00     0.013 A 
HETATM   10  C16 UNL     1      20.400  51.634  10.358  1.00  0.00    -0.026 A 
HETATM   11  C17 UNL     1      20.870  51.769  11.674  1.00  0.00     0.012 A 
HETATM   12  C21 UNL     1      20.791  50.511   9.595  1.00  0.00    -0.025 A 
HETATM   13  C18 UNL     1      21.714  50.808  12.233  1.00  0.00     0.001 A 
HETATM   14  C19 UNL     1      22.101  49.702  11.481  1.00  0.00     0.001 A 
HETATM   15  C20 UNL     1      21.642  49.554  10.171  1.00  0.00     0.012 A 
HETATM   16  C22 UNL     1      20.320  50.376   8.278  1.00  0.00     0.021 A 
ENDBRANCH   5   7
BRANCH   4  17
HETATM   17  C6  UNL     1      17.611  49.026   6.265  1.00  0.00     0.051 A 
HETATM   18  C7  UNL     1      18.689  48.230   6.689  1.00  0.00     0.031 A 
HETATM   19  C8  UNL     1      18.577  46.842   6.828  1.00  0.00     0.002 A 
HETATM   20  C9  UNL     1      17.374  46.211   6.538  1.00  0.00     0.000 A 
HETATM   21  C10 UNL     1      16.288  46.969   6.112  1.00  0.00     0.002 A 
HETATM   22  C11 UNL     1      16.410  48.358   5.978  1.00  0.00     0.031 A 
ENDBRANCH   4  17
BRANCH   1  23
HETATM   23  C4  UNL     1      16.327  53.498   5.030  1.00  0.00    -0.012 A 
HETATM   24  C3  UNL     1      16.870  54.605   4.370  1.00  0.00     0.013 A 
HETATM   25  C2  UNL     1      16.041  55.654   3.965  1.00  0.00     0.001 A 
HETATM   26  C1  UNL     1      14.671  55.602   4.216  1.00  0.00     0.000 A 
HETATM   27  C25 UNL     1      14.124  54.501   4.872  1.00  0.00     0.001 A 
HETATM   28  C24 UNL     1      14.949  53.450   5.278  1.00  0.00     0.013 A 
ENDBRANCH   1  23
TORSDOF 3
ENDMDL
MODEL 6
REMARK minimizedAffinity -7.5563755
REMARK  3 active torsions:
REMARK  status: ('A' for Active; 'I' for Inactive)
REMARK    1  A    between atoms: C4_4  and  C5_5 
REMARK    2  A    between atoms: N2_8  and  C6_9 
REMARK    3  A    between atoms: C12_15  and  C13_16 
ROOT
HETATM    1  C5  UNL     1      17.178  52.274   5.467  1.00  0.00     0.038 C 
HETATM    2  N1  UNL     1      16.704  51.092   5.717  1.00  0.00    -0.301 N 
ATOM      3  H1  UNL     1      15.729  50.802   5.641  1.00  0.00     0.187 HD
HETATM    4  N2  UNL     1      17.755  50.307   6.101  1.00  0.00    -0.283 N 
HETATM    5  C12 UNL     1      19.014  51.046   6.215  1.00  0.00     0.147 C 
HETATM    6  C23 UNL     1      18.670  52.404   5.600  1.00  0.00     0.091 C 
ENDROOT
BRANCH   5   7
HETATM    7  C13 UNL     1      19.497  51.209   7.648  1.00  0.00    -0.032 A 
HETATM    8  C14 UNL     1      20.126  50.169   8.346  1.00  0.00     0.010 A 
HETATM    9  C15 UNL     1      20.535  50.344   9.670  1.00  0.00     0.013 A 
HETATM   10  C16 UNL     1      20.319  51.559  10.335  1.00  0.00    -0.026 A 
HETATM   11  C17 UNL     1      20.724  51.748  11.666  1.00  0.00     0.012 A 
HETATM   12  C21 UNL     1      19.679  52.616   9.649  1.00  0.00    -0.025 A 
HETATM   13  C18 UNL     1      20.502  52.964  12.314  1.00  0.00     0.001 A 
HETATM   14  C19 UNL     1      19.870  54.005  11.640  1.00  0.00     0.001 A 
HETATM   15  C20 UNL     1      19.462  53.832  10.316  1.00  0.00     0.012 A 
HETATM   16  C22 UNL     1      19.275  52.426   8.317  1.00  0.00     0.021 A 
ENDBRANCH   5   7
BRANCH   4  17
HETATM   17  C6  UNL     1      17.608  48.925   6.222  1.00  0.00     0.051 A 
HETATM   18  C7  UNL     1      16.350  48.319   6.065  1.00  0.00     0.031 A 
HETATM   19  C8  UNL     1      16.172  46.936   6.182  1.00  0.00     0.002 A 
HETATM   20  C9  UNL     1      17.259  46.119   6.466  1.00  0.00     0.000 A 
HETATM   21  C10 UNL     1      18.518  46.687   6.632  1.00  0.00     0.002 A 
HETATM   22  C11 UNL     1      18.685  48.072   6.511  1.00  0.00     0.031 A 
ENDBRANCH   4  17
BRANCH   1  23
HETATM   23  C4  UNL     1      16.329  53.414   5.045  1.00  0.00    -0.012 A 
HETATM   24  C3  UNL     1      14.944  53.408   5.241  1.00  0.00     0.013 A 
HETATM   25  C2  UNL     1      14.175  54.500   4.831  1.00  0.00     0.001 A 
HETATM   26  C1  UNL     1      14.783  55.598   4.226  1.00  0.00     0.000 A 
HETATM   27  C25 UNL     1      16.163  55.611   4.030  1.00  0.00     0.001 A 
HETATM   28  C24 UNL     1      16.935  54.521   4.439  1.00  0.00     0.013 A 
ENDBRANCH   1  23
TORSDOF 3
ENDMDL
MODEL 7
REMARK minimizedAffinity -7.5465579
REMARK  3 active torsions:
REMARK  status: ('A' for Active; 'I' for Inactive)
REMARK    1  A    between atoms: C4_4  and  C5_5 
REMARK    2  A    between atoms: N2_8  and  C6_9 
REMARK    3  A    between atoms: C12_15  and  C13_16 
ROOT
HETATM    1  C5  UNL     1      14.826  57.134   4.384  1.00  0.00     0.038 C 
HETATM    2  N1  UNL     1      13.837  57.726   4.980  1.00  0.00    -0.301 N 
ATOM      3  H1  UNL     1      13.231  57.322   5.694  1.00  0.00     0.187 HD
HETATM    4  N2  UNL     1      13.757  58.993   4.474  1.00  0.00    -0.283 N 
HETATM    5  C12 UNL     1      14.701  59.236   3.381  1.00  0.00     0.147 C 
HETATM    6  C23 UNL     1      15.592  57.993   3.416  1.00  0.00     0.091 C 
ENDROOT
BRANCH   5   7
HETATM    7  C13 UNL     1      14.035  59.385   2.021  1.00  0.00    -0.032 A 
HETATM    8  C14 UNL     1      13.889  60.630   1.395  1.00  0.00     0.010 A 
HETATM    9  C15 UNL     1      13.249  60.736   0.157  1.00  0.00     0.013 A 
HETATM   10  C16 UNL     1      12.731  59.601  -0.483  1.00  0.00    -0.026 A 
HETATM   11  C17 UNL     1      12.086  59.692  -1.727  1.00  0.00     0.012 A 
HETATM   12  C21 UNL     1      12.863  58.339   0.138  1.00  0.00    -0.025 A 
HETATM   13  C18 UNL     1      11.575  58.553  -2.351  1.00  0.00     0.001 A 
HETATM   14  C19 UNL     1      11.703  57.310  -1.739  1.00  0.00     0.001 A 
HETATM   15  C20 UNL     1      12.343  57.203  -0.503  1.00  0.00     0.012 A 
HETATM   16  C22 UNL     1      13.510  58.248   1.382  1.00  0.00     0.021 A 
ENDBRANCH   5   7
BRANCH   4  17
HETATM   17  C6  UNL     1      12.938  59.952   5.070  1.00  0.00     0.051 A 
HETATM   18  C7  UNL     1      12.364  59.722   6.333  1.00  0.00     0.031 A 
HETATM   19  C8  UNL     1      11.538  60.664   6.955  1.00  0.00     0.002 A 
HETATM   20  C9  UNL     1      11.259  61.868   6.321  1.00  0.00     0.000 A 
HETATM   21  C10 UNL     1      11.807  62.125   5.068  1.00  0.00     0.002 A 
HETATM   22  C11 UNL     1      12.635  61.176   4.454  1.00  0.00     0.031 A 
ENDBRANCH   4  17
BRANCH   1  23
HETATM   23  C4  UNL     1      15.208  55.728   4.651  1.00  0.00    -0.012 A 
HETATM   24  C3  UNL     1      14.261  54.770   5.027  1.00  0.00     0.013 A 
HETATM   25  C2  UNL     1      14.657  53.452   5.272  1.00  0.00     0.001 A 
HETATM   26  C1  UNL     1      15.996  53.087   5.143  1.00  0.00     0.000 A 
HETATM   27  C25 UNL     1      16.944  54.037   4.768  1.00  0.00     0.001 A 
HETATM   28  C24 UNL     1      16.552  55.355   4.521  1.00  0.00     0.013 A 
ENDBRANCH   1  23
TORSDOF 3
ENDMDL
MODEL 8
REMARK minimizedAffinity -7.53045893
REMARK  3 active torsions:
REMARK  status: ('A' for Active; 'I' for Inactive)
REMARK    1  A    between atoms: C4_4  and  C5_5 
REMARK    2  A    between atoms: N2_8  and  C6_9 
REMARK    3  A    between atoms: C12_15  and  C13_16 
ROOT
HETATM    1  C5  UNL     1      13.368  58.784   6.054  1.00  0.00     0.038 C 
HETATM    2  N1  UNL     1      12.824  58.611   4.888  1.00  0.00    -0.301 N 
ATOM      3  H1  UNL     1      11.853  58.798   4.641  1.00  0.00     0.187 HD
HETATM    4  N2  UNL     1      13.795  58.132   4.054  1.00  0.00    -0.283 N 
HETATM    5  C12 UNL     1      15.062  57.867   4.738  1.00  0.00     0.147 C 
HETATM    6  C23 UNL     1      14.841  58.487   6.119  1.00  0.00     0.091 C 
ENDROOT
BRANCH   5   7
HETATM    7  C13 UNL     1      15.392  56.386   4.858  1.00  0.00    -0.032 A 
HETATM    8  C14 UNL     1      14.412  55.424   5.132  1.00  0.00     0.010 A 
HETATM    9  C15 UNL     1      14.752  54.075   5.261  1.00  0.00     0.013 A 
HETATM   10  C16 UNL     1      16.082  53.653   5.128  1.00  0.00    -0.026 A 
HETATM   11  C17 UNL     1      16.439  52.302   5.255  1.00  0.00     0.012 A 
HETATM   12  C21 UNL     1      17.085  54.612   4.859  1.00  0.00    -0.025 A 
HETATM   13  C18 UNL     1      17.768  51.898   5.120  1.00  0.00     0.001 A 
HETATM   14  C19 UNL     1      18.757  52.842   4.858  1.00  0.00     0.001 A 
HETATM   15  C20 UNL     1      18.418  54.189   4.728  1.00  0.00     0.012 A 
HETATM   16  C22 UNL     1      16.728  55.965   4.731  1.00  0.00     0.021 A 
ENDBRANCH   5   7
BRANCH   4  17
HETATM   17  C6  UNL     1      13.581  58.056   2.677  1.00  0.00     0.051 A 
HETATM   18  C7  UNL     1      13.593  56.817   2.016  1.00  0.00     0.031 A 
HETATM   19  C8  UNL     1      13.383  56.710   0.636  1.00  0.00     0.002 A 
HETATM   20  C9  UNL     1      13.158  57.852  -0.121  1.00  0.00     0.000 A 
HETATM   21  C10 UNL     1      13.144  59.096   0.502  1.00  0.00     0.002 A 
HETATM   22  C11 UNL     1      13.353  59.192   1.884  1.00  0.00     0.031 A 
ENDBRANCH   4  17
BRANCH   1  23
HETATM   23  C4  UNL     1      12.617  59.271   7.234  1.00  0.00    -0.012 A 
HETATM   24  C3  UNL     1      12.956  58.876   8.533  1.00  0.00     0.013 A 
HETATM   25  C2  UNL     1      12.226  59.355   9.624  1.00  0.00     0.001 A 
HETATM   26  C1  UNL     1      11.157  60.227   9.423  1.00  0.00     0.000 A 
HETATM   27  C25 UNL     1      10.815  60.625   8.132  1.00  0.00     0.001 A 
HETATM   28  C24 UNL     1      11.544  60.149   7.039  1.00  0.00     0.013 A 
ENDBRANCH   1  23
TORSDOF 3
ENDMDL
MODEL 9
REMARK minimizedAffinity -7.51871824
REMARK  3 active torsions:
REMARK  status: ('A' for Active; 'I' for Inactive)
REMARK    1  A    between atoms: C4_4  and  C5_5 
REMARK    2  A    between atoms: N2_8  and  C6_9 
REMARK    3  A    between atoms: C12_15  and  C13_16 
ROOT
HETATM    1  C5  UNL     1      14.387  57.146   1.888  1.00  0.00     0.038 C 
HETATM    2  N1  UNL     1      13.946  58.346   2.111  1.00  0.00    -0.301 N 
ATOM      3  H1  UNL     1      13.743  58.756   3.023  1.00  0.00     0.187 HD
HETATM    4  N2  UNL     1      13.804  58.959   0.898  1.00  0.00    -0.283 N 
HETATM    5  C12 UNL     1      14.074  58.067  -0.232  1.00  0.00     0.147 C 
HETATM    6  C23 UNL     1      14.662  56.827   0.444  1.00  0.00     0.091 C 
ENDROOT
BRANCH   5   7
HETATM    7  C13 UNL     1      12.832  57.707  -1.034  1.00  0.00    -0.032 A 
HETATM    8  C14 UNL     1      12.021  56.613  -0.702  1.00  0.00     0.010 A 
HETATM    9  C15 UNL     1      10.902  56.295  -1.475  1.00  0.00     0.013 A 
HETATM   10  C16 UNL     1      10.568  57.054  -2.605  1.00  0.00    -0.026 A 
HETATM   11  C17 UNL     1       9.447  56.745  -3.391  1.00  0.00     0.012 A 
HETATM   12  C21 UNL     1      11.380  58.156  -2.959  1.00  0.00    -0.025 A 
HETATM   13  C18 UNL     1       9.128  57.511  -4.513  1.00  0.00     0.001 A 
HETATM   14  C19 UNL     1       9.928  58.595  -4.863  1.00  0.00     0.001 A 
HETATM   15  C20 UNL     1      11.046  58.916  -4.092  1.00  0.00     0.012 A 
HETATM   16  C22 UNL     1      12.501  58.466  -2.171  1.00  0.00     0.021 A 
ENDBRANCH   5   7
BRANCH   4  17
HETATM   17  C6  UNL     1      13.560  60.330   0.814  1.00  0.00     0.051 A 
HETATM   18  C7  UNL     1      12.473  60.822   0.072  1.00  0.00     0.031 A 
HETATM   19  C8  UNL     1      12.204  62.191  -0.032  1.00  0.00     0.002 A 
HETATM   20  C9  UNL     1      13.028  63.110   0.607  1.00  0.00     0.000 A 
HETATM   21  C10 UNL     1      14.116  62.656   1.346  1.00  0.00     0.002 A 
HETATM   22  C11 UNL     1      14.375  61.283   1.445  1.00  0.00     0.031 A 
ENDBRANCH   4  17
BRANCH   1  23
HETATM   23  C4  UNL     1      14.642  56.163   2.967  1.00  0.00    -0.012 A 
HETATM   24  C3  UNL     1      15.941  55.778   3.316  1.00  0.00     0.013 A 
HETATM   25  C2  UNL     1      16.144  54.847   4.339  1.00  0.00     0.001 A 
HETATM   26  C1  UNL     1      15.055  54.300   5.015  1.00  0.00     0.000 A 
HETATM   27  C25 UNL     1      13.759  54.681   4.673  1.00  0.00     0.001 A 
HETATM   28  C24 UNL     1      13.552  55.612   3.652  1.00  0.00     0.013 A 
ENDBRANCH   1  23
TORSDOF 3
ENDMDL
