MODEL 1
REMARK minimizedAffinity -7.95380116
REMARK  3 active torsions:
REMARK  status: ('A' for Active; 'I' for Inactive)
REMARK    1  A    between atoms: C4_4  and  C5_5 
REMARK    2  A    between atoms: N2_8  and  C6_9 
REMARK    3  A    between atoms: C12_15  and  C13_16 
ROOT
HETATM    1  C5  UNL     1      13.916  35.369  18.100  1.00  0.00     0.038 C 
HETATM    2  N1  UNL     1      13.963  36.136  19.146  1.00  0.00    -0.301 N 
ATOM      3  H1  UNL     1      14.742  36.735  19.418  1.00  0.00     0.187 HD
HETATM    4  N2  UNL     1      12.775  35.995  19.823  1.00  0.00    -0.283 N 
HETATM    5  C12 UNL     1      11.961  34.908  19.267  1.00  0.00     0.148 C 
HETATM    6  C23 UNL     1      12.646  34.589  17.936  1.00  0.00     0.091 C 
ENDROOT
BRANCH   5   7
HETATM    7  C13 UNL     1      10.476  35.202  19.069  1.00  0.00    -0.022 A 
HETATM    8  C14 UNL     1      10.121  35.780  17.829  1.00  0.00     0.010 A 
HETATM    9  C15 UNL     1       8.805  36.117  17.537  1.00  0.00     0.002 A 
HETATM   10  C16 UNL     1       7.813  35.897  18.484  1.00  0.00     0.012 A 
HETATM   11  C17 UNL     1       8.119  35.340  19.732  1.00  0.00    -0.025 A 
HETATM   12  C18 UNL     1       7.087  35.144  20.666  1.00  0.00     0.012 A 
HETATM   13  C22 UNL     1       9.458  34.982  20.050  1.00  0.00    -0.018 A 
HETATM   14  C19 UNL     1       7.345  34.599  21.921  1.00  0.00     0.001 A 
HETATM   15  C20 UNL     1       8.641  34.243  22.256  1.00  0.00     0.001 A 
HETATM   16  C21 UNL     1       9.677  34.433  21.338  1.00  0.00     0.013 A 
ENDBRANCH   5   7
BRANCH   4  17
HETATM   17  C6  UNL     1      12.718  36.425  21.155  1.00  0.00     0.051 A 
HETATM   18  C7  UNL     1      11.660  37.242  21.595  1.00  0.00     0.031 A 
HETATM   19  C8  UNL     1      11.559  37.683  22.919  1.00  0.00     0.002 A 
HETATM   20  C9  UNL     1      12.521  37.308  23.849  1.00  0.00     0.000 A 
HETATM   21  C10 UNL     1      13.573  36.492  23.451  1.00  0.00     0.002 A 
HETATM   22  C11 UNL     1      13.666  36.056  22.122  1.00  0.00     0.031 A 
ENDBRANCH   4  17
BRANCH   1  23
HETATM   23  C4  UNL     1      15.023  35.267  17.121  1.00  0.00    -0.012 A 
HETATM   24  C3  UNL     1      16.232  34.683  17.521  1.00  0.00     0.013 A 
HETATM   25  C2  UNL     1      17.292  34.572  16.621  1.00  0.00     0.001 A 
HETATM   26  C1  UNL     1      17.152  35.045  15.317  1.00  0.00     0.000 A 
HETATM   27  C25 UNL     1      15.953  35.631  14.913  1.00  0.00     0.001 A 
HETATM   28  C24 UNL     1      14.888  35.743  15.812  1.00  0.00     0.013 A 
ENDBRANCH   1  23
TORSDOF 3
ENDMDL
MODEL 2
REMARK minimizedAffinity -7.84072304
REMARK  3 active torsions:
REMARK  status: ('A' for Active; 'I' for Inactive)
REMARK    1  A    between atoms: C4_4  and  C5_5 
REMARK    2  A    between atoms: N2_8  and  C6_9 
REMARK    3  A    between atoms: C12_15  and  C13_16 
ROOT
HETATM    1  C5  UNL     1      16.284  38.602  15.060  1.00  0.00     0.038 C 
HETATM    2  N1  UNL     1      16.968  37.675  14.459  1.00  0.00    -0.301 N 
ATOM      3  H1  UNL     1      17.773  37.821  13.849  1.00  0.00     0.187 HD
HETATM    4  N2  UNL     1      16.413  36.463  14.792  1.00  0.00    -0.283 N 
HETATM    5  C12 UNL     1      15.151  36.627  15.524  1.00  0.00     0.148 C 
HETATM    6  C23 UNL     1      15.144  38.110  15.901  1.00  0.00     0.091 C 
ENDROOT
BRANCH   5   7
HETATM    7  C13 UNL     1      14.957  35.742  16.752  1.00  0.00    -0.022 A 
HETATM    8  C14 UNL     1      16.127  35.143  17.272  1.00  0.00     0.010 A 
HETATM    9  C15 UNL     1      16.079  34.296  18.373  1.00  0.00     0.002 A 
HETATM   10  C16 UNL     1      14.859  34.017  18.973  1.00  0.00     0.012 A 
HETATM   11  C17 UNL     1      13.671  34.576  18.484  1.00  0.00    -0.025 A 
HETATM   12  C18 UNL     1      12.455  34.259  19.113  1.00  0.00     0.012 A 
HETATM   13  C22 UNL     1      13.696  35.449  17.362  1.00  0.00    -0.018 A 
HETATM   14  C19 UNL     1      11.249  34.785  18.659  1.00  0.00     0.001 A 
HETATM   15  C20 UNL     1      11.246  35.638  17.567  1.00  0.00     0.001 A 
HETATM   16  C21 UNL     1      12.448  35.962  16.930  1.00  0.00     0.013 A 
ENDBRANCH   5   7
BRANCH   4  17
HETATM   17  C6  UNL     1      16.728  35.352  13.998  1.00  0.00     0.051 A 
HETATM   18  C7  UNL     1      17.910  34.624  14.232  1.00  0.00     0.031 A 
HETATM   19  C8  UNL     1      18.257  33.502  13.471  1.00  0.00     0.002 A 
HETATM   20  C9  UNL     1      17.418  33.071  12.451  1.00  0.00     0.000 A 
HETATM   21  C10 UNL     1      16.239  33.761  12.200  1.00  0.00     0.002 A 
HETATM   22  C11 UNL     1      15.899  34.884  12.967  1.00  0.00     0.031 A 
ENDBRANCH   4  17
BRANCH   1  23
HETATM   23  C4  UNL     1      16.601  40.044  14.944  1.00  0.00    -0.012 A 
HETATM   24  C3  UNL     1      16.998  40.554  13.701  1.00  0.00     0.013 A 
HETATM   25  C2  UNL     1      17.301  41.910  13.561  1.00  0.00     0.001 A 
HETATM   26  C1  UNL     1      17.211  42.761  14.661  1.00  0.00     0.000 A 
HETATM   27  C25 UNL     1      16.820  42.259  15.902  1.00  0.00     0.001 A 
HETATM   28  C24 UNL     1      16.515  40.903  16.046  1.00  0.00     0.013 A 
ENDBRANCH   1  23
TORSDOF 3
ENDMDL
MODEL 3
REMARK minimizedAffinity -7.77983236
REMARK  3 active torsions:
REMARK  status: ('A' for Active; 'I' for Inactive)
REMARK    1  A    between atoms: C4_4  and  C5_5 
REMARK    2  A    between atoms: N2_8  and  C6_9 
REMARK    3  A    between atoms: C12_15  and  C13_16 
ROOT
HETATM    1  C5  UNL     1      13.027  59.386   4.694  1.00  0.00     0.038 C 
HETATM    2  N1  UNL     1      13.343  58.188   5.082  1.00  0.00    -0.301 N 
ATOM      3  H1  UNL     1      13.233  57.812   6.024  1.00  0.00     0.187 HD
HETATM    4  N2  UNL     1      13.852  57.516   3.996  1.00  0.00    -0.283 N 
HETATM    5  C12 UNL     1      14.052  58.412   2.850  1.00  0.00     0.148 C 
HETATM    6  C23 UNL     1      13.294  59.680   3.248  1.00  0.00     0.091 C 
ENDROOT
BRANCH   5   7
HETATM    7  C13 UNL     1      13.590  57.892   1.491  1.00  0.00    -0.022 A 
HETATM    8  C14 UNL     1      13.700  56.497   1.295  1.00  0.00     0.010 A 
HETATM    9  C15 UNL     1      13.335  55.905   0.091  1.00  0.00     0.002 A 
HETATM   10  C16 UNL     1      12.865  56.695  -0.949  1.00  0.00     0.012 A 
HETATM   11  C17 UNL     1      12.753  58.084  -0.805  1.00  0.00    -0.025 A 
HETATM   12  C18 UNL     1      12.283  58.848  -1.887  1.00  0.00     0.012 A 
HETATM   13  C22 UNL     1      13.115  58.711   0.419  1.00  0.00    -0.018 A 
HETATM   14  C19 UNL     1      12.161  60.232  -1.792  1.00  0.00     0.001 A 
HETATM   15  C20 UNL     1      12.508  60.868  -0.611  1.00  0.00     0.001 A 
HETATM   16  C21 UNL     1      12.978  60.120   0.472  1.00  0.00     0.013 A 
ENDBRANCH   5   7
BRANCH   4  17
HETATM   17  C6  UNL     1      14.593  56.350   4.229  1.00  0.00     0.051 A 
HETATM   18  C7  UNL     1      15.989  56.348   4.052  1.00  0.00     0.031 A 
HETATM   19  C8  UNL     1      16.769  55.209   4.285  1.00  0.00     0.002 A 
HETATM   20  C9  UNL     1      16.165  54.033   4.712  1.00  0.00     0.000 A 
HETATM   21  C10 UNL     1      14.790  54.004   4.907  1.00  0.00     0.002 A 
HETATM   22  C11 UNL     1      14.017  55.148   4.670  1.00  0.00     0.031 A 
ENDBRANCH   4  17
BRANCH   1  23
HETATM   23  C4  UNL     1      12.434  60.399   5.597  1.00  0.00    -0.012 A 
HETATM   24  C3  UNL     1      12.203  61.691   5.107  1.00  0.00     0.013 A 
HETATM   25  C2  UNL     1      11.644  62.668   5.934  1.00  0.00     0.001 A 
HETATM   26  C1  UNL     1      11.316  62.359   7.253  1.00  0.00     0.000 A 
HETATM   27  C25 UNL     1      11.547  61.076   7.748  1.00  0.00     0.001 A 
HETATM   28  C24 UNL     1      12.106  60.096   6.923  1.00  0.00     0.013 A 
ENDBRANCH   1  23
TORSDOF 3
ENDMDL
MODEL 4
REMARK minimizedAffinity -7.5942874
REMARK  3 active torsions:
REMARK  status: ('A' for Active; 'I' for Inactive)
REMARK    1  A    between atoms: C4_4  and  C5_5 
REMARK    2  A    between atoms: N2_8  and  C6_9 
REMARK    3  A    between atoms: C12_15  and  C13_16 
ROOT
HETATM    1  C5  UNL     1      13.468  58.825   4.234  1.00  0.00     0.038 C 
HETATM    2  N1  UNL     1      13.661  57.657   4.767  1.00  0.00    -0.301 N 
ATOM      3  H1  UNL     1      13.380  57.369   5.705  1.00  0.00     0.187 HD
HETATM    4  N2  UNL     1      14.310  56.876   3.840  1.00  0.00    -0.283 N 
HETATM    5  C12 UNL     1      14.737  57.660   2.675  1.00  0.00     0.148 C 
HETATM    6  C23 UNL     1      13.981  58.981   2.834  1.00  0.00     0.091 C 
ENDROOT
BRANCH   5   7
HETATM    7  C13 UNL     1      14.482  57.037   1.305  1.00  0.00    -0.022 A 
HETATM    8  C14 UNL     1      13.128  56.781   0.987  1.00  0.00     0.010 A 
HETATM    9  C15 UNL     1      12.768  56.194  -0.220  1.00  0.00     0.002 A 
HETATM   10  C16 UNL     1      13.752  55.835  -1.132  1.00  0.00     0.012 A 
HETATM   11  C17 UNL     1      15.107  56.056  -0.853  1.00  0.00    -0.025 A 
HETATM   12  C18 UNL     1      16.072  55.668  -1.798  1.00  0.00     0.012 A 
HETATM   13  C22 UNL     1      15.499  56.660   0.373  1.00  0.00    -0.018 A 
HETATM   14  C19 UNL     1      17.430  55.861  -1.562  1.00  0.00     0.001 A 
HETATM   15  C20 UNL     1      17.839  56.447  -0.375  1.00  0.00     0.001 A 
HETATM   16  C21 UNL     1      16.891  56.837   0.574  1.00  0.00     0.013 A 
ENDBRANCH   5   7
BRANCH   4  17
HETATM   17  C6  UNL     1      14.950  55.713   4.289  1.00  0.00     0.051 A 
HETATM   18  C7  UNL     1      14.207  54.678   4.886  1.00  0.00     0.031 A 
HETATM   19  C8  UNL     1      14.804  53.495   5.337  1.00  0.00     0.002 A 
HETATM   20  C9  UNL     1      16.173  53.313   5.194  1.00  0.00     0.000 A 
HETATM   21  C10 UNL     1      16.936  54.311   4.599  1.00  0.00     0.002 A 
HETATM   22  C11 UNL     1      16.329  55.492   4.151  1.00  0.00     0.031 A 
ENDBRANCH   4  17
BRANCH   1  23
HETATM   23  C4  UNL     1      12.780  59.932   4.939  1.00  0.00    -0.012 A 
HETATM   24  C3  UNL     1      12.602  61.152   4.274  1.00  0.00     0.013 A 
HETATM   25  C2  UNL     1      11.957  62.213   4.911  1.00  0.00     0.001 A 
HETATM   26  C1  UNL     1      11.489  62.062   6.215  1.00  0.00     0.000 A 
HETATM   27  C25 UNL     1      11.666  60.852   6.884  1.00  0.00     0.001 A 
HETATM   28  C24 UNL     1      12.311  59.786   6.249  1.00  0.00     0.013 A 
ENDBRANCH   1  23
TORSDOF 3
ENDMDL
MODEL 5
REMARK minimizedAffinity -7.582623
REMARK  3 active torsions:
REMARK  status: ('A' for Active; 'I' for Inactive)
REMARK    1  A    between atoms: C4_4  and  C5_5 
REMARK    2  A    between atoms: N2_8  and  C6_9 
REMARK    3  A    between atoms: C12_15  and  C13_16 
ROOT
HETATM    1  C5  UNL     1      14.517  57.207   4.198  1.00  0.00     0.038 C 
HETATM    2  N1  UNL     1      13.904  57.463   3.082  1.00  0.00    -0.301 N 
ATOM      3  H1  UNL     1      13.746  56.806   2.318  1.00  0.00     0.187 HD
HETATM    4  N2  UNL     1      13.505  58.779   3.115  1.00  0.00    -0.283 N 
HETATM    5  C12 UNL     1      14.066  59.486   4.272  1.00  0.00     0.148 C 
HETATM    6  C23 UNL     1      14.610  58.359   5.153  1.00  0.00     0.091 C 
ENDROOT
BRANCH   5   7
HETATM    7  C13 UNL     1      13.109  60.385   5.050  1.00  0.00    -0.022 A 
HETATM    8  C14 UNL     1      12.720  61.579   4.402  1.00  0.00     0.010 A 
HETATM    9  C15 UNL     1      11.871  62.493   5.016  1.00  0.00     0.002 A 
HETATM   10  C16 UNL     1      11.402  62.241   6.298  1.00  0.00     0.012 A 
HETATM   11  C17 UNL     1      11.772  61.078   6.986  1.00  0.00    -0.025 A 
HETATM   12  C18 UNL     1      11.284  60.867   8.286  1.00  0.00     0.012 A 
HETATM   13  C22 UNL     1      12.635  60.127   6.375  1.00  0.00    -0.018 A 
HETATM   14  C19 UNL     1      11.629  59.730   9.010  1.00  0.00     0.001 A 
HETATM   15  C20 UNL     1      12.469  58.787   8.439  1.00  0.00     0.001 A 
HETATM   16  C21 UNL     1      12.963  58.984   7.147  1.00  0.00     0.013 A 
ENDBRANCH   5   7
BRANCH   4  17
HETATM   17  C6  UNL     1      13.155  59.393   1.905  1.00  0.00     0.051 A 
HETATM   18  C7  UNL     1      13.126  58.648   0.712  1.00  0.00     0.031 A 
HETATM   19  C8  UNL     1      12.770  59.219  -0.515  1.00  0.00     0.002 A 
HETATM   20  C9  UNL     1      12.423  60.563  -0.579  1.00  0.00     0.000 A 
HETATM   21  C10 UNL     1      12.431  61.325   0.583  1.00  0.00     0.002 A 
HETATM   22  C11 UNL     1      12.789  60.745   1.807  1.00  0.00     0.031 A 
ENDBRANCH   4  17
BRANCH   1  23
HETATM   23  C4  UNL     1      15.079  55.877   4.525  1.00  0.00    -0.012 A 
HETATM   24  C3  UNL     1      14.209  54.850   4.916  1.00  0.00     0.013 A 
HETATM   25  C2  UNL     1      14.709  53.585   5.230  1.00  0.00     0.001 A 
HETATM   26  C1  UNL     1      16.079  53.340   5.157  1.00  0.00     0.000 A 
HETATM   27  C25 UNL     1      16.951  54.358   4.772  1.00  0.00     0.001 A 
HETATM   28  C24 UNL     1      16.454  55.626   4.457  1.00  0.00     0.013 A 
ENDBRANCH   1  23
TORSDOF 3
ENDMDL
MODEL 6
REMARK minimizedAffinity -7.57105589
REMARK  3 active torsions:
REMARK  status: ('A' for Active; 'I' for Inactive)
REMARK    1  A    between atoms: C4_4  and  C5_5 
REMARK    2  A    between atoms: N2_8  and  C6_9 
REMARK    3  A    between atoms: C12_15  and  C13_16 
ROOT
HETATM    1  C5  UNL     1       4.540  65.385  -5.459  1.00  0.00     0.038 C 
HETATM    2  N1  UNL     1       3.687  64.676  -4.785  1.00  0.00    -0.301 N 
ATOM      3  H1  UNL     1       3.816  63.712  -4.476  1.00  0.00     0.187 HD
HETATM    4  N2  UNL     1       2.578  65.457  -4.560  1.00  0.00    -0.283 N 
HETATM    5  C12 UNL     1       2.643  66.718  -5.309  1.00  0.00     0.148 C 
HETATM    6  C23 UNL     1       4.096  66.780  -5.784  1.00  0.00     0.091 C 
ENDROOT
BRANCH   5   7
HETATM    7  C13 UNL     1       2.254  67.982  -4.547  1.00  0.00    -0.022 A 
HETATM    8  C14 UNL     1       2.368  69.194  -5.266  1.00  0.00     0.010 A 
HETATM    9  C15 UNL     1       2.067  70.416  -4.676  1.00  0.00     0.002 A 
HETATM   10  C16 UNL     1       1.659  70.457  -3.349  1.00  0.00     0.012 A 
HETATM   11  C17 UNL     1       1.546  69.283  -2.593  1.00  0.00    -0.025 A 
HETATM   12  C18 UNL     1       1.140  69.370  -1.251  1.00  0.00     0.012 A 
HETATM   13  C22 UNL     1       1.843  68.021  -3.178  1.00  0.00    -0.018 A 
HETATM   14  C19 UNL     1       1.020  68.231  -0.459  1.00  0.00     0.001 A 
HETATM   15  C20 UNL     1       1.304  66.990  -1.004  1.00  0.00     0.001 A 
HETATM   16  C21 UNL     1       1.710  66.888  -2.337  1.00  0.00     0.013 A 
ENDBRANCH   5   7
BRANCH   4  17
HETATM   17  C6  UNL     1       1.388  64.821  -4.182  1.00  0.00     0.051 A 
HETATM   18  C7  UNL     1       0.189  65.089  -4.869  1.00  0.00     0.031 A 
HETATM   19  C8  UNL     1      -1.018  64.467  -4.532  1.00  0.00     0.002 A 
HETATM   20  C9  UNL     1      -1.056  63.546  -3.493  1.00  0.00     0.000 A 
HETATM   21  C10 UNL     1       0.112  63.251  -2.800  1.00  0.00     0.002 A 
HETATM   22  C11 UNL     1       1.316  63.879  -3.144  1.00  0.00     0.031 A 
ENDBRANCH   4  17
BRANCH   1  23
HETATM   23  C4  UNL     1       5.866  64.873  -5.876  1.00  0.00    -0.012 A 
HETATM   24  C3  UNL     1       6.476  63.867  -5.115  1.00  0.00     0.013 A 
HETATM   25  C2  UNL     1       7.725  63.365  -5.483  1.00  0.00     0.001 A 
HETATM   26  C1  UNL     1       8.372  63.865  -6.612  1.00  0.00     0.000 A 
HETATM   27  C25 UNL     1       7.772  64.869  -7.372  1.00  0.00     0.001 A 
HETATM   28  C24 UNL     1       6.521  65.374  -7.007  1.00  0.00     0.013 A 
ENDBRANCH   1  23
TORSDOF 3
ENDMDL
MODEL 7
REMARK minimizedAffinity -7.50865459
REMARK  3 active torsions:
REMARK  status: ('A' for Active; 'I' for Inactive)
REMARK    1  A    between atoms: C4_4  and  C5_5 
REMARK    2  A    between atoms: N2_8  and  C6_9 
REMARK    3  A    between atoms: C12_15  and  C13_16 
ROOT
HETATM    1  C5  UNL     1      17.374  49.483   4.900  1.00  0.00     0.038 C 
HETATM    2  N1  UNL     1      16.548  50.481   4.809  1.00  0.00    -0.301 N 
ATOM      3  H1  UNL     1      15.627  50.461   4.370  1.00  0.00     0.187 HD
HETATM    4  N2  UNL     1      17.137  51.568   5.409  1.00  0.00    -0.283 N 
HETATM    5  C12 UNL     1      18.538  51.302   5.758  1.00  0.00     0.148 C 
HETATM    6  C23 UNL     1      18.667  49.786   5.598  1.00  0.00     0.091 C 
ENDROOT
BRANCH   5   7
HETATM    7  C13 UNL     1      18.991  51.753   7.144  1.00  0.00    -0.022 A 
HETATM    8  C14 UNL     1      18.890  53.139   7.405  1.00  0.00     0.010 A 
HETATM    9  C15 UNL     1      19.294  53.677   8.621  1.00  0.00     0.002 A 
HETATM   10  C16 UNL     1      19.822  52.846   9.600  1.00  0.00     0.012 A 
HETATM   11  C17 UNL     1      19.956  51.469   9.380  1.00  0.00    -0.025 A 
HETATM   12  C18 UNL     1      20.505  50.664  10.393  1.00  0.00     0.012 A 
HETATM   13  C22 UNL     1      19.544  50.895   8.146  1.00  0.00    -0.018 A 
HETATM   14  C19 UNL     1      20.663  49.292  10.218  1.00  0.00     0.001 A 
HETATM   15  C20 UNL     1      20.271  48.708   9.024  1.00  0.00     0.001 A 
HETATM   16  C21 UNL     1      19.723  49.496   8.008  1.00  0.00     0.013 A 
ENDBRANCH   5   7
BRANCH   4  17
HETATM   17  C6  UNL     1      16.620  52.839   5.126  1.00  0.00     0.051 A 
HETATM   18  C7  UNL     1      17.456  53.851   4.619  1.00  0.00     0.031 A 
HETATM   19  C8  UNL     1      16.978  55.130   4.312  1.00  0.00     0.002 A 
HETATM   20  C9  UNL     1      15.635  55.430   4.499  1.00  0.00     0.000 A 
HETATM   21  C10 UNL     1      14.779  54.451   4.988  1.00  0.00     0.002 A 
HETATM   22  C11 UNL     1      15.267  53.173   5.294  1.00  0.00     0.031 A 
ENDBRANCH   4  17
BRANCH   1  23
HETATM   23  C4  UNL     1      17.073  48.132   4.371  1.00  0.00    -0.012 A 
HETATM   24  C3  UNL     1      18.099  47.180   4.320  1.00  0.00     0.013 A 
HETATM   25  C2  UNL     1      17.847  45.898   3.828  1.00  0.00     0.001 A 
HETATM   26  C1  UNL     1      16.569  45.563   3.382  1.00  0.00     0.000 A 
HETATM   27  C25 UNL     1      15.545  46.508   3.426  1.00  0.00     0.001 A 
HETATM   28  C24 UNL     1      15.794  47.792   3.919  1.00  0.00     0.013 A 
ENDBRANCH   1  23
TORSDOF 3
ENDMDL
MODEL 8
REMARK minimizedAffinity -7.46203041
REMARK  3 active torsions:
REMARK  status: ('A' for Active; 'I' for Inactive)
REMARK    1  A    between atoms: C4_4  and  C5_5 
REMARK    2  A    between atoms: N2_8  and  C6_9 
REMARK    3  A    between atoms: C12_15  and  C13_16 
ROOT
HETATM    1  C5  UNL     1      14.481  57.384   3.874  1.00  0.00     0.038 C 
HETATM    2  N1  UNL     1      13.812  57.586   2.780  1.00  0.00    -0.301 N 
ATOM      3  H1  UNL     1      13.582  56.883   2.077  1.00  0.00     0.187 HD
HETATM    4  N2  UNL     1      13.471  58.917   2.737  1.00  0.00    -0.283 N 
HETATM    5  C12 UNL     1      14.130  59.680   3.804  1.00  0.00     0.148 C 
HETATM    6  C23 UNL     1      14.679  58.596   4.734  1.00  0.00     0.091 C 
ENDROOT
BRANCH   5   7
HETATM    7  C13 UNL     1      13.259  60.675   4.566  1.00  0.00    -0.022 A 
HETATM    8  C14 UNL     1      12.412  60.124   5.555  1.00  0.00     0.010 A 
HETATM    9  C15 UNL     1      11.554  60.923   6.300  1.00  0.00     0.002 A 
HETATM   10  C16 UNL     1      11.511  62.291   6.066  1.00  0.00     0.012 A 
HETATM   11  C17 UNL     1      12.321  62.880   5.086  1.00  0.00    -0.025 A 
HETATM   12  C18 UNL     1      12.238  64.266   4.874  1.00  0.00     0.012 A 
HETATM   13  C22 UNL     1      13.211  62.083   4.315  1.00  0.00    -0.018 A 
HETATM   14  C19 UNL     1      13.019  64.895   3.908  1.00  0.00     0.001 A 
HETATM   15  C20 UNL     1      13.894  64.142   3.142  1.00  0.00     0.001 A 
HETATM   16  C21 UNL     1      13.986  62.761   3.342  1.00  0.00     0.013 A 
ENDBRANCH   5   7
BRANCH   4  17
HETATM   17  C6  UNL     1      13.073  59.458   1.507  1.00  0.00     0.051 A 
HETATM   18  C7  UNL     1      13.247  58.724   0.318  1.00  0.00     0.031 A 
HETATM   19  C8  UNL     1      12.853  59.221  -0.929  1.00  0.00     0.002 A 
HETATM   20  C9  UNL     1      12.263  60.475  -1.019  1.00  0.00     0.000 A 
HETATM   21  C10 UNL     1      12.067  61.222   0.136  1.00  0.00     0.002 A 
HETATM   22  C11 UNL     1      12.465  60.716   1.381  1.00  0.00     0.031 A 
ENDBRANCH   4  17
BRANCH   1  23
HETATM   23  C4  UNL     1      15.007  56.056   4.268  1.00  0.00    -0.012 A 
HETATM   24  C3  UNL     1      14.117  55.094   4.763  1.00  0.00     0.013 A 
HETATM   25  C2  UNL     1      14.583  53.833   5.141  1.00  0.00     0.001 A 
HETATM   26  C1  UNL     1      15.938  53.528   5.028  1.00  0.00     0.000 A 
HETATM   27  C25 UNL     1      16.829  54.483   4.539  1.00  0.00     0.001 A 
HETATM   28  C24 UNL     1      16.367  55.746   4.159  1.00  0.00     0.013 A 
ENDBRANCH   1  23
TORSDOF 3
ENDMDL
MODEL 9
REMARK minimizedAffinity -7.46166801
REMARK  3 active torsions:
REMARK  status: ('A' for Active; 'I' for Inactive)
REMARK    1  A    between atoms: C4_4  and  C5_5 
REMARK    2  A    between atoms: N2_8  and  C6_9 
REMARK    3  A    between atoms: C12_15  and  C13_16 
ROOT
HETATM    1  C5  UNL     1       4.147  65.526  -4.889  1.00  0.00     0.038 C 
HETATM    2  N1  UNL     1       3.346  64.790  -4.180  1.00  0.00    -0.301 N 
ATOM      3  H1  UNL     1       3.477  63.804  -3.954  1.00  0.00     0.187 HD
HETATM    4  N2  UNL     1       2.290  65.578  -3.789  1.00  0.00    -0.283 N 
HETATM    5  C12 UNL     1       2.315  66.887  -4.452  1.00  0.00     0.148 C 
HETATM    6  C23 UNL     1       3.714  66.950  -5.069  1.00  0.00     0.091 C 
ENDROOT
BRANCH   5   7
HETATM    7  C13 UNL     1       2.043  68.102  -3.569  1.00  0.00    -0.022 A 
HETATM    8  C14 UNL     1       1.560  67.825  -2.270  1.00  0.00     0.010 A 
HETATM    9  C15 UNL     1       1.251  68.846  -1.379  1.00  0.00     0.002 A 
HETATM   10  C16 UNL     1       1.405  70.169  -1.770  1.00  0.00     0.012 A 
HETATM   11  C17 UNL     1       1.866  70.493  -3.053  1.00  0.00    -0.025 A 
HETATM   12  C18 UNL     1       1.997  71.845  -3.413  1.00  0.00     0.012 A 
HETATM   13  C22 UNL     1       2.194  69.464  -3.979  1.00  0.00    -0.018 A 
HETATM   14  C19 UNL     1       2.446  72.214  -4.678  1.00  0.00     0.001 A 
HETATM   15  C20 UNL     1       2.770  71.232  -5.599  1.00  0.00     0.001 A 
HETATM   16  C21 UNL     1       2.644  69.883  -5.256  1.00  0.00     0.013 A 
ENDBRANCH   5   7
BRANCH   4  17
HETATM   17  C6  UNL     1       1.126  64.943  -3.334  1.00  0.00     0.051 A 
HETATM   18  C7  UNL     1       0.931  64.715  -1.959  1.00  0.00     0.031 A 
HETATM   19  C8  UNL     1      -0.221  64.095  -1.462  1.00  0.00     0.002 A 
HETATM   20  C9  UNL     1      -1.222  63.691  -2.337  1.00  0.00     0.000 A 
HETATM   21  C10 UNL     1      -1.066  63.911  -3.700  1.00  0.00     0.002 A 
HETATM   22  C11 UNL     1       0.091  64.531  -4.189  1.00  0.00     0.031 A 
ENDBRANCH   4  17
BRANCH   1  23
HETATM   23  C4  UNL     1       5.409  65.017  -5.475  1.00  0.00    -0.012 A 
HETATM   24  C3  UNL     1       5.840  65.529  -6.706  1.00  0.00     0.013 A 
HETATM   25  C2  UNL     1       7.026  65.070  -7.283  1.00  0.00     0.001 A 
HETATM   26  C1  UNL     1       7.784  64.096  -6.635  1.00  0.00     0.000 A 
HETATM   27  C25 UNL     1       7.358  63.580  -5.412  1.00  0.00     0.001 A 
HETATM   28  C24 UNL     1       6.172  64.037  -4.831  1.00  0.00     0.013 A 
ENDBRANCH   1  23
TORSDOF 3
ENDMDL
