MODEL 1
REMARK minimizedAffinity -7.29874563
REMARK CNNscore 0.629993975
REMARK CNNaffinity 6.60406065
REMARK  8 active torsions:
REMARK  status: ('A' for Active; 'I' for Inactive)
REMARK    1  A    between atoms: C2_2  and  C3_3 
REMARK       I    between atoms: C3_3  and  N1_5 
REMARK    2  A    between atoms: N1_5  and  C4_6 
REMARK    3  A    between atoms: C7_9  and  O2_10 
REMARK    4  A    between atoms: C9_12  and  N2_13 
REMARK    5  A    between atoms: N2_13  and  C10_14 
REMARK    6  A    between atoms: C12_16  and  C13_17 
REMARK    7  A    between atoms: C14_20  and  S1_21 
REMARK    8  A    between atoms: C17_25  and  C18_26 
ROOT
HETATM    1  C10 UNL     1      13.120  54.421  -1.597  1.00  0.00     0.106 A 
HETATM    2  C11 UNL     1      12.862  55.490  -0.739  1.00  0.00     0.062 A 
HETATM    3  C12 UNL     1      13.917  56.273  -0.267  1.00  0.00    -0.002 A 
HETATM    4  C24 UNL     1      15.216  55.935  -0.634  1.00  0.00     0.031 A 
HETATM    5  C25 UNL     1      15.394  54.854  -1.472  1.00  0.00     0.090 A 
HETATM    6  N5  UNL     1      14.382  54.100  -1.954  1.00  0.00    -0.352 N 
ATOM      7  H5  UNL     1      14.565  53.308  -2.571  1.00  0.00     0.166 HD
ENDROOT
BRANCH   1   8
HETATM    8  N2  UNL     1      12.016  53.667  -2.045  1.00  0.00    -0.340 N 
HETATM    9  H10 UNL     1      11.252  54.265  -2.355  1.00  0.00     0.167 HD
BRANCH   8  10
HETATM   10  C9  UNL     1      11.993  52.450  -2.766  1.00  0.00     0.069 A 
HETATM   11  C7  UNL     1      11.913  52.492  -4.169  1.00  0.00     0.095 A 
HETATM   12  C6  UNL     1      11.796  51.319  -4.914  1.00  0.00     0.041 A 
HETATM   13  C5  UNL     1      11.795  50.080  -4.268  1.00  0.00     0.032 A 
HETATM   14  C4  UNL     1      11.896  50.009  -2.879  1.00  0.00     0.037 A 
HETATM   15  C26 UNL     1      11.979  51.198  -2.138  1.00  0.00     0.062 A 
BRANCH  11  16
HETATM   16  O2  UNL     1      11.910  53.733  -4.766  1.00  0.00    -0.354 OA
HETATM   17  C8  UNL     1      10.661  54.010  -5.404  1.00  0.00     0.210 C 
ENDBRANCH  11  16
BRANCH  14  18
HETATM   18  N1  UNL     1      11.923  48.802  -2.150  1.00  0.00    -0.324 N 
HETATM   19  C3  UNL     1      10.893  48.231  -1.430  1.00  0.00     0.244 C 
HETATM   20  O1  UNL     1       9.767  48.678  -1.263  1.00  0.00    -0.268 OA
HETATM   21  H4  UNL     1      12.806  48.310  -2.172  1.00  0.00     0.169 HD
BRANCH  19  22
HETATM   22  C2  UNL     1      11.299  46.925  -0.830  1.00  0.00     0.064 C 
HETATM   23  C1  UNL     1      10.380  46.072  -0.363  1.00  0.00     0.017 C 
ENDBRANCH  19  22
ENDBRANCH  14  18
ENDBRANCH   8  10
ENDBRANCH   1   8
BRANCH   3  24
HETATM   24  C13 UNL     1      13.700  57.415   0.603  1.00  0.00     0.072 A 
HETATM   25  N3  UNL     1      13.200  58.601   0.122  1.00  0.00    -0.334 N 
HETATM   26  C14 UNL     1      13.127  59.394   1.163  1.00  0.00     0.146 A 
ATOM     27  H3  UNL     1      12.941  58.818  -0.840  1.00  0.00     0.168 HD
HETATM   28  N4  UNL     1      13.510  58.760   2.318  1.00  0.00    -0.329 N 
HETATM   29  C16 UNL     1      13.463  59.318   3.651  1.00  0.00     0.158 C 
HETATM   30  C17 UNL     1      13.917  57.479   1.976  1.00  0.00     0.074 A 
BRANCH  26  31
HETATM   31  S1  UNL     1      12.611  61.048   1.116  1.00  0.00    -0.098 SA
HETATM   32  C15 UNL     1      13.536  61.641  -0.320  1.00  0.00     0.099 C 
ENDBRANCH  26  31
BRANCH  30  33
HETATM   33  C18 UNL     1      14.390  56.474   2.926  1.00  0.00    -0.007 A 
HETATM   34  C19 UNL     1      13.469  55.720   3.665  1.00  0.00     0.017 A 
HETATM   35  C20 UNL     1      13.916  54.735   4.547  1.00  0.00     0.043 A 
HETATM   36  C21 UNL     1      15.280  54.506   4.685  1.00  0.00     0.116 A 
HETATM   37  F1  UNL     1      15.707  53.554   5.522  1.00  0.00    -0.206 F 
HETATM   38  C22 UNL     1      16.206  55.244   3.960  1.00  0.00     0.043 A 
HETATM   39  C23 UNL     1      15.762  56.229   3.076  1.00  0.00     0.017 A 
ENDBRANCH  30  33
ENDBRANCH   3  24
TORSDOF 8
ENDMDL
MODEL 2
REMARK minimizedAffinity -6.98959255
REMARK CNNscore 0.596736193
REMARK CNNaffinity 6.76163626
REMARK  8 active torsions:
REMARK  status: ('A' for Active; 'I' for Inactive)
REMARK    1  A    between atoms: C2_2  and  C3_3 
REMARK       I    between atoms: C3_3  and  N1_5 
REMARK    2  A    between atoms: N1_5  and  C4_6 
REMARK    3  A    between atoms: C7_9  and  O2_10 
REMARK    4  A    between atoms: C9_12  and  N2_13 
REMARK    5  A    between atoms: N2_13  and  C10_14 
REMARK    6  A    between atoms: C12_16  and  C13_17 
REMARK    7  A    between atoms: C14_20  and  S1_21 
REMARK    8  A    between atoms: C17_25  and  C18_26 
ROOT
HETATM    1  C10 UNL     1      13.136  54.562  -1.590  1.00  0.00     0.106 A 
HETATM    2  C11 UNL     1      14.170  55.334  -1.059  1.00  0.00     0.062 A 
HETATM    3  C12 UNL     1      13.882  56.558  -0.452  1.00  0.00    -0.002 A 
HETATM    4  C24 UNL     1      12.563  56.999  -0.432  1.00  0.00     0.031 A 
HETATM    5  C25 UNL     1      11.597  56.188  -0.991  1.00  0.00     0.090 A 
HETATM    6  N5  UNL     1      11.857  54.993  -1.563  1.00  0.00    -0.352 N 
ATOM      7  H5  UNL     1      11.107  54.430  -1.965  1.00  0.00     0.166 HD
ENDROOT
BRANCH   1   8
HETATM    8  N2  UNL     1      13.485  53.334  -2.188  1.00  0.00    -0.340 N 
HETATM    9  H10 UNL     1      14.274  52.896  -1.717  1.00  0.00     0.167 HD
BRANCH   8  10
HETATM   10  C9  UNL     1      12.650  52.338  -2.748  1.00  0.00     0.069 A 
HETATM   11  C7  UNL     1      12.577  52.219  -4.147  1.00  0.00     0.095 A 
HETATM   12  C6  UNL     1      11.700  51.314  -4.743  1.00  0.00     0.041 A 
HETATM   13  C5  UNL     1      10.906  50.485  -3.947  1.00  0.00     0.032 A 
HETATM   14  C4  UNL     1      10.975  50.567  -2.556  1.00  0.00     0.037 A 
HETATM   15  C26 UNL     1      11.837  51.506  -1.969  1.00  0.00     0.062 A 
BRANCH  11  16
HETATM   16  O2  UNL     1      13.372  53.059  -4.896  1.00  0.00    -0.354 OA
HETATM   17  C8  UNL     1      13.756  52.458  -6.134  1.00  0.00     0.210 C 
ENDBRANCH  11  16
BRANCH  14  18
HETATM   18  N1  UNL     1      10.225  49.755  -1.679  1.00  0.00    -0.324 N 
HETATM   19  C3  UNL     1      10.609  48.562  -1.103  1.00  0.00     0.244 C 
HETATM   20  O1  UNL     1      11.664  47.964  -1.266  1.00  0.00    -0.268 OA
HETATM   21  H4  UNL     1       9.303  50.106  -1.456  1.00  0.00     0.169 HD
BRANCH  19  22
HETATM   22  C2  UNL     1       9.551  48.022  -0.198  1.00  0.00     0.064 C 
HETATM   23  C1  UNL     1       9.426  46.704  -0.001  1.00  0.00     0.017 C 
ENDBRANCH  19  22
ENDBRANCH  14  18
ENDBRANCH   8  10
ENDBRANCH   1   8
BRANCH   3  24
HETATM   24  C13 UNL     1      14.917  57.385   0.143  1.00  0.00     0.072 A 
HETATM   25  N3  UNL     1      15.511  58.408  -0.556  1.00  0.00    -0.334 N 
HETATM   26  C14 UNL     1      16.376  58.938   0.273  1.00  0.00     0.146 A 
ATOM     27  H3  UNL     1      15.319  58.694  -1.516  1.00  0.00     0.168 HD
HETATM   28  N4  UNL     1      16.337  58.338   1.507  1.00  0.00    -0.329 N 
HETATM   29  C16 UNL     1      17.095  58.737   2.671  1.00  0.00     0.158 C 
HETATM   30  C17 UNL     1      15.417  57.303   1.439  1.00  0.00     0.074 A 
BRANCH  26  31
HETATM   31  S1  UNL     1      17.450  60.242  -0.114  1.00  0.00    -0.098 SA
HETATM   32  C15 UNL     1      18.924  59.319  -0.609  1.00  0.00     0.099 C 
ENDBRANCH  26  31
BRANCH  30  33
HETATM   33  C18 UNL     1      15.071  56.422   2.552  1.00  0.00    -0.007 A 
HETATM   34  C19 UNL     1      13.734  56.277   2.943  1.00  0.00     0.017 A 
HETATM   35  C20 UNL     1      13.396  55.409   3.983  1.00  0.00     0.043 A 
HETATM   36  C21 UNL     1      14.396  54.689   4.626  1.00  0.00     0.116 A 
HETATM   37  F1  UNL     1      14.070  53.848   5.615  1.00  0.00    -0.206 F 
HETATM   38  C22 UNL     1      15.727  54.821   4.251  1.00  0.00     0.043 A 
HETATM   39  C23 UNL     1      16.067  55.686   3.211  1.00  0.00     0.017 A 
ENDBRANCH  30  33
ENDBRANCH   3  24
TORSDOF 8
ENDMDL
MODEL 3
REMARK minimizedAffinity -7.23899746
REMARK CNNscore 0.558885336
REMARK CNNaffinity 6.5036602
REMARK  8 active torsions:
REMARK  status: ('A' for Active; 'I' for Inactive)
REMARK    1  A    between atoms: C2_2  and  C3_3 
REMARK       I    between atoms: C3_3  and  N1_5 
REMARK    2  A    between atoms: N1_5  and  C4_6 
REMARK    3  A    between atoms: C7_9  and  O2_10 
REMARK    4  A    between atoms: C9_12  and  N2_13 
REMARK    5  A    between atoms: N2_13  and  C10_14 
REMARK    6  A    between atoms: C12_16  and  C13_17 
REMARK    7  A    between atoms: C14_20  and  S1_21 
REMARK    8  A    between atoms: C17_25  and  C18_26 
ROOT
HETATM    1  C10 UNL     1      12.469  55.571  -1.423  1.00  0.00     0.106 A 
HETATM    2  C11 UNL     1      12.432  56.490  -0.375  1.00  0.00     0.062 A 
HETATM    3  C12 UNL     1      13.600  56.791   0.328  1.00  0.00    -0.002 A 
HETATM    4  C24 UNL     1      14.774  56.125  -0.012  1.00  0.00     0.031 A 
HETATM    5  C25 UNL     1      14.729  55.218  -1.050  1.00  0.00     0.090 A 
HETATM    6  N5  UNL     1      13.611  54.931  -1.752  1.00  0.00    -0.352 N 
ATOM      7  H5  UNL     1      13.630  54.250  -2.511  1.00  0.00     0.166 HD
ENDROOT
BRANCH   1   8
HETATM    8  N2  UNL     1      11.260  55.308  -2.099  1.00  0.00    -0.340 N 
HETATM    9  H10 UNL     1      10.469  55.276  -1.458  1.00  0.00     0.167 HD
BRANCH   8  10
HETATM   10  C9  UNL     1      10.827  55.751  -3.370  1.00  0.00     0.069 A 
HETATM   11  C7  UNL     1      11.035  54.922  -4.488  1.00  0.00     0.095 A 
HETATM   12  C6  UNL     1      10.706  55.356  -5.771  1.00  0.00     0.041 A 
HETATM   13  C5  UNL     1      10.129  56.615  -5.956  1.00  0.00     0.032 A 
HETATM   14  C4  UNL     1       9.891  57.448  -4.862  1.00  0.00     0.037 A 
HETATM   15  C26 UNL     1      10.258  57.014  -3.579  1.00  0.00     0.062 A 
BRANCH  11  16
HETATM   16  O2  UNL     1      11.612  53.692  -4.263  1.00  0.00    -0.354 OA
HETATM   17  C8  UNL     1      12.851  53.555  -4.963  1.00  0.00     0.210 C 
ENDBRANCH  11  16
BRANCH  14  18
HETATM   18  N1  UNL     1       9.295  58.723  -4.957  1.00  0.00    -0.324 N 
HETATM   19  C3  UNL     1       8.625  59.260  -6.036  1.00  0.00     0.244 C 
HETATM   20  O1  UNL     1       8.444  58.744  -7.130  1.00  0.00    -0.268 OA
HETATM   21  H4  UNL     1       9.375  59.294  -4.126  1.00  0.00     0.169 HD
BRANCH  19  22
HETATM   22  C2  UNL     1       8.100  60.625  -5.734  1.00  0.00     0.064 C 
HETATM   23  C1  UNL     1       6.856  60.792  -5.269  1.00  0.00     0.017 C 
ENDBRANCH  19  22
ENDBRANCH  14  18
ENDBRANCH   8  10
ENDBRANCH   1   8
BRANCH   3  24
HETATM   24  C13 UNL     1      13.622  57.762   1.407  1.00  0.00     0.072 A 
HETATM   25  N3  UNL     1      13.212  59.060   1.215  1.00  0.00    -0.334 N 
HETATM   26  C14 UNL     1      13.355  59.645   2.379  1.00  0.00     0.146 A 
ATOM     27  H3  UNL     1      12.869  59.479   0.351  1.00  0.00     0.168 HD
HETATM   28  N4  UNL     1      13.793  58.769   3.341  1.00  0.00    -0.329 N 
HETATM   29  C16 UNL     1      13.968  59.066   4.745  1.00  0.00     0.158 C 
HETATM   30  C17 UNL     1      14.004  57.544   2.727  1.00  0.00     0.074 A 
BRANCH  26  31
HETATM   31  S1  UNL     1      13.035  61.318   2.695  1.00  0.00    -0.098 SA
HETATM   32  C15 UNL     1      14.630  62.047   2.258  1.00  0.00     0.099 C 
ENDBRANCH  26  31
BRANCH  30  33
HETATM   33  C18 UNL     1      14.463  56.338   3.411  1.00  0.00    -0.007 A 
HETATM   34  C19 UNL     1      15.831  56.038   3.464  1.00  0.00     0.017 A 
HETATM   35  C20 UNL     1      16.276  54.905   4.148  1.00  0.00     0.043 A 
HETATM   36  C21 UNL     1      15.353  54.078   4.776  1.00  0.00     0.116 A 
HETATM   37  F1  UNL     1      15.780  52.998   5.441  1.00  0.00    -0.206 F 
HETATM   38  C22 UNL     1      13.993  54.360   4.733  1.00  0.00     0.043 A 
HETATM   39  C23 UNL     1      13.546  55.493   4.052  1.00  0.00     0.017 A 
ENDBRANCH  30  33
ENDBRANCH   3  24
TORSDOF 8
ENDMDL
MODEL 4
REMARK minimizedAffinity -6.35928488
REMARK CNNscore 0.50856483
REMARK CNNaffinity 6.3616004
REMARK  8 active torsions:
REMARK  status: ('A' for Active; 'I' for Inactive)
REMARK    1  A    between atoms: C2_2  and  C3_3 
REMARK       I    between atoms: C3_3  and  N1_5 
REMARK    2  A    between atoms: N1_5  and  C4_6 
REMARK    3  A    between atoms: C7_9  and  O2_10 
REMARK    4  A    between atoms: C9_12  and  N2_13 
REMARK    5  A    between atoms: N2_13  and  C10_14 
REMARK    6  A    between atoms: C12_16  and  C13_17 
REMARK    7  A    between atoms: C14_20  and  S1_21 
REMARK    8  A    between atoms: C17_25  and  C18_26 
ROOT
HETATM    1  C10 UNL     1      12.256  50.866  -1.957  1.00  0.00     0.106 A 
HETATM    2  C11 UNL     1      11.752  52.140  -2.215  1.00  0.00     0.062 A 
HETATM    3  C12 UNL     1      12.603  53.144  -2.680  1.00  0.00    -0.002 A 
HETATM    4  C24 UNL     1      13.956  52.855  -2.835  1.00  0.00     0.031 A 
HETATM    5  C25 UNL     1      14.384  51.576  -2.544  1.00  0.00     0.090 A 
HETATM    6  N5  UNL     1      13.568  50.589  -2.113  1.00  0.00    -0.352 N 
ATOM      7  H5  UNL     1      13.934  49.658  -1.910  1.00  0.00     0.166 HD
ENDROOT
BRANCH   1   8
HETATM    8  N2  UNL     1      11.351  49.892  -1.492  1.00  0.00    -0.340 N 
HETATM    9  H10 UNL     1      11.052  50.079  -0.537  1.00  0.00     0.167 HD
BRANCH   8  10
HETATM   10  C9  UNL     1      10.322  49.215  -2.189  1.00  0.00     0.069 A 
HETATM   11  C7  UNL     1       9.707  48.104  -1.585  1.00  0.00     0.095 A 
HETATM   12  C6  UNL     1       8.753  47.353  -2.271  1.00  0.00     0.041 A 
HETATM   13  C5  UNL     1       8.370  47.725  -3.563  1.00  0.00     0.032 A 
HETATM   14  C4  UNL     1       8.947  48.837  -4.176  1.00  0.00     0.037 A 
HETATM   15  C26 UNL     1       9.931  49.564  -3.488  1.00  0.00     0.062 A 
BRANCH  11  16
HETATM   16  O2  UNL     1      10.118  47.767  -0.314  1.00  0.00    -0.354 OA
HETATM   17  C8  UNL     1       9.274  46.770   0.267  1.00  0.00     0.210 C 
ENDBRANCH  11  16
BRANCH  14  18
HETATM   18  N1  UNL     1       8.605  49.293  -5.466  1.00  0.00    -0.324 N 
HETATM   19  C3  UNL     1       8.175  50.554  -5.826  1.00  0.00     0.244 C 
HETATM   20  O1  UNL     1       7.981  51.510  -5.089  1.00  0.00    -0.268 OA
HETATM   21  H4  UNL     1       8.694  48.603  -6.201  1.00  0.00     0.169 HD
BRANCH  19  22
HETATM   22  C2  UNL     1       7.951  50.659  -7.298  1.00  0.00     0.064 C 
HETATM   23  C1  UNL     1       8.108  49.593  -8.092  1.00  0.00     0.017 C 
ENDBRANCH  19  22
ENDBRANCH  14  18
ENDBRANCH   8  10
ENDBRANCH   1   8
BRANCH   3  24
HETATM   24  C13 UNL     1      12.123  54.478  -2.992  1.00  0.00     0.072 A 
HETATM   25  N3  UNL     1      11.198  54.696  -3.985  1.00  0.00    -0.334 N 
HETATM   26  C14 UNL     1      10.991  55.991  -3.988  1.00  0.00     0.146 A 
ATOM     27  H3  UNL     1      10.764  54.000  -4.589  1.00  0.00     0.168 HD
HETATM   28  N4  UNL     1      11.704  56.626  -3.002  1.00  0.00    -0.329 N 
HETATM   29  C16 UNL     1      11.637  58.032  -2.675  1.00  0.00     0.158 C 
HETATM   30  C17 UNL     1      12.474  55.668  -2.360  1.00  0.00     0.074 A 
BRANCH  26  31
HETATM   31  S1  UNL     1       9.946  56.826  -5.090  1.00  0.00    -0.098 SA
HETATM   32  C15 UNL     1      11.127  57.285  -6.379  1.00  0.00     0.099 C 
ENDBRANCH  26  31
BRANCH  30  33
HETATM   33  C18 UNL     1      13.370  55.935  -1.238  1.00  0.00    -0.007 A 
HETATM   34  C19 UNL     1      14.745  56.087  -1.458  1.00  0.00     0.017 A 
HETATM   35  C20 UNL     1      15.600  56.377  -0.394  1.00  0.00     0.043 A 
HETATM   36  C21 UNL     1      15.077  56.517   0.886  1.00  0.00     0.116 A 
HETATM   37  F1  UNL     1      15.894  56.807   1.904  1.00  0.00    -0.206 F 
HETATM   38  C22 UNL     1      13.716  56.370   1.123  1.00  0.00     0.043 A 
HETATM   39  C23 UNL     1      12.859  56.081   0.060  1.00  0.00     0.017 A 
ENDBRANCH  30  33
ENDBRANCH   3  24
TORSDOF 8
ENDMDL
MODEL 5
REMARK minimizedAffinity -7.01433802
REMARK CNNscore 0.499995708
REMARK CNNaffinity 6.26418447
REMARK  8 active torsions:
REMARK  status: ('A' for Active; 'I' for Inactive)
REMARK    1  A    between atoms: C2_2  and  C3_3 
REMARK       I    between atoms: C3_3  and  N1_5 
REMARK    2  A    between atoms: N1_5  and  C4_6 
REMARK    3  A    between atoms: C7_9  and  O2_10 
REMARK    4  A    between atoms: C9_12  and  N2_13 
REMARK    5  A    between atoms: N2_13  and  C10_14 
REMARK    6  A    between atoms: C12_16  and  C13_17 
REMARK    7  A    between atoms: C14_20  and  S1_21 
REMARK    8  A    between atoms: C17_25  and  C18_26 
ROOT
HETATM    1  C10 UNL     1      16.385  53.504   4.892  1.00  0.00     0.106 A 
HETATM    2  C11 UNL     1      16.503  54.811   4.421  1.00  0.00     0.062 A 
HETATM    3  C12 UNL     1      15.380  55.639   4.375  1.00  0.00    -0.002 A 
HETATM    4  C24 UNL     1      14.150  55.117   4.765  1.00  0.00     0.031 A 
HETATM    5  C25 UNL     1      14.108  53.810   5.205  1.00  0.00     0.090 A 
HETATM    6  N5  UNL     1      15.190  53.004   5.274  1.00  0.00    -0.352 N 
ATOM      7  H5  UNL     1      15.107  52.042   5.605  1.00  0.00     0.166 HD
ENDROOT
BRANCH   1   8
HETATM    8  N2  UNL     1      17.552  52.715   4.918  1.00  0.00    -0.340 N 
HETATM    9  H10 UNL     1      18.391  53.285   5.008  1.00  0.00     0.167 HD
BRANCH   8  10
HETATM   10  C9  UNL     1      17.769  51.451   5.515  1.00  0.00     0.069 A 
HETATM   11  C7  UNL     1      18.499  51.381   6.715  1.00  0.00     0.095 A 
HETATM   12  C6  UNL     1      18.814  50.150   7.290  1.00  0.00     0.041 A 
HETATM   13  C5  UNL     1      18.371  48.967   6.692  1.00  0.00     0.032 A 
HETATM   14  C4  UNL     1      17.626  49.009   5.514  1.00  0.00     0.037 A 
HETATM   15  C26 UNL     1      17.345  50.253   4.927  1.00  0.00     0.062 A 
BRANCH  11  16
HETATM   16  O2  UNL     1      18.922  52.569   7.268  1.00  0.00    -0.354 OA
HETATM   17  C8  UNL     1      19.294  52.411   8.639  1.00  0.00     0.210 C 
ENDBRANCH  11  16
BRANCH  14  18
HETATM   18  N1  UNL     1      17.123  47.867   4.856  1.00  0.00    -0.324 N 
HETATM   19  C3  UNL     1      16.048  47.087   5.230  1.00  0.00     0.244 C 
HETATM   20  O1  UNL     1      15.342  47.221   6.219  1.00  0.00    -0.268 OA
HETATM   21  H4  UNL     1      17.619  47.606   4.014  1.00  0.00     0.169 HD
BRANCH  19  22
HETATM   22  C2  UNL     1      15.801  45.986   4.251  1.00  0.00     0.064 C 
HETATM   23  C1  UNL     1      15.263  46.244   3.052  1.00  0.00     0.017 C 
ENDBRANCH  19  22
ENDBRANCH  14  18
ENDBRANCH   8  10
ENDBRANCH   1   8
BRANCH   3  24
HETATM   24  C13 UNL     1      15.455  57.016   3.922  1.00  0.00     0.072 A 
HETATM   25  N3  UNL     1      15.868  58.027   4.757  1.00  0.00    -0.334 N 
HETATM   26  C14 UNL     1      15.823  59.117   4.030  1.00  0.00     0.146 A 
ATOM     27  H3  UNL     1      16.150  57.946   5.733  1.00  0.00     0.168 HD
HETATM   28  N4  UNL     1      15.447  58.855   2.737  1.00  0.00    -0.329 N 
HETATM   29  C16 UNL     1      15.384  59.815   1.658  1.00  0.00     0.158 C 
HETATM   30  C17 UNL     1      15.171  57.499   2.648  1.00  0.00     0.074 A 
BRANCH  26  31
HETATM   31  S1  UNL     1      16.191  60.709   4.607  1.00  0.00    -0.098 SA
HETATM   32  C15 UNL     1      16.376  60.384   6.375  1.00  0.00     0.099 C 
ENDBRANCH  26  31
BRANCH  30  33
HETATM   33  C18 UNL     1      14.748  56.813   1.430  1.00  0.00    -0.007 A 
HETATM   34  C19 UNL     1      13.385  56.618   1.171  1.00  0.00     0.017 A 
HETATM   35  C20 UNL     1      12.976  55.995  -0.010  1.00  0.00     0.043 A 
HETATM   36  C21 UNL     1      13.930  55.571  -0.926  1.00  0.00     0.116 A 
HETATM   37  F1  UNL     1      13.537  54.985  -2.063  1.00  0.00    -0.206 F 
HETATM   38  C22 UNL     1      15.286  55.756  -0.686  1.00  0.00     0.043 A 
HETATM   39  C23 UNL     1      15.697  56.380   0.492  1.00  0.00     0.017 A 
ENDBRANCH  30  33
ENDBRANCH   3  24
TORSDOF 8
ENDMDL
MODEL 6
REMARK minimizedAffinity -7.12388563
REMARK CNNscore 0.494039714
REMARK CNNaffinity 6.18851614
REMARK  8 active torsions:
REMARK  status: ('A' for Active; 'I' for Inactive)
REMARK    1  A    between atoms: C2_2  and  C3_3 
REMARK       I    between atoms: C3_3  and  N1_5 
REMARK    2  A    between atoms: N1_5  and  C4_6 
REMARK    3  A    between atoms: C7_9  and  O2_10 
REMARK    4  A    between atoms: C9_12  and  N2_13 
REMARK    5  A    between atoms: N2_13  and  C10_14 
REMARK    6  A    between atoms: C12_16  and  C13_17 
REMARK    7  A    between atoms: C14_20  and  S1_21 
REMARK    8  A    between atoms: C17_25  and  C18_26 
ROOT
HETATM    1  C10 UNL     1      13.526  55.934  -0.077  1.00  0.00     0.106 A 
HETATM    2  C11 UNL     1      13.487  56.491   1.200  1.00  0.00     0.062 A 
HETATM    3  C12 UNL     1      14.639  57.060   1.746  1.00  0.00    -0.002 A 
HETATM    4  C24 UNL     1      15.819  57.015   1.009  1.00  0.00     0.031 A 
HETATM    5  C25 UNL     1      15.783  56.433  -0.241  1.00  0.00     0.090 A 
HETATM    6  N5  UNL     1      14.671  55.898  -0.790  1.00  0.00    -0.352 N 
ATOM      7  H5  UNL     1      14.697  55.476  -1.719  1.00  0.00     0.166 HD
ENDROOT
BRANCH   1   8
HETATM    8  N2  UNL     1      12.332  55.377  -0.579  1.00  0.00    -0.340 N 
HETATM    9  H10 UNL     1      11.578  55.425   0.104  1.00  0.00     0.167 HD
BRANCH   8  10
HETATM   10  C9  UNL     1      11.796  55.430  -1.887  1.00  0.00     0.069 A 
HETATM   11  C7  UNL     1      12.174  54.446  -2.818  1.00  0.00     0.095 A 
HETATM   12  C6  UNL     1      11.742  54.510  -4.142  1.00  0.00     0.041 A 
HETATM   13  C5  UNL     1      10.892  55.542  -4.549  1.00  0.00     0.032 A 
HETATM   14  C4  UNL     1      10.483  56.518  -3.641  1.00  0.00     0.037 A 
HETATM   15  C26 UNL     1      10.952  56.461  -2.319  1.00  0.00     0.062 A 
BRANCH  11  16
HETATM   16  O2  UNL     1      13.018  53.450  -2.378  1.00  0.00    -0.354 OA
HETATM   17  C8  UNL     1      12.382  52.170  -2.401  1.00  0.00     0.210 C 
ENDBRANCH  11  16
BRANCH  14  18
HETATM   18  N1  UNL     1       9.612  57.580  -3.962  1.00  0.00    -0.324 N 
HETATM   19  C3  UNL     1       9.186  57.968  -5.215  1.00  0.00     0.244 C 
HETATM   20  O1  UNL     1       9.505  57.482  -6.291  1.00  0.00    -0.268 OA
HETATM   21  H4  UNL     1       9.268  58.104  -3.168  1.00  0.00     0.169 HD
BRANCH  19  22
HETATM   22  C2  UNL     1       8.232  59.115  -5.142  1.00  0.00     0.064 C 
HETATM   23  C1  UNL     1       8.464  60.243  -5.823  1.00  0.00     0.017 C 
ENDBRANCH  19  22
ENDBRANCH  14  18
ENDBRANCH   8  10
ENDBRANCH   1   8
BRANCH   3  24
HETATM   24  C13 UNL     1      14.646  57.680   3.059  1.00  0.00     0.072 A 
HETATM   25  N3  UNL     1      14.275  58.991   3.237  1.00  0.00    -0.334 N 
HETATM   26  C14 UNL     1      14.390  59.212   4.524  1.00  0.00     0.146 A 
ATOM     27  H3  UNL     1      13.975  59.651   2.521  1.00  0.00     0.168 HD
HETATM   28  N4  UNL     1      14.770  58.083   5.205  1.00  0.00    -0.329 N 
HETATM   29  C16 UNL     1      14.902  57.959   6.640  1.00  0.00     0.158 C 
HETATM   30  C17 UNL     1      14.974  57.080   4.271  1.00  0.00     0.074 A 
BRANCH  26  31
HETATM   31  S1  UNL     1      14.099  60.735   5.299  1.00  0.00    -0.098 SA
HETATM   32  C15 UNL     1      12.345  60.568   5.703  1.00  0.00     0.099 C 
ENDBRANCH  26  31
BRANCH  30  33
HETATM   33  C18 UNL     1      15.378  55.713   4.592  1.00  0.00    -0.007 A 
HETATM   34  C19 UNL     1      14.416  54.767   4.970  1.00  0.00     0.017 A 
HETATM   35  C20 UNL     1      14.793  53.451   5.243  1.00  0.00     0.043 A 
HETATM   36  C21 UNL     1      16.129  53.086   5.135  1.00  0.00     0.116 A 
HETATM   37  F1  UNL     1      16.489  51.821   5.385  1.00  0.00    -0.206 F 
HETATM   38  C22 UNL     1      17.096  54.010   4.761  1.00  0.00     0.043 A 
HETATM   39  C23 UNL     1      16.721  55.326   4.486  1.00  0.00     0.017 A 
ENDBRANCH  30  33
ENDBRANCH   3  24
TORSDOF 8
ENDMDL
MODEL 7
REMARK minimizedAffinity -6.29224968
REMARK CNNscore 0.482025623
REMARK CNNaffinity 6.04317284
REMARK  8 active torsions:
REMARK  status: ('A' for Active; 'I' for Inactive)
REMARK    1  A    between atoms: C2_2  and  C3_3 
REMARK       I    between atoms: C3_3  and  N1_5 
REMARK    2  A    between atoms: N1_5  and  C4_6 
REMARK    3  A    between atoms: C7_9  and  O2_10 
REMARK    4  A    between atoms: C9_12  and  N2_13 
REMARK    5  A    between atoms: N2_13  and  C10_14 
REMARK    6  A    between atoms: C12_16  and  C13_17 
REMARK    7  A    between atoms: C14_20  and  S1_21 
REMARK    8  A    between atoms: C17_25  and  C18_26 
ROOT
HETATM    1  C10 UNL     1      13.157  59.584  -0.609  1.00  0.00     0.106 A 
HETATM    2  C11 UNL     1      12.926  59.591   0.766  1.00  0.00     0.062 A 
HETATM    3  C12 UNL     1      13.211  60.736   1.513  1.00  0.00    -0.002 A 
HETATM    4  C24 UNL     1      13.764  61.836   0.865  1.00  0.00     0.031 A 
HETATM    5  C25 UNL     1      13.980  61.748  -0.495  1.00  0.00     0.090 A 
HETATM    6  N5  UNL     1      13.691  60.655  -1.235  1.00  0.00    -0.352 N 
ATOM      7  H5  UNL     1      13.870  60.639  -2.239  1.00  0.00     0.166 HD
ENDROOT
BRANCH   1   8
HETATM    8  N2  UNL     1      12.849  58.403  -1.313  1.00  0.00    -0.340 N 
HETATM    9  H10 UNL     1      13.059  57.571  -0.765  1.00  0.00     0.167 HD
BRANCH   8  10
HETATM   10  C9  UNL     1      11.772  58.135  -2.192  1.00  0.00     0.069 A 
HETATM   11  C7  UNL     1      11.074  56.921  -2.063  1.00  0.00     0.095 A 
HETATM   12  C6  UNL     1      10.066  56.576  -2.962  1.00  0.00     0.041 A 
HETATM   13  C5  UNL     1       9.715  57.458  -3.988  1.00  0.00     0.032 A 
HETATM   14  C4  UNL     1      10.376  58.679  -4.125  1.00  0.00     0.037 A 
HETATM   15  C26 UNL     1      11.412  58.999  -3.233  1.00  0.00     0.062 A 
BRANCH  11  16
HETATM   16  O2  UNL     1      11.456  56.077  -1.043  1.00  0.00    -0.354 OA
HETATM   17  C8  UNL     1      12.149  54.930  -1.540  1.00  0.00     0.210 C 
ENDBRANCH  11  16
BRANCH  14  18
HETATM   18  N1  UNL     1      10.072  59.635  -5.117  1.00  0.00    -0.324 N 
HETATM   19  C3  UNL     1       8.827  59.965  -5.612  1.00  0.00     0.244 C 
HETATM   20  O1  UNL     1       7.751  59.471  -5.306  1.00  0.00    -0.268 OA
HETATM   21  H4  UNL     1      10.870  60.128  -5.494  1.00  0.00     0.169 HD
BRANCH  19  22
HETATM   22  C2  UNL     1       8.911  61.058  -6.627  1.00  0.00     0.064 C 
HETATM   23  C1  UNL     1       8.803  60.787  -7.933  1.00  0.00     0.017 C 
ENDBRANCH  19  22
ENDBRANCH  14  18
ENDBRANCH   8  10
ENDBRANCH   1   8
BRANCH   3  24
HETATM   24  C13 UNL     1      12.960  60.806   2.941  1.00  0.00     0.072 A 
HETATM   25  N3  UNL     1      12.318  61.881   3.507  1.00  0.00    -0.334 N 
HETATM   26  C14 UNL     1      12.255  61.613   4.788  1.00  0.00     0.146 A 
ATOM     27  H3  UNL     1      11.965  62.711   3.031  1.00  0.00     0.168 HD
HETATM   28  N4  UNL     1      12.783  60.380   5.080  1.00  0.00    -0.329 N 
HETATM   29  C16 UNL     1      12.791  59.743   6.377  1.00  0.00     0.158 C 
HETATM   30  C17 UNL     1      13.278  59.847   3.899  1.00  0.00     0.074 A 
BRANCH  26  31
HETATM   31  S1  UNL     1      11.588  62.667   5.992  1.00  0.00    -0.098 SA
HETATM   32  C15 UNL     1      12.114  64.273   5.350  1.00  0.00     0.099 C 
ENDBRANCH  26  31
BRANCH  30  33
HETATM   33  C18 UNL     1      13.912  58.537   3.778  1.00  0.00    -0.007 A 
HETATM   34  C19 UNL     1      15.306  58.420   3.874  1.00  0.00     0.017 A 
HETATM   35  C20 UNL     1      15.912  57.166   3.795  1.00  0.00     0.043 A 
HETATM   36  C21 UNL     1      15.126  56.034   3.621  1.00  0.00     0.116 A 
HETATM   37  F1  UNL     1      15.707  54.831   3.557  1.00  0.00    -0.206 F 
HETATM   38  C22 UNL     1      13.743  56.131   3.523  1.00  0.00     0.043 A 
HETATM   39  C23 UNL     1      13.134  57.384   3.604  1.00  0.00     0.017 A 
ENDBRANCH  30  33
ENDBRANCH   3  24
TORSDOF 8
ENDMDL
MODEL 8
REMARK minimizedAffinity -6.3290987
REMARK CNNscore 0.447339058
REMARK CNNaffinity 6.25144148
REMARK  8 active torsions:
REMARK  status: ('A' for Active; 'I' for Inactive)
REMARK    1  A    between atoms: C2_2  and  C3_3 
REMARK       I    between atoms: C3_3  and  N1_5 
REMARK    2  A    between atoms: N1_5  and  C4_6 
REMARK    3  A    between atoms: C7_9  and  O2_10 
REMARK    4  A    between atoms: C9_12  and  N2_13 
REMARK    5  A    between atoms: N2_13  and  C10_14 
REMARK    6  A    between atoms: C12_16  and  C13_17 
REMARK    7  A    between atoms: C14_20  and  S1_21 
REMARK    8  A    between atoms: C17_25  and  C18_26 
ROOT
HETATM    1  C10 UNL     1      12.535  54.690  -1.963  1.00  0.00     0.106 A 
HETATM    2  C11 UNL     1      13.201  55.297  -0.900  1.00  0.00     0.062 A 
HETATM    3  C12 UNL     1      12.670  56.446  -0.310  1.00  0.00    -0.002 A 
HETATM    4  C24 UNL     1      11.500  56.985  -0.835  1.00  0.00     0.031 A 
HETATM    5  C25 UNL     1      10.906  56.338  -1.900  1.00  0.00     0.090 A 
HETATM    6  N5  UNL     1      11.397  55.215  -2.467  1.00  0.00    -0.352 N 
ATOM      7  H5  UNL     1      10.921  54.774  -3.254  1.00  0.00     0.166 HD
ENDROOT
BRANCH   1   8
HETATM    8  N2  UNL     1      13.116  53.531  -2.517  1.00  0.00    -0.340 N 
HETATM    9  H10 UNL     1      14.021  53.326  -2.098  1.00  0.00     0.167 HD
BRANCH   8  10
HETATM   10  C9  UNL     1      12.498  52.328  -2.934  1.00  0.00     0.069 A 
HETATM   11  C7  UNL     1      12.638  51.920  -4.273  1.00  0.00     0.095 A 
HETATM   12  C6  UNL     1      11.974  50.790  -4.749  1.00  0.00     0.041 A 
HETATM   13  C5  UNL     1      11.186  50.028  -3.883  1.00  0.00     0.032 A 
HETATM   14  C4  UNL     1      11.049  50.397  -2.545  1.00  0.00     0.037 A 
HETATM   15  C26 UNL     1      11.696  51.555  -2.086  1.00  0.00     0.062 A 
BRANCH  11  16
HETATM   16  O2  UNL     1      13.417  52.703  -5.095  1.00  0.00    -0.354 OA
HETATM   17  C8  UNL     1      14.701  52.116  -5.322  1.00  0.00     0.210 C 
ENDBRANCH  11  16
BRANCH  14  18
HETATM   18  N1  UNL     1      10.292  49.674  -1.599  1.00  0.00    -0.324 N 
HETATM   19  C3  UNL     1      10.522  48.394  -1.140  1.00  0.00     0.244 C 
HETATM   20  O1  UNL     1      11.412  47.629  -1.486  1.00  0.00    -0.268 OA
HETATM   21  H4  UNL     1       9.494  50.169  -1.223  1.00  0.00     0.169 HD
BRANCH  19  22
HETATM   22  C2  UNL     1       9.521  47.991  -0.108  1.00  0.00     0.064 C 
HETATM   23  C1  UNL     1       9.411  46.714   0.278  1.00  0.00     0.017 C 
ENDBRANCH  19  22
ENDBRANCH  14  18
ENDBRANCH   8  10
ENDBRANCH   1   8
BRANCH   3  24
HETATM   24  C13 UNL     1      13.308  57.098   0.819  1.00  0.00     0.072 A 
HETATM   25  N3  UNL     1      13.774  56.382   1.895  1.00  0.00    -0.334 N 
HETATM   26  C14 UNL     1      14.287  57.272   2.709  1.00  0.00     0.146 A 
ATOM     27  H3  UNL     1      13.731  55.372   2.031  1.00  0.00     0.168 HD
HETATM   28  N4  UNL     1      14.224  58.539   2.186  1.00  0.00    -0.329 N 
HETATM   29  C16 UNL     1      14.777  59.734   2.784  1.00  0.00     0.158 C 
HETATM   30  C17 UNL     1      13.562  58.458   0.971  1.00  0.00     0.074 A 
BRANCH  26  31
HETATM   31  S1  UNL     1      14.973  56.919   4.261  1.00  0.00    -0.098 SA
HETATM   32  C15 UNL     1      15.589  55.244   3.974  1.00  0.00     0.099 C 
ENDBRANCH  26  31
BRANCH  30  33
HETATM   33  C18 UNL     1      13.299  59.592   0.088  1.00  0.00    -0.007 A 
HETATM   34  C19 UNL     1      13.988  59.713  -1.125  1.00  0.00     0.017 A 
HETATM   35  C20 UNL     1      13.714  60.776  -1.987  1.00  0.00     0.043 A 
HETATM   36  C21 UNL     1      12.751  61.713  -1.633  1.00  0.00     0.116 A 
HETATM   37  F1  UNL     1      12.479  62.726  -2.464  1.00  0.00    -0.206 F 
HETATM   38  C22 UNL     1      12.058  61.609  -0.434  1.00  0.00     0.043 A 
HETATM   39  C23 UNL     1      12.329  60.546   0.429  1.00  0.00     0.017 A 
ENDBRANCH  30  33
ENDBRANCH   3  24
TORSDOF 8
ENDMDL
MODEL 9
REMARK minimizedAffinity -6.13290501
REMARK CNNscore 0.444094062
REMARK CNNaffinity 5.57669878
REMARK  8 active torsions:
REMARK  status: ('A' for Active; 'I' for Inactive)
REMARK    1  A    between atoms: C2_2  and  C3_3 
REMARK       I    between atoms: C3_3  and  N1_5 
REMARK    2  A    between atoms: N1_5  and  C4_6 
REMARK    3  A    between atoms: C7_9  and  O2_10 
REMARK    4  A    between atoms: C9_12  and  N2_13 
REMARK    5  A    between atoms: N2_13  and  C10_14 
REMARK    6  A    between atoms: C12_16  and  C13_17 
REMARK    7  A    between atoms: C14_20  and  S1_21 
REMARK    8  A    between atoms: C17_25  and  C18_26 
ROOT
HETATM    1  C10 UNL     1      16.756  54.336   5.520  1.00  0.00     0.106 A 
HETATM    2  C11 UNL     1      16.269  55.593   5.165  1.00  0.00     0.062 A 
HETATM    3  C12 UNL     1      14.920  55.750   4.840  1.00  0.00    -0.002 A 
HETATM    4  C24 UNL     1      14.099  54.626   4.836  1.00  0.00     0.031 A 
HETATM    5  C25 UNL     1      14.657  53.412   5.183  1.00  0.00     0.090 A 
HETATM    6  N5  UNL     1      15.955  53.249   5.520  1.00  0.00    -0.352 N 
ATOM      7  H5  UNL     1      16.321  52.329   5.767  1.00  0.00     0.166 HD
ENDROOT
BRANCH   1   8
HETATM    8  N2  UNL     1      18.125  54.238   5.841  1.00  0.00    -0.340 N 
HETATM    9  H10 UNL     1      18.662  55.005   5.441  1.00  0.00     0.167 HD
BRANCH   8  10
HETATM   10  C9  UNL     1      18.738  53.799   7.038  1.00  0.00     0.069 A 
HETATM   11  C7  UNL     1      18.907  52.419   7.250  1.00  0.00     0.095 A 
HETATM   12  C6  UNL     1      19.422  51.938   8.453  1.00  0.00     0.041 A 
HETATM   13  C5  UNL     1      19.814  52.833   9.452  1.00  0.00     0.032 A 
HETATM   14  C4  UNL     1      19.679  54.208   9.258  1.00  0.00     0.037 A 
HETATM   15  C26 UNL     1      19.127  54.678   8.057  1.00  0.00     0.062 A 
BRANCH  11  16
HETATM   16  O2  UNL     1      18.502  51.570   6.244  1.00  0.00    -0.354 OA
HETATM   17  C8  UNL     1      17.847  50.411   6.763  1.00  0.00     0.210 C 
ENDBRANCH  11  16
BRANCH  14  18
HETATM   18  N1  UNL     1      20.067  55.180  10.204  1.00  0.00    -0.324 N 
HETATM   19  C3  UNL     1      19.686  55.266  11.527  1.00  0.00     0.244 C 
HETATM   20  O1  UNL     1      18.914  54.531  12.126  1.00  0.00    -0.268 OA
HETATM   21  H4  UNL     1      20.702  55.886   9.854  1.00  0.00     0.169 HD
BRANCH  19  22
HETATM   22  C2  UNL     1      20.344  56.416  12.216  1.00  0.00     0.064 C 
HETATM   23  C1  UNL     1      20.764  57.480  11.521  1.00  0.00     0.017 C 
ENDBRANCH  19  22
ENDBRANCH  14  18
ENDBRANCH   8  10
ENDBRANCH   1   8
BRANCH   3  24
HETATM   24  C13 UNL     1      14.355  57.041   4.493  1.00  0.00     0.072 A 
HETATM   25  N3  UNL     1      13.956  57.934   5.458  1.00  0.00    -0.334 N 
HETATM   26  C14 UNL     1      13.511  58.978   4.802  1.00  0.00     0.146 A 
ATOM     27  H3  UNL     1      13.996  57.811   6.469  1.00  0.00     0.168 HD
HETATM   28  N4  UNL     1      13.652  58.828   3.445  1.00  0.00    -0.329 N 
HETATM   29  C16 UNL     1      13.345  59.824   2.443  1.00  0.00     0.158 C 
HETATM   30  C17 UNL     1      14.170  57.563   3.216  1.00  0.00     0.074 A 
BRANCH  26  31
HETATM   31  S1  UNL     1      12.826  60.392   5.534  1.00  0.00    -0.098 SA
HETATM   32  C15 UNL     1      12.396  59.743   7.165  1.00  0.00     0.099 C 
ENDBRANCH  26  31
BRANCH  30  33
HETATM   33  C18 UNL     1      14.480  57.016   1.897  1.00  0.00    -0.007 A 
HETATM   34  C19 UNL     1      13.467  56.434   1.122  1.00  0.00     0.017 A 
HETATM   35  C20 UNL     1      13.753  55.943  -0.152  1.00  0.00     0.043 A 
HETATM   36  C21 UNL     1      15.047  56.037  -0.649  1.00  0.00     0.116 A 
HETATM   37  F1  UNL     1      15.318  55.577  -1.875  1.00  0.00    -0.206 F 
HETATM   38  C22 UNL     1      16.063  56.611   0.105  1.00  0.00     0.043 A 
HETATM   39  C23 UNL     1      15.780  57.104   1.380  1.00  0.00     0.017 A 
ENDBRANCH  30  33
ENDBRANCH   3  24
TORSDOF 8
ENDMDL
