MODEL 1
REMARK minimizedAffinity -7.73310804
REMARK  3 active torsions:
REMARK  status: ('A' for Active; 'I' for Inactive)
REMARK    1  A    between atoms: C4_5  and  C5_6 
REMARK    2  A    between atoms: N2_9  and  C6_10 
REMARK    3  A    between atoms: C12_16  and  C13_17 
ROOT
HETATM    1  C5  UNL     1      13.984  58.870   3.287  1.00  0.00     0.038 C 
HETATM    2  N1  UNL     1      13.402  58.287   2.283  1.00  0.00    -0.301 N 
ATOM      3  H1  UNL     1      12.533  58.578   1.835  1.00  0.00     0.187 HD
HETATM    4  N2  UNL     1      14.169  57.211   1.939  1.00  0.00    -0.283 N 
HETATM    5  C12 UNL     1      15.321  57.012   2.828  1.00  0.00     0.148 C 
HETATM    6  C23 UNL     1      15.295  58.266   3.705  1.00  0.00     0.091 C 
ENDROOT
BRANCH   5   7
HETATM    7  C13 UNL     1      15.239  55.752   3.691  1.00  0.00    -0.022 A 
HETATM    8  C14 UNL     1      13.988  55.312   4.169  1.00  0.00     0.010 A 
HETATM    9  C15 UNL     1      13.879  54.180   4.967  1.00  0.00     0.002 A 
HETATM   10  C16 UNL     1      15.021  53.468   5.316  1.00  0.00     0.012 A 
HETATM   11  C17 UNL     1      16.287  53.880   4.880  1.00  0.00    -0.025 A 
HETATM   12  C18 UNL     1      17.424  53.147   5.261  1.00  0.00     0.012 A 
HETATM   13  C22 UNL     1      16.419  55.035   4.063  1.00  0.00    -0.018 A 
HETATM   14  C19 UNL     1      18.698  53.533   4.855  1.00  0.00     0.001 A 
HETATM   15  C20 UNL     1      18.852  54.661   4.063  1.00  0.00     0.001 A 
HETATM   16  C21 UNL     1      17.732  55.401   3.674  1.00  0.00     0.013 A 
ENDBRANCH   5   7
BRANCH   4  17
HETATM   17  C6  UNL     1      13.973  56.556   0.721  1.00  0.00     0.051 A 
HETATM   18  C7  UNL     1      12.681  56.405   0.186  1.00  0.00     0.031 A 
HETATM   19  C8  UNL     1      12.454  55.750  -1.029  1.00  0.00     0.002 A 
HETATM   20  C9  UNL     1      13.522  55.220  -1.743  1.00  0.00     0.000 A 
HETATM   21  C10 UNL     1      14.811  55.346  -1.236  1.00  0.00     0.002 A 
HETATM   22  C11 UNL     1      15.030  56.004  -0.020  1.00  0.00     0.031 A 
ENDBRANCH   4  17
BRANCH   1  23
HETATM   23  C4  UNL     1      13.426  60.068   3.956  1.00  0.00    -0.012 A 
HETATM   24  C3  UNL     1      13.530  61.342   3.385  1.00  0.00     0.015 A 
HETATM   25  C2  UNL     1      12.992  62.453   4.045  1.00  0.00     0.020 A 
HETATM   26  C1  UNL     1      12.351  62.289   5.273  1.00  0.00     0.011 A 
HETATM   27 BR1  UNL     1      11.626  63.791   6.160  1.00  0.00    -0.051 Br
HETATM   28  C25 UNL     1      12.242  61.025   5.849  1.00  0.00     0.020 A 
HETATM   29  C24 UNL     1      12.778  59.916   5.191  1.00  0.00     0.015 A 
ENDBRANCH   1  23
TORSDOF 3
ENDMDL
MODEL 2
REMARK minimizedAffinity -7.71904612
REMARK  3 active torsions:
REMARK  status: ('A' for Active; 'I' for Inactive)
REMARK    1  A    between atoms: C4_5  and  C5_6 
REMARK    2  A    between atoms: N2_9  and  C6_10 
REMARK    3  A    between atoms: C12_16  and  C13_17 
ROOT
HETATM    1  C5  UNL     1      13.570  58.678   5.561  1.00  0.00     0.038 C 
HETATM    2  N1  UNL     1      12.967  58.422   4.440  1.00  0.00    -0.301 N 
ATOM      3  H1  UNL     1      12.011  58.679   4.196  1.00  0.00     0.187 HD
HETATM    4  N2  UNL     1      13.850  57.744   3.649  1.00  0.00    -0.283 N 
HETATM    5  C12 UNL     1      15.125  57.457   4.319  1.00  0.00     0.148 C 
HETATM    6  C23 UNL     1      15.007  58.241   5.628  1.00  0.00     0.091 C 
ENDROOT
BRANCH   5   7
HETATM    7  C13 UNL     1      15.368  55.974   4.602  1.00  0.00    -0.022 A 
HETATM    8  C14 UNL     1      14.298  55.160   5.025  1.00  0.00     0.010 A 
HETATM    9  C15 UNL     1      14.486  53.811   5.305  1.00  0.00     0.002 A 
HETATM   10  C16 UNL     1      15.751  53.249   5.178  1.00  0.00     0.012 A 
HETATM   11  C17 UNL     1      16.846  54.025   4.778  1.00  0.00    -0.025 A 
HETATM   12  C18 UNL     1      18.115  53.430   4.672  1.00  0.00     0.012 A 
HETATM   13  C22 UNL     1      16.674  55.405   4.489  1.00  0.00    -0.018 A 
HETATM   14  C19 UNL     1      19.228  54.173   4.288  1.00  0.00     0.001 A 
HETATM   15  C20 UNL     1      19.086  55.524   4.007  1.00  0.00     0.001 A 
HETATM   16  C21 UNL     1      17.830  56.131   4.106  1.00  0.00     0.013 A 
ENDBRANCH   5   7
BRANCH   4  17
HETATM   17  C6  UNL     1      13.608  57.585   2.283  1.00  0.00     0.051 A 
HETATM   18  C7  UNL     1      13.221  58.681   1.490  1.00  0.00     0.031 A 
HETATM   19  C8  UNL     1      12.967  58.550   0.120  1.00  0.00     0.002 A 
HETATM   20  C9  UNL     1      13.091  57.310  -0.494  1.00  0.00     0.000 A 
HETATM   21  C10 UNL     1      13.464  56.206   0.264  1.00  0.00     0.002 A 
HETATM   22  C11 UNL     1      13.717  56.346   1.635  1.00  0.00     0.031 A 
ENDBRANCH   4  17
BRANCH   1  23
HETATM   23  C4  UNL     1      12.914  59.383   6.687  1.00  0.00    -0.012 A 
HETATM   24  C3  UNL     1      13.154  59.021   8.018  1.00  0.00     0.015 A 
HETATM   25  C2  UNL     1      12.517  59.707   9.057  1.00  0.00     0.020 A 
HETATM   26  C1  UNL     1      11.642  60.753   8.766  1.00  0.00     0.011 A 
HETATM   27 BR1  UNL     1      10.784  61.677  10.173  1.00  0.00    -0.051 Br
HETATM   28  C25 UNL     1      11.396  61.121   7.445  1.00  0.00     0.020 A 
HETATM   29  C24 UNL     1      12.033  60.436   6.406  1.00  0.00     0.015 A 
ENDBRANCH   1  23
TORSDOF 3
ENDMDL
MODEL 3
REMARK minimizedAffinity -7.6891799
REMARK  3 active torsions:
REMARK  status: ('A' for Active; 'I' for Inactive)
REMARK    1  A    between atoms: C4_5  and  C5_6 
REMARK    2  A    between atoms: N2_9  and  C6_10 
REMARK    3  A    between atoms: C12_16  and  C13_17 
ROOT
HETATM    1  C5  UNL     1      14.873  57.283   4.747  1.00  0.00     0.038 C 
HETATM    2  N1  UNL     1      13.840  57.738   5.387  1.00  0.00    -0.301 N 
ATOM      3  H1  UNL     1      13.271  57.224   6.060  1.00  0.00     0.187 HD
HETATM    4  N2  UNL     1      13.655  59.032   4.994  1.00  0.00    -0.283 N 
HETATM    5  C12 UNL     1      14.596  59.460   3.950  1.00  0.00     0.148 C 
HETATM    6  C23 UNL     1      15.568  58.281   3.863  1.00  0.00     0.091 C 
ENDROOT
BRANCH   5   7
HETATM    7  C13 UNL     1      13.950  59.724   2.590  1.00  0.00    -0.022 A 
HETATM    8  C14 UNL     1      13.638  61.044   2.209  1.00  0.00     0.010 A 
HETATM    9  C15 UNL     1      13.037  61.319   0.986  1.00  0.00     0.002 A 
HETATM   10  C16 UNL     1      12.724  60.277   0.121  1.00  0.00     0.012 A 
HETATM   11  C17 UNL     1      12.999  58.948   0.467  1.00  0.00    -0.025 A 
HETATM   12  C18 UNL     1      12.658  57.915  -0.424  1.00  0.00     0.012 A 
HETATM   13  C22 UNL     1      13.612  58.647   1.712  1.00  0.00    -0.018 A 
HETATM   14  C19 UNL     1      12.906  56.583  -0.109  1.00  0.00     0.001 A 
HETATM   15  C20 UNL     1      13.498  56.264   1.104  1.00  0.00     0.001 A 
HETATM   16  C21 UNL     1      13.844  57.279   2.001  1.00  0.00     0.013 A 
ENDBRANCH   5   7
BRANCH   4  17
HETATM   17  C6  UNL     1      12.813  59.883   5.713  1.00  0.00     0.051 A 
HETATM   18  C7  UNL     1      12.398  59.552   7.015  1.00  0.00     0.031 A 
HETATM   19  C8  UNL     1      11.552  60.382   7.757  1.00  0.00     0.002 A 
HETATM   20  C9  UNL     1      11.092  61.574   7.209  1.00  0.00     0.000 A 
HETATM   21  C10 UNL     1      11.479  61.926   5.920  1.00  0.00     0.002 A 
HETATM   22  C11 UNL     1      12.327  61.090   5.185  1.00  0.00     0.031 A 
ENDBRANCH   4  17
BRANCH   1  23
HETATM   23  C4  UNL     1      15.366  55.893   4.895  1.00  0.00    -0.012 A 
HETATM   24  C3  UNL     1      14.485  54.812   5.014  1.00  0.00     0.015 A 
HETATM   25  C2  UNL     1      14.983  53.512   5.154  1.00  0.00     0.020 A 
HETATM   26  C1  UNL     1      16.361  53.295   5.172  1.00  0.00     0.011 A 
HETATM   27 BR1  UNL     1      17.030  51.538   5.359  1.00  0.00    -0.051 Br
HETATM   28  C25 UNL     1      17.246  54.364   5.053  1.00  0.00     0.020 A 
HETATM   29  C24 UNL     1      16.748  55.662   4.914  1.00  0.00     0.015 A 
ENDBRANCH   1  23
TORSDOF 3
ENDMDL
MODEL 4
REMARK minimizedAffinity -7.51917028
REMARK  3 active torsions:
REMARK  status: ('A' for Active; 'I' for Inactive)
REMARK    1  A    between atoms: C4_5  and  C5_6 
REMARK    2  A    between atoms: N2_9  and  C6_10 
REMARK    3  A    between atoms: C12_16  and  C13_17 
ROOT
HETATM    1  C5  UNL     1       3.681  65.961  -5.109  1.00  0.00     0.038 C 
HETATM    2  N1  UNL     1       3.629  66.824  -4.140  1.00  0.00    -0.301 N 
ATOM      3  H1  UNL     1       4.426  67.230  -3.649  1.00  0.00     0.187 HD
HETATM    4  N2  UNL     1       2.311  67.087  -3.901  1.00  0.00    -0.283 N 
HETATM    5  C12 UNL     1       1.400  66.282  -4.725  1.00  0.00     0.148 C 
HETATM    6  C23 UNL     1       2.352  65.580  -5.697  1.00  0.00     0.091 C 
ENDROOT
BRANCH   5   7
HETATM    7  C13 UNL     1       0.583  65.255  -3.941  1.00  0.00    -0.022 A 
HETATM    8  C14 UNL     1       1.189  64.055  -3.518  1.00  0.00     0.010 A 
HETATM    9  C15 UNL     1       0.472  63.093  -2.816  1.00  0.00     0.002 A 
HETATM   10  C16 UNL     1      -0.872  63.306  -2.530  1.00  0.00     0.012 A 
HETATM   11  C17 UNL     1      -1.519  64.476  -2.947  1.00  0.00    -0.025 A 
HETATM   12  C18 UNL     1      -2.882  64.656  -2.653  1.00  0.00     0.012 A 
HETATM   13  C22 UNL     1      -0.804  65.470  -3.666  1.00  0.00    -0.018 A 
HETATM   14  C19 UNL     1      -3.561  65.801  -3.061  1.00  0.00     0.001 A 
HETATM   15  C20 UNL     1      -2.885  66.782  -3.770  1.00  0.00     0.001 A 
HETATM   16  C21 UNL     1      -1.528  66.619  -4.069  1.00  0.00     0.013 A 
ENDBRANCH   5   7
BRANCH   4  17
HETATM   17  C6  UNL     1       1.932  68.185  -3.125  1.00  0.00     0.051 A 
HETATM   18  C7  UNL     1       1.315  68.003  -1.874  1.00  0.00     0.031 A 
HETATM   19  C8  UNL     1       0.921  69.084  -1.078  1.00  0.00     0.002 A 
HETATM   20  C9  UNL     1       1.132  70.384  -1.519  1.00  0.00     0.000 A 
HETATM   21  C10 UNL     1       1.733  70.598  -2.755  1.00  0.00     0.002 A 
HETATM   22  C11 UNL     1       2.125  69.510  -3.545  1.00  0.00     0.031 A 
ENDBRANCH   4  17
BRANCH   1  23
HETATM   23  C4  UNL     1       4.954  65.411  -5.631  1.00  0.00    -0.012 A 
HETATM   24  C3  UNL     1       5.419  65.730  -6.912  1.00  0.00     0.015 A 
HETATM   25  C2  UNL     1       6.625  65.191  -7.375  1.00  0.00     0.020 A 
HETATM   26  C1  UNL     1       7.364  64.338  -6.557  1.00  0.00     0.011 A 
HETATM   27 BR1  UNL     1       8.993  63.614  -7.185  1.00  0.00    -0.051 Br
HETATM   28  C25 UNL     1       6.910  64.015  -5.280  1.00  0.00     0.020 A 
HETATM   29  C24 UNL     1       5.706  64.552  -4.817  1.00  0.00     0.015 A 
ENDBRANCH   1  23
TORSDOF 3
ENDMDL
MODEL 5
REMARK minimizedAffinity -7.51535559
REMARK  3 active torsions:
REMARK  status: ('A' for Active; 'I' for Inactive)
REMARK    1  A    between atoms: C4_5  and  C5_6 
REMARK    2  A    between atoms: N2_9  and  C6_10 
REMARK    3  A    between atoms: C12_16  and  C13_17 
ROOT
HETATM    1  C5  UNL     1       6.762  63.646  -5.637  1.00  0.00     0.038 C 
HETATM    2  N1  UNL     1       5.703  63.723  -4.890  1.00  0.00    -0.301 N 
ATOM      3  H1  UNL     1       5.390  63.027  -4.213  1.00  0.00     0.187 HD
HETATM    4  N2  UNL     1       5.087  64.906  -5.178  1.00  0.00    -0.283 N 
HETATM    5  C12 UNL     1       5.744  65.653  -6.259  1.00  0.00     0.148 C 
HETATM    6  C23 UNL     1       7.024  64.849  -6.500  1.00  0.00     0.091 C 
ENDROOT
BRANCH   5   7
HETATM    7  C13 UNL     1       4.923  65.753  -7.545  1.00  0.00    -0.022 A 
HETATM    8  C14 UNL     1       3.530  65.953  -7.470  1.00  0.00     0.010 A 
HETATM    9  C15 UNL     1       2.751  66.035  -8.619  1.00  0.00     0.002 A 
HETATM   10  C16 UNL     1       3.347  65.906  -9.868  1.00  0.00     0.012 A 
HETATM   11  C17 UNL     1       4.725  65.686  -9.988  1.00  0.00    -0.025 A 
HETATM   12  C18 UNL     1       5.295  65.547 -11.265  1.00  0.00     0.012 A 
HETATM   13  C22 UNL     1       5.538  65.600  -8.827  1.00  0.00    -0.018 A 
HETATM   14  C19 UNL     1       6.659  65.318 -11.423  1.00  0.00     0.001 A 
HETATM   15  C20 UNL     1       7.472  65.223 -10.303  1.00  0.00     0.001 A 
HETATM   16  C21 UNL     1       6.920  65.361  -9.025  1.00  0.00     0.013 A 
ENDBRANCH   5   7
BRANCH   4  17
HETATM   17  C6  UNL     1       4.092  65.415  -4.341  1.00  0.00     0.051 A 
HETATM   18  C7  UNL     1       3.606  64.658  -3.260  1.00  0.00     0.031 A 
HETATM   19  C8  UNL     1       2.607  65.140  -2.407  1.00  0.00     0.002 A 
HETATM   20  C9  UNL     1       2.062  66.400  -2.619  1.00  0.00     0.000 A 
HETATM   21  C10 UNL     1       2.515  67.171  -3.684  1.00  0.00     0.002 A 
HETATM   22  C11 UNL     1       3.516  66.681  -4.532  1.00  0.00     0.031 A 
ENDBRANCH   4  17
BRANCH   1  23
HETATM   23  C4  UNL     1       7.677  62.481  -5.622  1.00  0.00    -0.012 A 
HETATM   24  C3  UNL     1       9.064  62.636  -5.724  1.00  0.00     0.015 A 
HETATM   25  C2  UNL     1       9.899  61.514  -5.709  1.00  0.00     0.020 A 
HETATM   26  C1  UNL     1       9.347  60.239  -5.590  1.00  0.00     0.011 A 
HETATM   27 BR1  UNL     1      10.479  58.725  -5.568  1.00  0.00    -0.051 Br
HETATM   28  C25 UNL     1       7.968  60.073  -5.487  1.00  0.00     0.020 A 
HETATM   29  C24 UNL     1       7.133  61.194  -5.502  1.00  0.00     0.015 A 
ENDBRANCH   1  23
TORSDOF 3
ENDMDL
MODEL 6
REMARK minimizedAffinity -7.50844145
REMARK  3 active torsions:
REMARK  status: ('A' for Active; 'I' for Inactive)
REMARK    1  A    between atoms: C4_5  and  C5_6 
REMARK    2  A    between atoms: N2_9  and  C6_10 
REMARK    3  A    between atoms: C12_16  and  C13_17 
ROOT
HETATM    1  C5  UNL     1      17.277  52.231   5.560  1.00  0.00     0.038 C 
HETATM    2  N1  UNL     1      16.808  51.039   5.768  1.00  0.00    -0.301 N 
ATOM      3  H1  UNL     1      15.841  50.738   5.639  1.00  0.00     0.187 HD
HETATM    4  N2  UNL     1      17.847  50.261   6.192  1.00  0.00    -0.283 N 
HETATM    5  C12 UNL     1      19.101  51.007   6.353  1.00  0.00     0.148 C 
HETATM    6  C23 UNL     1      18.759  52.380   5.767  1.00  0.00     0.091 C 
ENDROOT
BRANCH   5   7
HETATM    7  C13 UNL     1      19.571  51.145   7.801  1.00  0.00    -0.022 A 
HETATM    8  C14 UNL     1      19.997  50.003   8.509  1.00  0.00     0.010 A 
HETATM    9  C15 UNL     1      20.417  50.089   9.831  1.00  0.00     0.002 A 
HETATM   10  C16 UNL     1      20.409  51.318  10.480  1.00  0.00     0.012 A 
HETATM   11  C17 UNL     1      19.975  52.476   9.821  1.00  0.00    -0.025 A 
HETATM   12  C18 UNL     1      19.967  53.702  10.508  1.00  0.00     0.012 A 
HETATM   13  C22 UNL     1      19.542  52.408   8.470  1.00  0.00    -0.018 A 
HETATM   14  C19 UNL     1      19.533  54.871   9.888  1.00  0.00     0.001 A 
HETATM   15  C20 UNL     1      19.099  54.828   8.572  1.00  0.00     0.001 A 
HETATM   16  C21 UNL     1      19.103  53.617   7.874  1.00  0.00     0.013 A 
ENDBRANCH   5   7
BRANCH   4  17
HETATM   17  C6  UNL     1      17.732  48.869   6.216  1.00  0.00     0.051 A 
HETATM   18  C7  UNL     1      16.473  48.250   6.117  1.00  0.00     0.031 A 
HETATM   19  C8  UNL     1      16.328  46.859   6.143  1.00  0.00     0.002 A 
HETATM   20  C9  UNL     1      17.447  46.046   6.275  1.00  0.00     0.000 A 
HETATM   21  C10 UNL     1      18.705  46.628   6.384  1.00  0.00     0.002 A 
HETATM   22  C11 UNL     1      18.842  48.021   6.355  1.00  0.00     0.031 A 
ENDBRANCH   4  17
BRANCH   1  23
HETATM   23  C4  UNL     1      16.433  53.364   5.115  1.00  0.00    -0.012 A 
HETATM   24  C3  UNL     1      15.045  53.360   5.299  1.00  0.00     0.015 A 
HETATM   25  C2  UNL     1      14.277  54.446   4.865  1.00  0.00     0.020 A 
HETATM   26  C1  UNL     1      14.896  55.534   4.251  1.00  0.00     0.011 A 
HETATM   27 BR1  UNL     1      13.855  56.999   3.668  1.00  0.00    -0.051 Br
HETATM   28  C25 UNL     1      16.277  55.548   4.064  1.00  0.00     0.020 A 
HETATM   29  C24 UNL     1      17.044  54.464   4.497  1.00  0.00     0.015 A 
ENDBRANCH   1  23
TORSDOF 3
ENDMDL
MODEL 7
REMARK minimizedAffinity -7.47281933
REMARK  3 active torsions:
REMARK  status: ('A' for Active; 'I' for Inactive)
REMARK    1  A    between atoms: C4_5  and  C5_6 
REMARK    2  A    between atoms: N2_9  and  C6_10 
REMARK    3  A    between atoms: C12_16  and  C13_17 
ROOT
HETATM    1  C5  UNL     1      14.793  57.273   4.289  1.00  0.00     0.038 C 
HETATM    2  N1  UNL     1      13.805  57.800   4.945  1.00  0.00    -0.301 N 
ATOM      3  H1  UNL     1      13.285  57.366   5.708  1.00  0.00     0.187 HD
HETATM    4  N2  UNL     1      13.590  59.044   4.425  1.00  0.00    -0.283 N 
HETATM    5  C12 UNL     1      14.455  59.351   3.279  1.00  0.00     0.148 C 
HETATM    6  C23 UNL     1      15.423  58.164   3.256  1.00  0.00     0.091 C 
ENDROOT
BRANCH   5   7
HETATM    7  C13 UNL     1      13.716  59.466   1.945  1.00  0.00    -0.022 A 
HETATM    8  C14 UNL     1      13.328  58.297   1.259  1.00  0.00     0.010 A 
HETATM    9  C15 UNL     1      12.668  58.364   0.038  1.00  0.00     0.002 A 
HETATM   10  C16 UNL     1      12.390  59.603  -0.531  1.00  0.00     0.012 A 
HETATM   11  C17 UNL     1      12.775  60.789   0.108  1.00  0.00    -0.025 A 
HETATM   12  C18 UNL     1      12.491  62.025  -0.499  1.00  0.00     0.012 A 
HETATM   13  C22 UNL     1      13.451  60.741   1.356  1.00  0.00    -0.018 A 
HETATM   14  C19 UNL     1      12.867  63.223   0.101  1.00  0.00     0.001 A 
HETATM   15  C20 UNL     1      13.535  63.201   1.317  1.00  0.00     0.001 A 
HETATM   16  C21 UNL     1      13.823  61.980   1.934  1.00  0.00     0.013 A 
ENDBRANCH   5   7
BRANCH   4  17
HETATM   17  C6  UNL     1      12.797  59.973   5.102  1.00  0.00     0.051 A 
HETATM   18  C7  UNL     1      12.249  59.668   6.362  1.00  0.00     0.031 A 
HETATM   19  C8  UNL     1      11.447  60.577   7.061  1.00  0.00     0.002 A 
HETATM   20  C9  UNL     1      11.167  61.822   6.511  1.00  0.00     0.000 A 
HETATM   21  C10 UNL     1      11.687  62.150   5.264  1.00  0.00     0.002 A 
HETATM   22  C11 UNL     1      12.489  61.235   4.571  1.00  0.00     0.031 A 
ENDBRANCH   4  17
BRANCH   1  23
HETATM   23  C4  UNL     1      15.299  55.906   4.555  1.00  0.00    -0.012 A 
HETATM   24  C3  UNL     1      14.444  54.872   4.953  1.00  0.00     0.015 A 
HETATM   25  C2  UNL     1      14.955  53.593   5.198  1.00  0.00     0.020 A 
HETATM   26  C1  UNL     1      16.319  53.348   5.042  1.00  0.00     0.011 A 
HETATM   27 BR1  UNL     1      17.005  51.619   5.372  1.00  0.00    -0.051 Br
HETATM   28  C25 UNL     1      17.179  54.370   4.645  1.00  0.00     0.020 A 
HETATM   29  C24 UNL     1      16.669  55.648   4.401  1.00  0.00     0.015 A 
ENDBRANCH   1  23
TORSDOF 3
ENDMDL
MODEL 8
REMARK minimizedAffinity -7.37211943
REMARK  3 active torsions:
REMARK  status: ('A' for Active; 'I' for Inactive)
REMARK    1  A    between atoms: C4_5  and  C5_6 
REMARK    2  A    between atoms: N2_9  and  C6_10 
REMARK    3  A    between atoms: C12_16  and  C13_17 
ROOT
HETATM    1  C5  UNL     1       2.273  65.622  -3.585  1.00  0.00     0.038 C 
HETATM    2  N1  UNL     1       1.052  65.708  -4.018  1.00  0.00    -0.301 N 
ATOM      3  H1  UNL     1       0.753  65.681  -4.993  1.00  0.00     0.187 HD
HETATM    4  N2  UNL     1       0.242  65.843  -2.927  1.00  0.00    -0.283 N 
HETATM    5  C12 UNL     1       0.984  65.927  -1.662  1.00  0.00     0.148 C 
HETATM    6  C23 UNL     1       2.422  65.623  -2.089  1.00  0.00     0.091 C 
ENDROOT
BRANCH   5   7
HETATM    7  C13 UNL     1       0.905  67.291  -0.976  1.00  0.00    -0.022 A 
HETATM    8  C14 UNL     1       0.448  67.378   0.355  1.00  0.00     0.010 A 
HETATM    9  C15 UNL     1       0.351  68.603   1.005  1.00  0.00     0.002 A 
HETATM   10  C16 UNL     1       0.697  69.770   0.333  1.00  0.00     0.012 A 
HETATM   11  C17 UNL     1       1.138  69.732  -0.995  1.00  0.00    -0.025 A 
HETATM   12  C18 UNL     1       1.469  70.931  -1.650  1.00  0.00     0.012 A 
HETATM   13  C22 UNL     1       1.244  68.490  -1.676  1.00  0.00    -0.018 A 
HETATM   14  C19 UNL     1       1.901  70.932  -2.973  1.00  0.00     0.001 A 
HETATM   15  C20 UNL     1       2.005  69.732  -3.661  1.00  0.00     0.001 A 
HETATM   16  C21 UNL     1       1.682  68.531  -3.024  1.00  0.00     0.013 A 
ENDBRANCH   5   7
BRANCH   4  17
HETATM   17  C6  UNL     1      -1.138  65.665  -3.038  1.00  0.00     0.051 A 
HETATM   18  C7  UNL     1      -1.824  66.068  -4.198  1.00  0.00     0.031 A 
HETATM   19  C8  UNL     1      -3.207  65.907  -4.335  1.00  0.00     0.002 A 
HETATM   20  C9  UNL     1      -3.945  65.338  -3.304  1.00  0.00     0.000 A 
HETATM   21  C10 UNL     1      -3.298  64.936  -2.141  1.00  0.00     0.002 A 
HETATM   22  C11 UNL     1      -1.913  65.100  -2.013  1.00  0.00     0.031 A 
ENDBRANCH   4  17
BRANCH   1  23
HETATM   23  C4  UNL     1       3.442  65.494  -4.487  1.00  0.00    -0.012 A 
HETATM   24  C3  UNL     1       4.662  64.978  -4.036  1.00  0.00     0.015 A 
HETATM   25  C2  UNL     1       5.746  64.872  -4.914  1.00  0.00     0.020 A 
HETATM   26  C1  UNL     1       5.608  65.279  -6.241  1.00  0.00     0.011 A 
HETATM   27 BR1  UNL     1       7.075  65.133  -7.424  1.00  0.00    -0.051 Br
HETATM   28  C25 UNL     1       4.397  65.793  -6.699  1.00  0.00     0.020 A 
HETATM   29  C24 UNL     1       3.315  65.900  -5.823  1.00  0.00     0.015 A 
ENDBRANCH   1  23
TORSDOF 3
ENDMDL
MODEL 9
REMARK minimizedAffinity -7.3461051
REMARK  3 active torsions:
REMARK  status: ('A' for Active; 'I' for Inactive)
REMARK    1  A    between atoms: C4_5  and  C5_6 
REMARK    2  A    between atoms: N2_9  and  C6_10 
REMARK    3  A    between atoms: C12_16  and  C13_17 
ROOT
HETATM    1  C5  UNL     1      13.705  58.798   2.919  1.00  0.00     0.038 C 
HETATM    2  N1  UNL     1      14.442  58.040   3.672  1.00  0.00    -0.301 N 
ATOM      3  H1  UNL     1      14.932  58.324   4.521  1.00  0.00     0.187 HD
HETATM    4  N2  UNL     1      14.441  56.792   3.118  1.00  0.00    -0.283 N 
HETATM    5  C12 UNL     1      13.704  56.723   1.850  1.00  0.00     0.148 C 
HETATM    6  C23 UNL     1      13.045  58.102   1.762  1.00  0.00     0.091 C 
ENDROOT
BRANCH   5   7
HETATM    7  C13 UNL     1      14.581  56.469   0.624  1.00  0.00    -0.022 A 
HETATM    8  C14 UNL     1      15.931  56.874   0.635  1.00  0.00     0.010 A 
HETATM    9  C15 UNL     1      16.754  56.672  -0.466  1.00  0.00     0.002 A 
HETATM   10  C16 UNL     1      16.241  56.070  -1.610  1.00  0.00     0.012 A 
HETATM   11  C17 UNL     1      14.901  55.669  -1.672  1.00  0.00    -0.025 A 
HETATM   12  C18 UNL     1      14.410  55.075  -2.847  1.00  0.00     0.012 A 
HETATM   13  C22 UNL     1      14.044  55.867  -0.557  1.00  0.00    -0.018 A 
HETATM   14  C19 UNL     1      13.081  54.673  -2.949  1.00  0.00     0.001 A 
HETATM   15  C20 UNL     1      12.224  54.863  -1.875  1.00  0.00     0.001 A 
HETATM   16  C21 UNL     1      12.697  55.451  -0.698  1.00  0.00     0.013 A 
ENDBRANCH   5   7
BRANCH   4  17
HETATM   17  C6  UNL     1      14.897  55.689   3.843  1.00  0.00     0.051 A 
HETATM   18  C7  UNL     1      13.996  54.874   4.552  1.00  0.00     0.031 A 
HETATM   19  C8  UNL     1      14.424  53.765   5.290  1.00  0.00     0.002 A 
HETATM   20  C9  UNL     1      15.774  53.445   5.342  1.00  0.00     0.000 A 
HETATM   21  C10 UNL     1      16.691  54.236   4.659  1.00  0.00     0.002 A 
HETATM   22  C11 UNL     1      16.255  55.343   3.921  1.00  0.00     0.031 A 
ENDBRANCH   4  17
BRANCH   1  23
HETATM   23  C4  UNL     1      13.490  60.239   3.189  1.00  0.00    -0.012 A 
HETATM   24  C3  UNL     1      12.836  60.678   4.346  1.00  0.00     0.015 A 
HETATM   25  C2  UNL     1      12.648  62.046   4.570  1.00  0.00     0.020 A 
HETATM   26  C1  UNL     1      13.117  62.973   3.639  1.00  0.00     0.011 A 
HETATM   27 BR1  UNL     1      12.863  64.821   3.946  1.00  0.00    -0.051 Br
HETATM   28  C25 UNL     1      13.770  62.547   2.485  1.00  0.00     0.020 A 
HETATM   29  C24 UNL     1      13.957  61.180   2.261  1.00  0.00     0.015 A 
ENDBRANCH   1  23
TORSDOF 3
ENDMDL
