MODEL 1
REMARK minimizedAffinity -7.03748178
REMARK CNNscore 0.705727398
REMARK CNNaffinity 5.78225899
REMARK  4 active torsions:
REMARK  status: ('A' for Active; 'I' for Inactive)
REMARK    1  A    between atoms: N1_1  and  C1_2 
REMARK    2  A    between atoms: C1_2  and  N2_4 
REMARK    3  A    between atoms: C2_7  and  C3_8 
REMARK    4  A    between atoms: C10_17  and  C11_18 
ROOT
HETATM    1  N2  UNL     1      17.578  50.418   5.793  1.00  0.00    -0.258 N 
HETATM    2  N3  UNL     1      16.548  51.274   5.473  1.00  0.00    -0.299 N 
ATOM      3  H3  UNL     1      15.562  51.028   5.395  1.00  0.00     0.187 HD
HETATM    4  C2  UNL     1      17.061  52.452   5.290  1.00  0.00     0.038 C 
HETATM    5  C9  UNL     1      18.558  52.525   5.405  1.00  0.00     0.091 C 
HETATM    6  C10 UNL     1      18.858  51.127   5.934  1.00  0.00     0.149 C 
ENDROOT
BRANCH   6   7
HETATM    7  C11 UNL     1      19.372  51.175   7.365  1.00  0.00    -0.032 A 
HETATM    8  C12 UNL     1      19.992  50.071   7.966  1.00  0.00     0.010 A 
HETATM    9  C13 UNL     1      20.446  50.141   9.285  1.00  0.00     0.013 A 
HETATM   10  C14 UNL     1      20.287  51.313  10.038  1.00  0.00    -0.026 A 
HETATM   11  C15 UNL     1      20.740  51.397  11.364  1.00  0.00     0.012 A 
HETATM   12  C19 UNL     1      19.657  52.432   9.449  1.00  0.00    -0.025 A 
HETATM   13  C16 UNL     1      20.572  52.571  12.102  1.00  0.00     0.001 A 
HETATM   14  C17 UNL     1      19.951  53.673  11.522  1.00  0.00     0.001 A 
HETATM   15  C18 UNL     1      19.496  53.605  10.204  1.00  0.00     0.012 A 
HETATM   16  C20 UNL     1      19.205  52.347   8.121  1.00  0.00     0.021 A 
ENDBRANCH   6   7
BRANCH   1  17
HETATM   17  C1  UNL     1      17.368  49.054   5.862  1.00  0.00     0.187 C 
HETATM   18  S1  UNL     1      18.480  47.859   5.494  1.00  0.00    -0.040 SA
BRANCH  17  19
HETATM   19  N1  UNL     1      16.141  48.653   6.307  1.00  0.00    -0.375 N 
HETATM   20  H1  UNL     1      15.989  47.652   6.251  1.00  0.00     0.158 HD
HETATM   21  H2  UNL     1      15.336  49.199   6.028  1.00  0.00     0.158 HD
ENDBRANCH  17  19
ENDBRANCH   1  17
BRANCH   4  22
HETATM   22  C3  UNL     1      16.240  53.639   4.952  1.00  0.00    -0.010 A 
HETATM   23  C4  UNL     1      14.855  53.584   5.156  1.00  0.00     0.015 A 
HETATM   24  C5  UNL     1      14.050  54.684   4.848  1.00  0.00     0.026 A 
HETATM   25  C6  UNL     1      14.624  55.848   4.333  1.00  0.00     0.055 A 
HETATM   26 CL1  UNL     1      13.576  57.172   3.974  1.00  0.00    -0.083 Cl
HETATM   27  C7  UNL     1      16.007  55.906   4.125  1.00  0.00     0.056 A 
HETATM   28 CL2  UNL     1      16.787  57.312   3.489  1.00  0.00    -0.083 Cl
HETATM   29  C8  UNL     1      16.814  54.803   4.433  1.00  0.00     0.039 A 
ENDBRANCH   4  22
TORSDOF 4
ENDMDL
MODEL 2
REMARK minimizedAffinity -7.03328514
REMARK CNNscore 0.677611947
REMARK CNNaffinity 5.93296194
REMARK  4 active torsions:
REMARK  status: ('A' for Active; 'I' for Inactive)
REMARK    1  A    between atoms: N1_1  and  C1_2 
REMARK    2  A    between atoms: C1_2  and  N2_4 
REMARK    3  A    between atoms: C2_7  and  C3_8 
REMARK    4  A    between atoms: C10_17  and  C11_18 
ROOT
HETATM    1  N2  UNL     1      17.615  50.432   5.865  1.00  0.00    -0.258 N 
HETATM    2  N3  UNL     1      16.580  51.271   5.517  1.00  0.00    -0.299 N 
ATOM      3  H3  UNL     1      15.597  51.012   5.435  1.00  0.00     0.187 HD
HETATM    4  C2  UNL     1      17.082  52.450   5.313  1.00  0.00     0.038 C 
HETATM    5  C9  UNL     1      18.577  52.540   5.439  1.00  0.00     0.091 C 
HETATM    6  C10 UNL     1      18.886  51.158   6.003  1.00  0.00     0.149 C 
ENDROOT
BRANCH   6   7
HETATM    7  C11 UNL     1      19.387  51.243   7.436  1.00  0.00    -0.032 A 
HETATM    8  C12 UNL     1      19.057  52.319   8.273  1.00  0.00     0.010 A 
HETATM    9  C13 UNL     1      19.540  52.375   9.582  1.00  0.00     0.013 A 
HETATM   10  C14 UNL     1      20.368  51.363  10.086  1.00  0.00    -0.026 A 
HETATM   11  C15 UNL     1      20.860  51.407  11.401  1.00  0.00     0.012 A 
HETATM   12  C19 UNL     1      20.717  50.277   9.253  1.00  0.00    -0.025 A 
HETATM   13  C16 UNL     1      21.686  50.392  11.888  1.00  0.00     0.001 A 
HETATM   14  C17 UNL     1      22.030  49.322  11.067  1.00  0.00     0.001 A 
HETATM   15  C18 UNL     1      21.549  49.264   9.758  1.00  0.00     0.012 A 
HETATM   16  C20 UNL     1      20.224  50.233   7.938  1.00  0.00     0.021 A 
ENDBRANCH   6   7
BRANCH   1  17
HETATM   17  C1  UNL     1      17.418  49.068   5.963  1.00  0.00     0.187 C 
HETATM   18  S1  UNL     1      18.578  47.881   5.753  1.00  0.00    -0.040 SA
BRANCH  17  19
HETATM   19  N1  UNL     1      16.159  48.662   6.297  1.00  0.00    -0.375 N 
HETATM   20  H1  UNL     1      16.027  47.656   6.263  1.00  0.00     0.158 HD
HETATM   21  H2  UNL     1      15.378  49.183   5.919  1.00  0.00     0.158 HD
ENDBRANCH  17  19
ENDBRANCH   1  17
BRANCH   4  22
HETATM   22  C3  UNL     1      16.253  53.620   4.940  1.00  0.00    -0.010 A 
HETATM   23  C4  UNL     1      14.876  53.582   5.198  1.00  0.00     0.015 A 
HETATM   24  C5  UNL     1      14.063  54.668   4.861  1.00  0.00     0.026 A 
HETATM   25  C6  UNL     1      14.620  55.800   4.261  1.00  0.00     0.055 A 
HETATM   26 CL1  UNL     1      13.563  57.107   3.869  1.00  0.00    -0.083 Cl
HETATM   27  C7  UNL     1      15.994  55.839   3.999  1.00  0.00     0.056 A 
HETATM   28 CL2  UNL     1      16.754  57.204   3.257  1.00  0.00    -0.083 Cl
HETATM   29  C8  UNL     1      16.810  54.751   4.337  1.00  0.00     0.039 A 
ENDBRANCH   4  22
TORSDOF 4
ENDMDL
MODEL 3
REMARK minimizedAffinity -6.77788448
REMARK CNNscore 0.469355881
REMARK CNNaffinity 5.71524811
REMARK  4 active torsions:
REMARK  status: ('A' for Active; 'I' for Inactive)
REMARK    1  A    between atoms: N1_1  and  C1_2 
REMARK    2  A    between atoms: C1_2  and  N2_4 
REMARK    3  A    between atoms: C2_7  and  C3_8 
REMARK    4  A    between atoms: C10_17  and  C11_18 
ROOT
HETATM    1  N2  UNL     1      17.533  51.961   5.764  1.00  0.00    -0.258 N 
HETATM    2  N3  UNL     1      16.442  52.619   5.243  1.00  0.00    -0.299 N 
ATOM      3  H3  UNL     1      15.506  52.231   5.122  1.00  0.00     0.187 HD
HETATM    4  C2  UNL     1      16.819  53.821   4.935  1.00  0.00     0.038 C 
HETATM    5  C9  UNL     1      18.278  54.113   5.159  1.00  0.00     0.091 C 
HETATM    6  C10 UNL     1      18.695  52.851   5.906  1.00  0.00     0.149 C 
ENDROOT
BRANCH   6   7
HETATM    7  C11 UNL     1      19.056  53.157   7.351  1.00  0.00    -0.032 A 
HETATM    8  C12 UNL     1      18.985  54.456   7.873  1.00  0.00     0.010 A 
HETATM    9  C13 UNL     1      19.332  54.708   9.202  1.00  0.00     0.013 A 
HETATM   10  C14 UNL     1      19.764  53.671  10.041  1.00  0.00    -0.026 A 
HETATM   11  C15 UNL     1      20.116  53.911  11.379  1.00  0.00     0.012 A 
HETATM   12  C19 UNL     1      19.850  52.358   9.528  1.00  0.00    -0.025 A 
HETATM   13  C16 UNL     1      20.546  52.868  12.201  1.00  0.00     0.001 A 
HETATM   14  C17 UNL     1      20.631  51.574  11.696  1.00  0.00     0.001 A 
HETATM   15  C18 UNL     1      20.285  51.320  10.367  1.00  0.00     0.012 A 
HETATM   16  C20 UNL     1      19.497  52.118   8.188  1.00  0.00     0.021 A 
ENDBRANCH   6   7
BRANCH   1  17
HETATM   17  C1  UNL     1      17.489  50.602   6.011  1.00  0.00     0.187 C 
HETATM   18  S1  UNL     1      18.648  49.476   5.576  1.00  0.00    -0.040 SA
BRANCH  17  19
HETATM   19  N1  UNL     1      16.406  50.149   6.708  1.00  0.00    -0.375 N 
HETATM   20  H1  UNL     1      16.357  49.139   6.784  1.00  0.00     0.158 HD
HETATM   21  H2  UNL     1      15.510  50.582   6.522  1.00  0.00     0.158 HD
ENDBRANCH  17  19
ENDBRANCH   1  17
BRANCH   4  22
HETATM   22  C3  UNL     1      15.895  54.829   4.365  1.00  0.00    -0.010 A 
HETATM   23  C4  UNL     1      14.518  54.675   4.568  1.00  0.00     0.015 A 
HETATM   24  C5  UNL     1      13.616  55.606   4.045  1.00  0.00     0.026 A 
HETATM   25  C6  UNL     1      14.085  56.700   3.314  1.00  0.00     0.055 A 
HETATM   26 CL1  UNL     1      12.922  57.815   2.696  1.00  0.00    -0.083 Cl
HETATM   27  C7  UNL     1      15.461  56.856   3.107  1.00  0.00     0.056 A 
HETATM   28 CL2  UNL     1      16.115  58.182   2.212  1.00  0.00    -0.083 Cl
HETATM   29  C8  UNL     1      16.365  55.922   3.631  1.00  0.00     0.039 A 
ENDBRANCH   4  22
TORSDOF 4
ENDMDL
MODEL 4
REMARK minimizedAffinity -7.04241419
REMARK CNNscore 0.427902341
REMARK CNNaffinity 5.13807249
REMARK  4 active torsions:
REMARK  status: ('A' for Active; 'I' for Inactive)
REMARK    1  A    between atoms: N1_1  and  C1_2 
REMARK    2  A    between atoms: C1_2  and  N2_4 
REMARK    3  A    between atoms: C2_7  and  C3_8 
REMARK    4  A    between atoms: C10_17  and  C11_18 
ROOT
HETATM    1  N2  UNL     1       6.311  64.482  -6.998  1.00  0.00    -0.258 N 
HETATM    2  N3  UNL     1       5.092  64.894  -6.507  1.00  0.00    -0.299 N 
ATOM      3  H3  UNL     1       4.250  65.067  -7.054  1.00  0.00     0.187 HD
HETATM    4  C2  UNL     1       5.211  65.023  -5.221  1.00  0.00     0.038 C 
HETATM    5  C9  UNL     1       6.589  64.767  -4.676  1.00  0.00     0.091 C 
HETATM    6  C10 UNL     1       7.275  64.216  -5.920  1.00  0.00     0.149 C 
ENDROOT
BRANCH   6   7
HETATM    7  C11 UNL     1       7.618  62.744  -5.758  1.00  0.00    -0.032 A 
HETATM    8  C12 UNL     1       6.674  61.809  -5.310  1.00  0.00     0.010 A 
HETATM    9  C13 UNL     1       7.020  60.464  -5.162  1.00  0.00     0.013 A 
HETATM   10  C14 UNL     1       8.318  60.021  -5.451  1.00  0.00    -0.026 A 
HETATM   11  C15 UNL     1       8.680  58.671  -5.307  1.00  0.00     0.012 A 
HETATM   12  C19 UNL     1       9.283  60.951  -5.895  1.00  0.00    -0.025 A 
HETATM   13  C16 UNL     1       9.977  58.245  -5.598  1.00  0.00     0.001 A 
HETATM   14  C17 UNL     1      10.928  59.162  -6.035  1.00  0.00     0.001 A 
HETATM   15  C18 UNL     1      10.584  60.507  -6.183  1.00  0.00     0.012 A 
HETATM   16  C20 UNL     1       8.921  62.301  -6.041  1.00  0.00     0.021 A 
ENDBRANCH   6   7
BRANCH   1  17
HETATM   17  C1  UNL     1       6.548  64.438  -8.358  1.00  0.00     0.187 C 
HETATM   18  S1  UNL     1       7.685  65.334  -9.197  1.00  0.00    -0.040 SA
BRANCH  17  19
HETATM   19  N1  UNL     1       5.798  63.549  -9.074  1.00  0.00    -0.375 N 
HETATM   20  H1  UNL     1       5.928  63.614 -10.078  1.00  0.00     0.158 HD
HETATM   21  H2  UNL     1       4.832  63.418  -8.801  1.00  0.00     0.158 HD
ENDBRANCH  17  19
ENDBRANCH   1  17
BRANCH   4  22
HETATM   22  C3  UNL     1       4.085  65.434  -4.350  1.00  0.00    -0.010 A 
HETATM   23  C4  UNL     1       3.861  64.732  -3.159  1.00  0.00     0.015 A 
HETATM   24  C5  UNL     1       2.809  65.092  -2.312  1.00  0.00     0.026 A 
HETATM   25  C6  UNL     1       1.970  66.156  -2.651  1.00  0.00     0.055 A 
HETATM   26 CL1  UNL     1       0.689  66.551  -1.564  1.00  0.00    -0.083 Cl
HETATM   27  C7  UNL     1       2.190  66.858  -3.842  1.00  0.00     0.056 A 
HETATM   28 CL2  UNL     1       1.193  68.185  -4.329  1.00  0.00    -0.083 Cl
HETATM   29  C8  UNL     1       3.244  66.498  -4.691  1.00  0.00     0.039 A 
ENDBRANCH   4  22
TORSDOF 4
ENDMDL
MODEL 5
REMARK minimizedAffinity -5.97284269
REMARK CNNscore 0.371283352
REMARK CNNaffinity 5.29720354
REMARK  4 active torsions:
REMARK  status: ('A' for Active; 'I' for Inactive)
REMARK    1  A    between atoms: N1_1  and  C1_2 
REMARK    2  A    between atoms: C1_2  and  N2_4 
REMARK    3  A    between atoms: C2_7  and  C3_8 
REMARK    4  A    between atoms: C10_17  and  C11_18 
ROOT
HETATM    1  N2  UNL     1       1.527  66.992  -8.171  1.00  0.00    -0.258 N 
HETATM    2  N3  UNL     1       1.055  66.816  -9.452  1.00  0.00    -0.299 N 
ATOM      3  H3  UNL     1       1.588  66.462 -10.247  1.00  0.00     0.187 HD
HETATM    4  C2  UNL     1      -0.190  67.180  -9.465  1.00  0.00     0.038 C 
HETATM    5  C9  UNL     1      -0.712  67.727  -8.165  1.00  0.00     0.091 C 
HETATM    6  C10 UNL     1       0.461  67.408  -7.246  1.00  0.00     0.149 C 
ENDROOT
BRANCH   6   7
HETATM    7  C11 UNL     1       0.092  66.343  -6.225  1.00  0.00    -0.032 A 
HETATM    8  C12 UNL     1      -0.644  65.203  -6.578  1.00  0.00     0.010 A 
HETATM    9  C13 UNL     1      -0.977  64.246  -5.617  1.00  0.00     0.013 A 
HETATM   10  C14 UNL     1      -0.590  64.407  -4.279  1.00  0.00    -0.026 A 
HETATM   11  C15 UNL     1      -0.918  63.453  -3.302  1.00  0.00     0.012 A 
HETATM   12  C19 UNL     1       0.144  65.554  -3.905  1.00  0.00    -0.025 A 
HETATM   13  C16 UNL     1      -0.526  63.628  -1.974  1.00  0.00     0.001 A 
HETATM   14  C17 UNL     1       0.196  64.759  -1.605  1.00  0.00     0.001 A 
HETATM   15  C18 UNL     1       0.530  65.717  -2.565  1.00  0.00     0.012 A 
HETATM   16  C20 UNL     1       0.473  66.509  -4.883  1.00  0.00     0.021 A 
ENDBRANCH   6   7
BRANCH   1  17
HETATM   17  C1  UNL     1       2.873  66.866  -7.889  1.00  0.00     0.187 C 
HETATM   18  S1  UNL     1       3.860  68.035  -7.211  1.00  0.00    -0.040 SA
BRANCH  17  19
HETATM   19  N1  UNL     1       3.436  65.652  -8.163  1.00  0.00    -0.375 N 
HETATM   20  H1  UNL     1       4.443  65.627  -8.037  1.00  0.00     0.158 HD
HETATM   21  H2  UNL     1       3.122  65.162  -8.990  1.00  0.00     0.158 HD
ENDBRANCH  17  19
ENDBRANCH   1  17
BRANCH   4  22
HETATM   22  C3  UNL     1      -1.034  67.105 -10.681  1.00  0.00    -0.010 A 
HETATM   23  C4  UNL     1      -0.766  67.977 -11.744  1.00  0.00     0.015 A 
HETATM   24  C5  UNL     1      -1.541  67.935 -12.907  1.00  0.00     0.026 A 
HETATM   25  C6  UNL     1      -2.591  67.020 -13.015  1.00  0.00     0.055 A 
HETATM   26 CL1  UNL     1      -3.509  67.017 -14.476  1.00  0.00    -0.083 Cl
HETATM   27  C7  UNL     1      -2.862  66.149 -11.954  1.00  0.00     0.056 A 
HETATM   28 CL2  UNL     1      -4.146  64.992 -12.014  1.00  0.00    -0.083 Cl
HETATM   29  C8  UNL     1      -2.086  66.191 -10.788  1.00  0.00     0.039 A 
ENDBRANCH   4  22
TORSDOF 4
ENDMDL
MODEL 6
REMARK minimizedAffinity -6.94815397
REMARK CNNscore 0.280379325
REMARK CNNaffinity 5.44129992
REMARK  4 active torsions:
REMARK  status: ('A' for Active; 'I' for Inactive)
REMARK    1  A    between atoms: N1_1  and  C1_2 
REMARK    2  A    between atoms: C1_2  and  N2_4 
REMARK    3  A    between atoms: C2_7  and  C3_8 
REMARK    4  A    between atoms: C10_17  and  C11_18 
ROOT
HETATM    1  N2  UNL     1      14.635  52.928  -2.911  1.00  0.00    -0.258 N 
HETATM    2  N3  UNL     1      14.523  51.620  -2.496  1.00  0.00    -0.299 N 
ATOM      3  H3  UNL     1      15.293  50.974  -2.327  1.00  0.00     0.187 HD
HETATM    4  C2  UNL     1      13.259  51.360  -2.357  1.00  0.00     0.038 C 
HETATM    5  C9  UNL     1      12.329  52.479  -2.736  1.00  0.00     0.091 C 
HETATM    6  C10 UNL     1      13.332  53.608  -2.941  1.00  0.00     0.149 C 
ENDROOT
BRANCH   6   7
HETATM    7  C11 UNL     1      13.181  54.683  -1.875  1.00  0.00    -0.032 A 
HETATM    8  C12 UNL     1      11.952  55.309  -1.625  1.00  0.00     0.010 A 
HETATM    9  C13 UNL     1      11.846  56.300  -0.646  1.00  0.00     0.013 A 
HETATM   10  C14 UNL     1      12.965  56.694   0.101  1.00  0.00    -0.026 A 
HETATM   11  C15 UNL     1      12.872  57.689   1.089  1.00  0.00     0.012 A 
HETATM   12  C19 UNL     1      14.212  56.079  -0.145  1.00  0.00    -0.025 A 
HETATM   13  C16 UNL     1      13.996  58.071   1.823  1.00  0.00     0.001 A 
HETATM   14  C17 UNL     1      15.225  57.466   1.580  1.00  0.00     0.001 A 
HETATM   15  C18 UNL     1      15.333  56.475   0.602  1.00  0.00     0.012 A 
HETATM   16  C20 UNL     1      14.304  55.083  -1.133  1.00  0.00     0.021 A 
ENDBRANCH   6   7
BRANCH   1  17
HETATM   17  C1  UNL     1      15.851  53.438  -3.324  1.00  0.00     0.187 C 
HETATM   18  S1  UNL     1      16.102  54.515  -4.579  1.00  0.00    -0.040 SA
BRANCH  17  19
HETATM   19  N1  UNL     1      16.945  53.044  -2.608  1.00  0.00    -0.375 N 
HETATM   20  H1  UNL     1      17.828  53.357  -2.998  1.00  0.00     0.158 HD
HETATM   21  H2  UNL     1      16.971  52.090  -2.271  1.00  0.00     0.158 HD
ENDBRANCH  17  19
ENDBRANCH   1  17
BRANCH   4  22
HETATM   22  C3  UNL     1      12.759  50.043  -1.897  1.00  0.00    -0.010 A 
HETATM   23  C4  UNL     1      13.655  48.969  -1.820  1.00  0.00     0.015 A 
HETATM   24  C5  UNL     1      13.218  47.713  -1.390  1.00  0.00     0.026 A 
HETATM   25  C6  UNL     1      11.881  47.520  -1.035  1.00  0.00     0.055 A 
HETATM   26 CL1  UNL     1      11.405  45.946  -0.512  1.00  0.00    -0.083 Cl
HETATM   27  C7  UNL     1      10.983  48.591  -1.113  1.00  0.00     0.056 A 
HETATM   28 CL2  UNL     1       9.314  48.428  -0.692  1.00  0.00    -0.083 Cl
HETATM   29  C8  UNL     1      11.420  49.850  -1.544  1.00  0.00     0.039 A 
ENDBRANCH   4  22
TORSDOF 4
ENDMDL
MODEL 7
REMARK minimizedAffinity -5.99360323
REMARK CNNscore 0.257970333
REMARK CNNaffinity 4.80512857
REMARK  4 active torsions:
REMARK  status: ('A' for Active; 'I' for Inactive)
REMARK    1  A    between atoms: N1_1  and  C1_2 
REMARK    2  A    between atoms: C1_2  and  N2_4 
REMARK    3  A    between atoms: C2_7  and  C3_8 
REMARK    4  A    between atoms: C10_17  and  C11_18 
ROOT
HETATM    1  N2  UNL     1       9.262  62.719  -5.698  1.00  0.00    -0.258 N 
HETATM    2  N3  UNL     1       8.535  63.871  -5.897  1.00  0.00    -0.299 N 
ATOM      3  H3  UNL     1       8.914  64.795  -6.102  1.00  0.00     0.187 HD
HETATM    4  C2  UNL     1       7.279  63.568  -5.776  1.00  0.00     0.038 C 
HETATM    5  C9  UNL     1       6.998  62.138  -5.405  1.00  0.00     0.091 C 
HETATM    6  C10 UNL     1       8.394  61.543  -5.540  1.00  0.00     0.149 C 
ENDROOT
BRANCH   6   7
HETATM    7  C11 UNL     1       8.471  60.569  -6.706  1.00  0.00    -0.032 A 
HETATM    8  C12 UNL     1       8.015  60.910  -7.987  1.00  0.00     0.010 A 
HETATM    9  C13 UNL     1       8.089  59.992  -9.036  1.00  0.00     0.013 A 
HETATM   10  C14 UNL     1       8.614  58.708  -8.831  1.00  0.00    -0.026 A 
HETATM   11  C15 UNL     1       8.694  57.775  -9.877  1.00  0.00     0.012 A 
HETATM   12  C19 UNL     1       9.069  58.345  -7.544  1.00  0.00    -0.025 A 
HETATM   13  C16 UNL     1       9.218  56.499  -9.657  1.00  0.00     0.001 A 
HETATM   14  C17 UNL     1       9.665  56.141  -8.389  1.00  0.00     0.001 A 
HETATM   15  C18 UNL     1       9.592  57.058  -7.338  1.00  0.00     0.012 A 
HETATM   16  C20 UNL     1       8.989  59.280  -6.497  1.00  0.00     0.021 A 
ENDBRANCH   6   7
BRANCH   1  17
HETATM   17  C1  UNL     1      10.638  62.762  -5.580  1.00  0.00     0.187 C 
HETATM   18  S1  UNL     1      11.616  61.575  -4.921  1.00  0.00    -0.040 SA
BRANCH  17  19
HETATM   19  N1  UNL     1      11.253  63.873  -6.083  1.00  0.00    -0.375 N 
HETATM   20  H1  UNL     1      12.248  63.916  -5.891  1.00  0.00     0.158 HD
HETATM   21  H2  UNL     1      10.784  64.763  -5.975  1.00  0.00     0.158 HD
ENDBRANCH  17  19
ENDBRANCH   1  17
BRANCH   4  22
HETATM   22  C3  UNL     1       6.194  64.562  -5.949  1.00  0.00    -0.010 A 
HETATM   23  C4  UNL     1       6.096  65.251  -7.165  1.00  0.00     0.015 A 
HETATM   24  C5  UNL     1       5.086  66.195  -7.364  1.00  0.00     0.026 A 
HETATM   25  C6  UNL     1       4.165  66.461  -6.348  1.00  0.00     0.055 A 
HETATM   26 CL1  UNL     1       2.941  67.638  -6.656  1.00  0.00    -0.083 Cl
HETATM   27  C7  UNL     1       4.262  65.777  -5.131  1.00  0.00     0.056 A 
HETATM   28 CL2  UNL     1       3.161  66.052  -3.826  1.00  0.00    -0.083 Cl
HETATM   29  C8  UNL     1       5.275  64.829  -4.930  1.00  0.00     0.039 A 
ENDBRANCH   4  22
TORSDOF 4
ENDMDL
MODEL 8
REMARK minimizedAffinity -6.67975807
REMARK CNNscore 0.224812388
REMARK CNNaffinity 5.06715536
REMARK  4 active torsions:
REMARK  status: ('A' for Active; 'I' for Inactive)
REMARK    1  A    between atoms: N1_1  and  C1_2 
REMARK    2  A    between atoms: C1_2  and  N2_4 
REMARK    3  A    between atoms: C2_7  and  C3_8 
REMARK    4  A    between atoms: C10_17  and  C11_18 
ROOT
HETATM    1  N2  UNL     1      12.127  56.255  -1.854  1.00  0.00    -0.258 N 
HETATM    2  N3  UNL     1      11.966  56.681  -0.554  1.00  0.00    -0.299 N 
ATOM      3  H3  UNL     1      11.085  56.937  -0.110  1.00  0.00     0.187 HD
HETATM    4  C2  UNL     1      13.138  56.697   0.001  1.00  0.00     0.038 C 
HETATM    5  C9  UNL     1      14.282  56.333  -0.904  1.00  0.00     0.091 C 
HETATM    6  C10 UNL     1      13.515  55.857  -2.132  1.00  0.00     0.149 C 
ENDROOT
BRANCH   6   7
HETATM    7  C11 UNL     1      13.688  54.362  -2.348  1.00  0.00    -0.032 A 
HETATM    8  C12 UNL     1      14.898  53.814  -2.799  1.00  0.00     0.010 A 
HETATM    9  C13 UNL     1      15.025  52.438  -2.997  1.00  0.00     0.013 A 
HETATM   10  C14 UNL     1      13.946  51.575  -2.758  1.00  0.00    -0.026 A 
HETATM   11  C15 UNL     1      14.060  50.189  -2.953  1.00  0.00     0.012 A 
HETATM   12  C19 UNL     1      12.718  52.112  -2.312  1.00  0.00    -0.025 A 
HETATM   13  C16 UNL     1      12.976  49.343  -2.711  1.00  0.00     0.001 A 
HETATM   14  C17 UNL     1      11.766  49.872  -2.273  1.00  0.00     0.001 A 
HETATM   15  C18 UNL     1      11.637  51.247  -2.074  1.00  0.00     0.012 A 
HETATM   16  C20 UNL     1      12.604  53.499  -2.116  1.00  0.00     0.021 A 
ENDBRANCH   6   7
BRANCH   1  17
HETATM   17  C1  UNL     1      11.080  56.313  -2.753  1.00  0.00     0.187 C 
HETATM   18  S1  UNL     1      11.206  56.408  -4.419  1.00  0.00    -0.040 SA
BRANCH  17  19
HETATM   19  N1  UNL     1       9.824  56.253  -2.222  1.00  0.00    -0.375 N 
HETATM   20  H1  UNL     1       9.082  56.398  -2.899  1.00  0.00     0.158 HD
HETATM   21  H2  UNL     1       9.660  56.723  -1.340  1.00  0.00     0.158 HD
ENDBRANCH  17  19
ENDBRANCH   1  17
BRANCH   4  22
HETATM   22  C3  UNL     1      13.349  57.086   1.416  1.00  0.00    -0.010 A 
HETATM   23  C4  UNL     1      13.235  58.436   1.770  1.00  0.00     0.015 A 
HETATM   24  C5  UNL     1      13.427  58.839   3.094  1.00  0.00     0.026 A 
HETATM   25  C6  UNL     1      13.734  57.895   4.076  1.00  0.00     0.055 A 
HETATM   26 CL1  UNL     1      13.958  58.456   5.693  1.00  0.00    -0.083 Cl
HETATM   27  C7  UNL     1      13.851  56.545   3.725  1.00  0.00     0.056 A 
HETATM   28 CL2  UNL     1      14.230  55.319   4.884  1.00  0.00    -0.083 Cl
HETATM   29  C8  UNL     1      13.659  56.140   2.397  1.00  0.00     0.039 A 
ENDBRANCH   4  22
TORSDOF 4
ENDMDL
MODEL 9
REMARK minimizedAffinity -6.19403219
REMARK CNNscore 0.217459485
REMARK CNNaffinity 5.26089525
REMARK  4 active torsions:
REMARK  status: ('A' for Active; 'I' for Inactive)
REMARK    1  A    between atoms: N1_1  and  C1_2 
REMARK    2  A    between atoms: C1_2  and  N2_4 
REMARK    3  A    between atoms: C2_7  and  C3_8 
REMARK    4  A    between atoms: C10_17  and  C11_18 
ROOT
HETATM    1  N2  UNL     1      12.742  50.659  -4.524  1.00  0.00    -0.258 N 
HETATM    2  N3  UNL     1      12.579  51.963  -4.113  1.00  0.00    -0.299 N 
ATOM      3  H3  UNL     1      11.947  52.649  -4.525  1.00  0.00     0.187 HD
HETATM    4  C2  UNL     1      13.375  52.160  -3.108  1.00  0.00     0.038 C 
HETATM    5  C9  UNL     1      14.250  50.992  -2.744  1.00  0.00     0.091 C 
HETATM    6  C10 UNL     1      13.647  49.913  -3.636  1.00  0.00     0.149 C 
ENDROOT
BRANCH   6   7
HETATM    7  C11 UNL     1      12.948  48.842  -2.814  1.00  0.00    -0.032 A 
HETATM    8  C12 UNL     1      13.454  47.538  -2.713  1.00  0.00     0.010 A 
HETATM    9  C13 UNL     1      12.785  46.573  -1.958  1.00  0.00     0.013 A 
HETATM   10  C14 UNL     1      11.591  46.882  -1.291  1.00  0.00    -0.026 A 
HETATM   11  C15 UNL     1      10.908  45.921  -0.529  1.00  0.00     0.012 A 
HETATM   12  C19 UNL     1      11.063  48.188  -1.391  1.00  0.00    -0.025 A 
HETATM   13  C16 UNL     1       9.719  46.244   0.128  1.00  0.00     0.001 A 
HETATM   14  C17 UNL     1       9.199  47.531   0.030  1.00  0.00     0.001 A 
HETATM   15  C18 UNL     1       9.866  48.498  -0.725  1.00  0.00     0.012 A 
HETATM   16  C20 UNL     1      11.747  49.151  -2.153  1.00  0.00     0.021 A 
ENDBRANCH   6   7
BRANCH   1  17
HETATM   17  C1  UNL     1      12.164  50.207  -5.695  1.00  0.00     0.187 C 
HETATM   18  S1  UNL     1      12.972  49.671  -7.058  1.00  0.00    -0.040 SA
BRANCH  17  19
HETATM   19  N1  UNL     1      10.800  50.167  -5.718  1.00  0.00    -0.375 N 
HETATM   20  H1  UNL     1      10.410  49.926  -6.623  1.00  0.00     0.158 HD
HETATM   21  H2  UNL     1      10.297  50.909  -5.248  1.00  0.00     0.158 HD
ENDBRANCH  17  19
ENDBRANCH   1  17
BRANCH   4  22
HETATM   22  C3  UNL     1      13.453  53.454  -2.390  1.00  0.00    -0.010 A 
HETATM   23  C4  UNL     1      14.700  53.899  -1.932  1.00  0.00     0.015 A 
HETATM   24  C5  UNL     1      14.810  55.115  -1.251  1.00  0.00     0.026 A 
HETATM   25  C6  UNL     1      13.675  55.895  -1.022  1.00  0.00     0.055 A 
HETATM   26 CL1  UNL     1      13.878  57.386  -0.176  1.00  0.00    -0.083 Cl
HETATM   27  C7  UNL     1      12.427  55.451  -1.475  1.00  0.00     0.056 A 
HETATM   28 CL2  UNL     1      10.978  56.361  -1.227  1.00  0.00    -0.083 Cl
HETATM   29  C8  UNL     1      12.315  54.233  -2.158  1.00  0.00     0.039 A 
ENDBRANCH   4  22
TORSDOF 4
ENDMDL
