MODEL 1
REMARK minimizedAffinity -8.14125919
REMARK CNNscore 0.135773346
REMARK CNNaffinity 5.24745607
REMARK  1 active torsions:
REMARK  status: ('A' for Active; 'I' for Inactive)
REMARK    1  A    between atoms: C2_2  and  C3_3 
REMARK       I    between atoms: C3_3  and  N1_5 
ROOT
HETATM    1  C3  UNL     1       1.123   8.118   8.838  1.00  0.00     0.247 C 
HETATM    2  O1  UNL     1       0.186   8.770   8.374  1.00  0.00    -0.268 OA
HETATM    3  N1  UNL     1       1.406   7.992  10.209  1.00  0.00    -0.315 N 
HETATM    4  C4  UNL     1       2.646   7.374  10.719  1.00  0.00     0.132 C 
HETATM    5  C5  UNL     1       3.876   8.268  10.537  1.00  0.00     0.020 C 
HETATM    6  C6  UNL     1       5.127   7.602  11.116  1.00  0.00     0.002 C 
HETATM    7  C7  UNL     1       6.426   8.334  10.757  1.00  0.00     0.000 C 
HETATM    8  C8  UNL     1       6.462   9.768  11.278  1.00  0.00     0.000 C 
HETATM    9  C9  UNL     1       7.806  10.447  10.987  1.00  0.00     0.000 C 
HETATM   10  C10 UNL     1       7.804  11.910  11.440  1.00  0.00     0.002 C 
HETATM   11  C11 UNL     1       7.908  12.058  12.961  1.00  0.00     0.020 C 
HETATM   12  C12 UNL     1       7.328  13.375  13.476  1.00  0.00     0.128 C 
HETATM   13  N2  UNL     1       5.876  13.431  13.376  1.00  0.00    -0.355 N 
HETATM   14  C13 UNL     1       5.033  12.745  14.218  1.00  0.00     0.106 A 
HETATM   15  C14 UNL     1       3.735  13.042  13.857  1.00  0.00     0.019 A 
HETATM   16  C15 UNL     1       3.792  13.952  12.757  1.00  0.00     0.005 A 
HETATM   17  C16 UNL     1       2.813  14.611  11.981  1.00  0.00     0.014 A 
HETATM   18  C17 UNL     1       3.204  15.477  10.954  1.00  0.00     0.001 A 
HETATM   19  C18 UNL     1       4.553  15.698  10.696  1.00  0.00     0.002 A 
HETATM   20  C19 UNL     1       5.544  15.060  11.453  1.00  0.00     0.030 A 
HETATM   21  C20 UNL     1       5.145  14.190  12.482  1.00  0.00     0.045 A 
HETATM   22  C21 UNL     1       2.587  12.579  14.607  1.00  0.00     0.048 A 
HETATM   23  C22 UNL     1       2.084  13.379  15.610  1.00  0.00     0.047 A 
HETATM   24  C23 UNL     1       1.023  12.855  16.296  1.00  0.00     0.093 A 
HETATM   25  N3  UNL     1       0.491  11.653  16.017  1.00  0.00    -0.342 N 
ATOM     26  H3  UNL     1      -0.291  11.282  16.557  1.00  0.00     0.167 HD
HETATM   27  C24 UNL     1       1.029  10.955  14.996  1.00  0.00     0.162 A 
HETATM   28  N4  UNL     1       2.080  11.372  14.277  1.00  0.00    -0.332 N 
ATOM     29  H4  UNL     1       2.475  10.810  13.523  1.00  0.00     0.168 HD
HETATM   30  N5  UNL     1       0.384   9.732  14.742  1.00  0.00    -0.230 NA
HETATM   31  C25 UNL     1      -0.031   9.309  13.458  1.00  0.00     0.017 A 
HETATM   32  C26 UNL     1      -1.397   9.297  13.156  1.00  0.00     0.024 A 
HETATM   33  C27 UNL     1      -1.835   8.896  11.899  1.00  0.00     0.004 A 
HETATM   34  C28 UNL     1      -0.911   8.492  10.934  1.00  0.00     0.030 A 
HETATM   35  C29 UNL     1       0.468   8.486  11.198  1.00  0.00     0.039 A 
HETATM   36  C30 UNL     1       0.888   8.919  12.471  1.00  0.00     0.053 A 
HETATM   37  H29 UNL     1      -0.400   9.764  15.388  1.00  0.00     0.136 HD
ENDROOT
BRANCH   1  38
HETATM   38  C2  UNL     1       2.037   7.432   7.867  1.00  0.00     0.064 C 
HETATM   39  C1  UNL     1       1.674   7.277   6.586  1.00  0.00     0.017 C 
ENDBRANCH   1  38
TORSDOF 1
ENDMDL
MODEL 2
REMARK minimizedAffinity -7.28666925
REMARK CNNscore 0.123624176
REMARK CNNaffinity 5.91853714
REMARK  1 active torsions:
REMARK  status: ('A' for Active; 'I' for Inactive)
REMARK    1  A    between atoms: C2_2  and  C3_3 
REMARK       I    between atoms: C3_3  and  N1_5 
ROOT
HETATM    1  C3  UNL     1     -13.096   4.367  30.302  1.00  0.00     0.247 C 
HETATM    2  O1  UNL     1     -11.879   4.182  30.243  1.00  0.00    -0.268 OA
HETATM    3  N1  UNL     1     -14.007   4.009  29.293  1.00  0.00    -0.315 N 
HETATM    4  C4  UNL     1     -15.424   4.426  29.307  1.00  0.00     0.132 C 
HETATM    5  C5  UNL     1     -15.614   5.907  28.966  1.00  0.00     0.020 C 
HETATM    6  C6  UNL     1     -17.099   6.279  28.954  1.00  0.00     0.002 C 
HETATM    7  C7  UNL     1     -17.345   7.789  28.854  1.00  0.00     0.000 C 
HETATM    8  C8  UNL     1     -16.770   8.402  27.580  1.00  0.00     0.000 C 
HETATM    9  C9  UNL     1     -17.109   9.892  27.459  1.00  0.00     0.000 C 
HETATM   10  C10 UNL     1     -16.461  10.515  26.220  1.00  0.00     0.002 C 
HETATM   11  C11 UNL     1     -17.166  10.115  24.920  1.00  0.00     0.020 C 
HETATM   12  C12 UNL     1     -16.255  10.200  23.695  1.00  0.00     0.128 C 
HETATM   13  N2  UNL     1     -15.227   9.168  23.682  1.00  0.00    -0.355 N 
HETATM   14  C13 UNL     1     -15.481   7.850  23.386  1.00  0.00     0.106 A 
HETATM   15  C14 UNL     1     -14.287   7.162  23.444  1.00  0.00     0.019 A 
HETATM   16  C15 UNL     1     -13.265   8.102  23.779  1.00  0.00     0.005 A 
HETATM   17  C16 UNL     1     -11.868   8.003  23.964  1.00  0.00     0.014 A 
HETATM   18  C17 UNL     1     -11.124   9.145  24.281  1.00  0.00     0.001 A 
HETATM   19  C18 UNL     1     -11.752  10.380  24.409  1.00  0.00     0.002 A 
HETATM   20  C19 UNL     1     -13.135  10.507  24.228  1.00  0.00     0.030 A 
HETATM   21  C20 UNL     1     -13.876   9.355  23.912  1.00  0.00     0.045 A 
HETATM   22  C21 UNL     1     -14.167   5.768  23.075  1.00  0.00     0.048 A 
HETATM   23  C22 UNL     1     -13.844   5.451  21.773  1.00  0.00     0.047 A 
HETATM   24  C23 UNL     1     -13.786   4.113  21.497  1.00  0.00     0.093 A 
HETATM   25  N3  UNL     1     -14.015   3.162  22.419  1.00  0.00    -0.342 N 
ATOM     26  H3  UNL     1     -13.980   2.172  22.178  1.00  0.00     0.167 HD
HETATM   27  C24 UNL     1     -14.292   3.568  23.676  1.00  0.00     0.162 A 
HETATM   28  N4  UNL     1     -14.390   4.852  24.043  1.00  0.00    -0.332 N 
ATOM     29  H4  UNL     1     -14.621   5.124  24.998  1.00  0.00     0.168 HD
HETATM   30  N5  UNL     1     -14.470   2.511  24.586  1.00  0.00    -0.230 NA
HETATM   31  C25 UNL     1     -13.838   2.440  25.848  1.00  0.00     0.017 A 
HETATM   32  C26 UNL     1     -12.810   1.511  26.041  1.00  0.00     0.024 A 
HETATM   33  C27 UNL     1     -12.163   1.426  27.269  1.00  0.00     0.004 A 
HETATM   34  C28 UNL     1     -12.545   2.261  28.320  1.00  0.00     0.030 A 
HETATM   35  C29 UNL     1     -13.574   3.203  28.169  1.00  0.00     0.039 A 
HETATM   36  C30 UNL     1     -14.199   3.288  26.908  1.00  0.00     0.053 A 
HETATM   37  H29 UNL     1     -14.248   1.698  24.018  1.00  0.00     0.136 HD
ENDROOT
BRANCH   1  38
HETATM   38  C2  UNL     1     -13.636   5.045  31.526  1.00  0.00     0.064 C 
HETATM   39  C1  UNL     1     -14.208   4.326  32.503  1.00  0.00     0.017 C 
ENDBRANCH   1  38
TORSDOF 1
ENDMDL
MODEL 3
REMARK minimizedAffinity -6.12205553
REMARK CNNscore 0.102653094
REMARK CNNaffinity 4.50357199
REMARK  1 active torsions:
REMARK  status: ('A' for Active; 'I' for Inactive)
REMARK    1  A    between atoms: C2_2  and  C3_3 
REMARK       I    between atoms: C3_3  and  N1_5 
ROOT
HETATM    1  C3  UNL     1       2.932   9.171  15.516  1.00  0.00     0.247 C 
HETATM    2  O1  UNL     1       3.758   8.890  14.644  1.00  0.00    -0.268 OA
HETATM    3  N1  UNL     1       2.591  10.479  15.901  1.00  0.00    -0.315 N 
HETATM    4  C4  UNL     1       1.754  10.776  17.081  1.00  0.00     0.132 C 
HETATM    5  C5  UNL     1       2.495  10.571  18.405  1.00  0.00     0.020 C 
HETATM    6  C6  UNL     1       1.600  10.928  19.594  1.00  0.00     0.002 C 
HETATM    7  C7  UNL     1       2.197  10.522  20.947  1.00  0.00     0.000 C 
HETATM    8  C8  UNL     1       3.533  11.202  21.235  1.00  0.00     0.000 C 
HETATM    9  C9  UNL     1       4.062  10.851  22.630  1.00  0.00     0.000 C 
HETATM   10  C10 UNL     1       5.440  11.472  22.879  1.00  0.00     0.002 C 
HETATM   11  C11 UNL     1       5.370  12.979  23.140  1.00  0.00     0.020 C 
HETATM   12  C12 UNL     1       6.672  13.706  22.803  1.00  0.00     0.128 C 
HETATM   13  N2  UNL     1       6.930  13.770  21.371  1.00  0.00    -0.355 N 
HETATM   14  C13 UNL     1       6.256  14.610  20.517  1.00  0.00     0.106 A 
HETATM   15  C14 UNL     1       6.765  14.428  19.248  1.00  0.00     0.019 A 
HETATM   16  C15 UNL     1       7.797  13.445  19.337  1.00  0.00     0.005 A 
HETATM   17  C16 UNL     1       8.675  12.862  18.396  1.00  0.00     0.014 A 
HETATM   18  C17 UNL     1       9.611  11.909  18.813  1.00  0.00     0.001 A 
HETATM   19  C18 UNL     1       9.686  11.535  20.152  1.00  0.00     0.002 A 
HETATM   20  C19 UNL     1       8.830  12.100  21.105  1.00  0.00     0.030 A 
HETATM   21  C20 UNL     1       7.890  13.056  20.679  1.00  0.00     0.045 A 
HETATM   22  C21 UNL     1       6.362  15.237  18.119  1.00  0.00     0.048 A 
HETATM   23  C22 UNL     1       7.081  16.377  17.827  1.00  0.00     0.047 A 
HETATM   24  C23 UNL     1       6.614  17.105  16.768  1.00  0.00     0.093 A 
HETATM   25  N3  UNL     1       5.539  16.745  16.046  1.00  0.00    -0.342 N 
ATOM     26  H3  UNL     1       5.206  17.318  15.271  1.00  0.00     0.167 HD
HETATM   27  C24 UNL     1       4.919  15.596  16.385  1.00  0.00     0.162 A 
HETATM   28  N4  UNL     1       5.286  14.822  17.416  1.00  0.00    -0.332 N 
ATOM     29  H4  UNL     1       4.781  13.969  17.656  1.00  0.00     0.168 HD
HETATM   30  N5  UNL     1       3.835  15.269  15.551  1.00  0.00    -0.230 NA
HETATM   31  C25 UNL     1       3.643  13.997  14.965  1.00  0.00     0.017 A 
HETATM   32  C26 UNL     1       3.850  13.844  13.590  1.00  0.00     0.024 A 
HETATM   33  C27 UNL     1       3.680  12.602  12.989  1.00  0.00     0.004 A 
HETATM   34  C28 UNL     1       3.289  11.503  13.754  1.00  0.00     0.030 A 
HETATM   35  C29 UNL     1       3.068  11.614  15.136  1.00  0.00     0.039 A 
HETATM   36  C30 UNL     1       3.270  12.878  15.727  1.00  0.00     0.053 A 
HETATM   37  H29 UNL     1       3.883  15.995  14.841  1.00  0.00     0.136 HD
ENDROOT
BRANCH   1  38
HETATM   38  C2  UNL     1       2.267   8.033  16.232  1.00  0.00     0.064 C 
HETATM   39  C1  UNL     1       1.114   7.525  15.775  1.00  0.00     0.017 C 
ENDBRANCH   1  38
TORSDOF 1
ENDMDL
MODEL 4
REMARK minimizedAffinity -6.34283209
REMARK CNNscore 0.101679251
REMARK CNNaffinity 4.81635332
REMARK  1 active torsions:
REMARK  status: ('A' for Active; 'I' for Inactive)
REMARK    1  A    between atoms: C2_2  and  C3_3 
REMARK       I    between atoms: C3_3  and  N1_5 
ROOT
HETATM    1  C3  UNL     1     -20.483   0.302  10.456  1.00  0.00     0.247 C 
HETATM    2  O1  UNL     1     -19.830   1.146   9.839  1.00  0.00    -0.268 OA
HETATM    3  N1  UNL     1     -20.001  -0.435  11.552  1.00  0.00    -0.315 N 
HETATM    4  C4  UNL     1     -20.735  -1.575  12.137  1.00  0.00     0.132 C 
HETATM    5  C5  UNL     1     -20.684  -2.830  11.260  1.00  0.00     0.020 C 
HETATM    6  C6  UNL     1     -21.424  -3.993  11.926  1.00  0.00     0.002 C 
HETATM    7  C7  UNL     1     -21.614  -5.201  11.001  1.00  0.00     0.000 C 
HETATM    8  C8  UNL     1     -20.292  -5.793  10.519  1.00  0.00     0.000 C 
HETATM    9  C9  UNL     1     -20.507  -7.053   9.672  1.00  0.00     0.000 C 
HETATM   10  C10 UNL     1     -19.182  -7.593   9.125  1.00  0.00     0.002 C 
HETATM   11  C11 UNL     1     -18.343  -8.296  10.197  1.00  0.00     0.020 C 
HETATM   12  C12 UNL     1     -16.849  -8.307   9.877  1.00  0.00     0.128 C 
HETATM   13  N2  UNL     1     -16.237  -6.990   9.987  1.00  0.00    -0.355 N 
HETATM   14  C13 UNL     1     -15.961  -6.381  11.188  1.00  0.00     0.106 A 
HETATM   15  C14 UNL     1     -15.368  -5.164  10.924  1.00  0.00     0.019 A 
HETATM   16  C15 UNL     1     -15.271  -5.032   9.505  1.00  0.00     0.005 A 
HETATM   17  C16 UNL     1     -14.754  -4.034   8.649  1.00  0.00     0.014 A 
HETATM   18  C17 UNL     1     -14.795  -4.216   7.262  1.00  0.00     0.001 A 
HETATM   19  C18 UNL     1     -15.337  -5.378   6.721  1.00  0.00     0.002 A 
HETATM   20  C19 UNL     1     -15.854  -6.383   7.547  1.00  0.00     0.030 A 
HETATM   21  C20 UNL     1     -15.811  -6.194   8.939  1.00  0.00     0.045 A 
HETATM   22  C21 UNL     1     -14.842  -4.307  11.964  1.00  0.00     0.048 A 
HETATM   23  C22 UNL     1     -13.519  -4.438  12.328  1.00  0.00     0.047 A 
HETATM   24  C23 UNL     1     -13.109  -3.619  13.342  1.00  0.00     0.093 A 
HETATM   25  N3  UNL     1     -13.922  -2.734  13.946  1.00  0.00    -0.342 N 
ATOM     26  H3  UNL     1     -13.591  -2.147  14.711  1.00  0.00     0.167 HD
HETATM   27  C24 UNL     1     -15.193  -2.652  13.500  1.00  0.00     0.162 A 
HETATM   28  N4  UNL     1     -15.696  -3.424  12.527  1.00  0.00    -0.332 N 
ATOM     29  H4  UNL     1     -16.668  -3.349  12.227  1.00  0.00     0.168 HD
HETATM   30  N5  UNL     1     -15.961  -1.672  14.152  1.00  0.00    -0.230 NA
HETATM   31  C25 UNL     1     -16.752  -0.711  13.481  1.00  0.00     0.017 A 
HETATM   32  C26 UNL     1     -16.330   0.623  13.463  1.00  0.00     0.024 A 
HETATM   33  C27 UNL     1     -17.082   1.587  12.801  1.00  0.00     0.004 A 
HETATM   34  C28 UNL     1     -18.269   1.230  12.161  1.00  0.00     0.030 A 
HETATM   35  C29 UNL     1     -18.729  -0.096  12.158  1.00  0.00     0.039 A 
HETATM   36  C30 UNL     1     -17.938  -1.060  12.815  1.00  0.00     0.053 A 
HETATM   37  H29 UNL     1     -15.273  -1.224  14.753  1.00  0.00     0.136 HD
ENDROOT
BRANCH   1  38
HETATM   38  C2  UNL     1     -21.880   0.026   9.985  1.00  0.00     0.064 C 
HETATM   39  C1  UNL     1     -22.882   0.856  10.309  1.00  0.00     0.017 C 
ENDBRANCH   1  38
TORSDOF 1
ENDMDL
MODEL 5
REMARK minimizedAffinity -8.14320469
REMARK CNNscore 0.0998924747
REMARK CNNaffinity 5.26353455
REMARK  1 active torsions:
REMARK  status: ('A' for Active; 'I' for Inactive)
REMARK    1  A    between atoms: C2_2  and  C3_3 
REMARK       I    between atoms: C3_3  and  N1_5 
ROOT
HETATM    1  C3  UNL     1       2.607   9.682  22.366  1.00  0.00     0.247 C 
HETATM    2  O1  UNL     1       2.085   8.748  21.753  1.00  0.00    -0.268 OA
HETATM    3  N1  UNL     1       2.727  10.992  21.870  1.00  0.00    -0.315 N 
HETATM    4  C4  UNL     1       3.533  12.033  22.541  1.00  0.00     0.132 C 
HETATM    5  C5  UNL     1       5.040  11.821  22.372  1.00  0.00     0.020 C 
HETATM    6  C6  UNL     1       5.829  12.944  23.049  1.00  0.00     0.002 C 
HETATM    7  C7  UNL     1       7.336  12.669  23.122  1.00  0.00     0.000 C 
HETATM    8  C8  UNL     1       7.976  12.505  21.746  1.00  0.00     0.000 C 
HETATM    9  C9  UNL     1       9.496  12.324  21.841  1.00  0.00     0.000 C 
HETATM   10  C10 UNL     1      10.119  12.080  20.464  1.00  0.00     0.002 C 
HETATM   11  C11 UNL     1      10.192  13.352  19.615  1.00  0.00     0.020 C 
HETATM   12  C12 UNL     1      10.229  13.069  18.113  1.00  0.00     0.128 C 
HETATM   13  N2  UNL     1       8.962  12.568  17.600  1.00  0.00    -0.355 N 
HETATM   14  C13 UNL     1       7.855  13.361  17.410  1.00  0.00     0.106 A 
HETATM   15  C14 UNL     1       6.848  12.573  16.895  1.00  0.00     0.019 A 
HETATM   16  C15 UNL     1       7.365  11.248  16.759  1.00  0.00     0.005 A 
HETATM   17  C16 UNL     1       6.826  10.031  16.285  1.00  0.00     0.014 A 
HETATM   18  C17 UNL     1       7.619   8.878  16.266  1.00  0.00     0.001 A 
HETATM   19  C18 UNL     1       8.938   8.925  16.706  1.00  0.00     0.002 A 
HETATM   20  C19 UNL     1       9.498  10.118  17.178  1.00  0.00     0.030 A 
HETATM   21  C20 UNL     1       8.696  11.273  17.196  1.00  0.00     0.045 A 
HETATM   22  C21 UNL     1       5.574  13.109  16.467  1.00  0.00     0.048 A 
HETATM   23  C22 UNL     1       5.422  13.490  15.151  1.00  0.00     0.047 A 
HETATM   24  C23 UNL     1       4.203  14.021  14.835  1.00  0.00     0.093 A 
HETATM   25  N3  UNL     1       3.208  14.158  15.729  1.00  0.00    -0.342 N 
ATOM     26  H3  UNL     1       2.313  14.573  15.467  1.00  0.00     0.167 HD
HETATM   27  C24 UNL     1       3.437  13.726  16.987  1.00  0.00     0.162 A 
HETATM   28  N4  UNL     1       4.602  13.211  17.400  1.00  0.00    -0.332 N 
ATOM     29  H4  UNL     1       4.748  12.912  18.364  1.00  0.00     0.168 HD
HETATM   30  N5  UNL     1       2.331  13.863  17.844  1.00  0.00    -0.230 NA
HETATM   31  C25 UNL     1       1.844  12.831  18.677  1.00  0.00     0.017 A 
HETATM   32  C26 UNL     1       0.634  12.208  18.351  1.00  0.00     0.024 A 
HETATM   33  C27 UNL     1       0.136  11.182  19.146  1.00  0.00     0.004 A 
HETATM   34  C28 UNL     1       0.837  10.776  20.282  1.00  0.00     0.030 A 
HETATM   35  C29 UNL     1       2.052  11.377  20.647  1.00  0.00     0.039 A 
HETATM   36  C30 UNL     1       2.548  12.398  19.812  1.00  0.00     0.053 A 
HETATM   37  H29 UNL     1       1.607  14.195  17.210  1.00  0.00     0.136 HD
ENDROOT
BRANCH   1  38
HETATM   38  C2  UNL     1       3.175   9.390  23.722  1.00  0.00     0.064 C 
HETATM   39  C1  UNL     1       2.437   9.591  24.824  1.00  0.00     0.017 C 
ENDBRANCH   1  38
TORSDOF 1
ENDMDL
MODEL 6
REMARK minimizedAffinity -6.73049259
REMARK CNNscore 0.0991278961
REMARK CNNaffinity 5.23865461
REMARK  1 active torsions:
REMARK  status: ('A' for Active; 'I' for Inactive)
REMARK    1  A    between atoms: C2_2  and  C3_3 
REMARK       I    between atoms: C3_3  and  N1_5 
ROOT
HETATM    1  C3  UNL     1     -12.944  -7.139  29.930  1.00  0.00     0.247 C 
HETATM    2  O1  UNL     1     -11.935  -7.168  30.639  1.00  0.00    -0.268 OA
HETATM    3  N1  UNL     1     -13.832  -8.215  29.760  1.00  0.00    -0.315 N 
HETATM    4  C4  UNL     1     -14.911  -8.214  28.753  1.00  0.00     0.132 C 
HETATM    5  C5  UNL     1     -14.393  -8.403  27.324  1.00  0.00     0.020 C 
HETATM    6  C6  UNL     1     -15.551  -8.434  26.322  1.00  0.00     0.002 C 
HETATM    7  C7  UNL     1     -15.091  -8.382  24.861  1.00  0.00     0.000 C 
HETATM    8  C8  UNL     1     -14.200  -9.561  24.477  1.00  0.00     0.000 C 
HETATM    9  C9  UNL     1     -13.830  -9.537  22.989  1.00  0.00     0.000 C 
HETATM   10  C10 UNL     1     -12.871 -10.676  22.632  1.00  0.00     0.002 C 
HETATM   11  C11 UNL     1     -13.570 -12.038  22.570  1.00  0.00     0.020 C 
HETATM   12  C12 UNL     1     -12.619 -13.210  22.811  1.00  0.00     0.128 C 
HETATM   13  N2  UNL     1     -12.160 -13.292  24.190  1.00  0.00    -0.355 N 
HETATM   14  C13 UNL     1     -12.948 -13.735  25.226  1.00  0.00     0.106 A 
HETATM   15  C14 UNL     1     -12.194 -13.704  26.380  1.00  0.00     0.019 A 
HETATM   16  C15 UNL     1     -10.892 -13.231  26.031  1.00  0.00     0.005 A 
HETATM   17  C16 UNL     1      -9.705 -13.002  26.762  1.00  0.00     0.014 A 
HETATM   18  C17 UNL     1      -8.560 -12.537  26.106  1.00  0.00     0.001 A 
HETATM   19  C18 UNL     1      -8.582 -12.303  24.735  1.00  0.00     0.002 A 
HETATM   20  C19 UNL     1      -9.744 -12.525  23.985  1.00  0.00     0.030 A 
HETATM   21  C20 UNL     1     -10.891 -12.990  24.651  1.00  0.00     0.045 A 
HETATM   22  C21 UNL     1     -12.677 -14.213  27.646  1.00  0.00     0.048 A 
HETATM   23  C22 UNL     1     -12.421 -15.528  27.973  1.00  0.00     0.047 A 
HETATM   24  C23 UNL     1     -12.942 -15.942  29.167  1.00  0.00     0.093 A 
HETATM   25  N3  UNL     1     -13.645 -15.135  29.981  1.00  0.00    -0.342 N 
ATOM     26  H3  UNL     1     -14.035 -15.478  30.859  1.00  0.00     0.167 HD
HETATM   27  C24 UNL     1     -13.816 -13.855  29.593  1.00  0.00     0.162 A 
HETATM   28  N4  UNL     1     -13.363 -13.358  28.434  1.00  0.00    -0.332 N 
ATOM     29  H4  UNL     1     -13.527 -12.388  28.162  1.00  0.00     0.168 HD
HETATM   30  N5  UNL     1     -14.521 -13.069  30.522  1.00  0.00    -0.230 NA
HETATM   31  C25 UNL     1     -14.093 -11.797  30.967  1.00  0.00     0.017 A 
HETATM   32  C26 UNL     1     -13.605 -11.663  32.271  1.00  0.00     0.024 A 
HETATM   33  C27 UNL     1     -13.167 -10.427  32.733  1.00  0.00     0.004 A 
HETATM   34  C28 UNL     1     -13.225  -9.310  31.899  1.00  0.00     0.030 A 
HETATM   35  C29 UNL     1     -13.711  -9.400  30.586  1.00  0.00     0.039 A 
HETATM   36  C30 UNL     1     -14.126 -10.669  30.132  1.00  0.00     0.053 A 
HETATM   37  H29 UNL     1     -14.637 -13.711  31.302  1.00  0.00     0.136 HD
ENDROOT
BRANCH   1  38
HETATM   38  C2  UNL     1     -13.225  -5.872  29.178  1.00  0.00     0.064 C 
HETATM   39  C1  UNL     1     -12.942  -4.681  29.726  1.00  0.00     0.017 C 
ENDBRANCH   1  38
TORSDOF 1
ENDMDL
MODEL 7
REMARK minimizedAffinity -6.67924547
REMARK CNNscore 0.0933628008
REMARK CNNaffinity 4.7811923
REMARK  1 active torsions:
REMARK  status: ('A' for Active; 'I' for Inactive)
REMARK    1  A    between atoms: C2_2  and  C3_3 
REMARK       I    between atoms: C3_3  and  N1_5 
ROOT
HETATM    1  C3  UNL     1      15.815  -1.934   1.594  1.00  0.00     0.247 C 
HETATM    2  O1  UNL     1      14.710  -2.075   1.066  1.00  0.00    -0.268 OA
HETATM    3  N1  UNL     1      16.667  -2.993   1.954  1.00  0.00    -0.315 N 
HETATM    4  C4  UNL     1      17.887  -2.800   2.764  1.00  0.00     0.132 C 
HETATM    5  C5  UNL     1      17.586  -2.528   4.241  1.00  0.00     0.020 C 
HETATM    6  C6  UNL     1      18.880  -2.376   5.044  1.00  0.00     0.002 C 
HETATM    7  C7  UNL     1      18.652  -1.870   6.473  1.00  0.00     0.000 C 
HETATM    8  C8  UNL     1      17.777  -2.807   7.302  1.00  0.00     0.000 C 
HETATM    9  C9  UNL     1      17.639  -2.327   8.751  1.00  0.00     0.000 C 
HETATM   10  C10 UNL     1      16.695  -3.228   9.553  1.00  0.00     0.002 C 
HETATM   11  C11 UNL     1      17.331  -4.572   9.919  1.00  0.00     0.020 C 
HETATM   12  C12 UNL     1      16.301  -5.675  10.163  1.00  0.00     0.128 C 
HETATM   13  N2  UNL     1      15.633  -6.105   8.942  1.00  0.00    -0.355 N 
HETATM   14  C13 UNL     1      16.231  -6.892   7.988  1.00  0.00     0.106 A 
HETATM   15  C14 UNL     1      15.312  -7.124   6.987  1.00  0.00     0.019 A 
HETATM   16  C15 UNL     1      14.103  -6.457   7.351  1.00  0.00     0.005 A 
HETATM   17  C16 UNL     1      12.830  -6.341   6.749  1.00  0.00     0.014 A 
HETATM   18  C17 UNL     1      11.822  -5.608   7.385  1.00  0.00     0.001 A 
HETATM   19  C18 UNL     1      12.064  -4.997   8.611  1.00  0.00     0.002 A 
HETATM   20  C19 UNL     1      13.315  -5.099   9.231  1.00  0.00     0.030 A 
HETATM   21  C20 UNL     1      14.324  -5.835   8.586  1.00  0.00     0.045 A 
HETATM   22  C21 UNL     1      15.571  -8.013   5.875  1.00  0.00     0.048 A 
HETATM   23  C22 UNL     1      15.208  -9.338   5.986  1.00  0.00     0.047 A 
HETATM   24  C23 UNL     1      15.520 -10.120   4.909  1.00  0.00     0.093 A 
HETATM   25  N3  UNL     1      16.128  -9.644   3.808  1.00  0.00    -0.342 N 
ATOM     26  H3  UNL     1      16.362 -10.256   3.026  1.00  0.00     0.167 HD
HETATM   27  C24 UNL     1      16.415  -8.326   3.776  1.00  0.00     0.162 A 
HETATM   28  N4  UNL     1      16.168  -7.482   4.786  1.00  0.00    -0.332 N 
ATOM     29  H4  UNL     1      16.417  -6.494   4.736  1.00  0.00     0.168 HD
HETATM   30  N5  UNL     1      17.005  -7.904   2.572  1.00  0.00    -0.230 NA
HETATM   31  C25 UNL     1      16.574  -6.778   1.832  1.00  0.00     0.017 A 
HETATM   32  C26 UNL     1      15.899  -6.978   0.623  1.00  0.00     0.024 A 
HETATM   33  C27 UNL     1      15.454  -5.891  -0.120  1.00  0.00     0.004 A 
HETATM   34  C28 UNL     1      15.690  -4.592   0.333  1.00  0.00     0.030 A 
HETATM   35  C29 UNL     1      16.367  -4.348   1.538  1.00  0.00     0.039 A 
HETATM   36  C30 UNL     1      16.787  -5.467   2.286  1.00  0.00     0.053 A 
HETATM   37  H29 UNL     1      16.970  -8.748   2.006  1.00  0.00     0.136 HD
ENDROOT
BRANCH   1  38
HETATM   38  C2  UNL     1      16.266  -0.536   1.895  1.00  0.00     0.064 C 
HETATM   39  C1  UNL     1      15.628   0.199   2.818  1.00  0.00     0.017 C 
ENDBRANCH   1  38
TORSDOF 1
ENDMDL
MODEL 8
REMARK minimizedAffinity -5.79909277
REMARK CNNscore 0.0870613009
REMARK CNNaffinity 4.31425524
REMARK  1 active torsions:
REMARK  status: ('A' for Active; 'I' for Inactive)
REMARK    1  A    between atoms: C2_2  and  C3_3 
REMARK       I    between atoms: C3_3  and  N1_5 
ROOT
HETATM    1  C3  UNL     1      14.666   3.132  10.181  1.00  0.00     0.247 C 
HETATM    2  O1  UNL     1      13.832   3.829   9.600  1.00  0.00    -0.268 OA
HETATM    3  N1  UNL     1      16.054   3.204   9.968  1.00  0.00    -0.315 N 
HETATM    4  C4  UNL     1      17.004   2.221  10.527  1.00  0.00     0.132 C 
HETATM    5  C5  UNL     1      16.955   0.870   9.809  1.00  0.00     0.020 C 
HETATM    6  C6  UNL     1      17.983  -0.100  10.398  1.00  0.00     0.002 C 
HETATM    7  C7  UNL     1      17.824  -1.537   9.888  1.00  0.00     0.000 C 
HETATM    8  C8  UNL     1      17.989  -1.651   8.374  1.00  0.00     0.000 C 
HETATM    9  C9  UNL     1      17.918  -3.108   7.901  1.00  0.00     0.000 C 
HETATM   10  C10 UNL     1      18.004  -3.205   6.375  1.00  0.00     0.002 C 
HETATM   11  C11 UNL     1      19.421  -2.964   5.846  1.00  0.00     0.020 C 
HETATM   12  C12 UNL     1      19.445  -2.471   4.400  1.00  0.00     0.128 C 
HETATM   13  N2  UNL     1      18.953  -1.108   4.259  1.00  0.00    -0.355 N 
HETATM   14  C13 UNL     1      19.674   0.000   4.635  1.00  0.00     0.106 A 
HETATM   15  C14 UNL     1      18.922   1.119   4.342  1.00  0.00     0.019 A 
HETATM   16  C15 UNL     1      17.698   0.673   3.755  1.00  0.00     0.005 A 
HETATM   17  C16 UNL     1      16.559   1.336   3.246  1.00  0.00     0.014 A 
HETATM   18  C17 UNL     1      15.502   0.593   2.709  1.00  0.00     0.001 A 
HETATM   19  C18 UNL     1      15.569  -0.797   2.668  1.00  0.00     0.002 A 
HETATM   20  C19 UNL     1      16.688  -1.478   3.163  1.00  0.00     0.030 A 
HETATM   21  C20 UNL     1      17.746  -0.726   3.703  1.00  0.00     0.045 A 
HETATM   22  C21 UNL     1      19.426   2.466   4.503  1.00  0.00     0.048 A 
HETATM   23  C22 UNL     1      20.046   3.076   3.434  1.00  0.00     0.047 A 
HETATM   24  C23 UNL     1      20.527   4.332   3.678  1.00  0.00     0.093 A 
HETATM   25  N3  UNL     1      20.402   4.948   4.866  1.00  0.00    -0.342 N 
ATOM     26  H3  UNL     1      20.785   5.880   5.023  1.00  0.00     0.167 HD
HETATM   27  C24 UNL     1      19.750   4.286   5.845  1.00  0.00     0.162 A 
HETATM   28  N4  UNL     1      19.260   3.046   5.712  1.00  0.00    -0.332 N 
ATOM     29  H4  UNL     1      18.789   2.567   6.479  1.00  0.00     0.168 HD
HETATM   30  N5  UNL     1      19.623   5.019   7.038  1.00  0.00    -0.230 NA
HETATM   31  C25 UNL     1      18.409   5.172   7.746  1.00  0.00     0.017 A 
HETATM   32  C26 UNL     1      17.765   6.415   7.730  1.00  0.00     0.024 A 
HETATM   33  C27 UNL     1      16.564   6.592   8.407  1.00  0.00     0.004 A 
HETATM   34  C28 UNL     1      16.001   5.532   9.119  1.00  0.00     0.030 A 
HETATM   35  C29 UNL     1      16.616   4.271   9.164  1.00  0.00     0.039 A 
HETATM   36  C30 UNL     1      17.820   4.109   8.448  1.00  0.00     0.053 A 
HETATM   37  H29 UNL     1      20.012   5.922   6.779  1.00  0.00     0.136 HD
ENDROOT
BRANCH   1  38
HETATM   38  C2  UNL     1      14.159   2.119  11.164  1.00  0.00     0.064 C 
HETATM   39  C1  UNL     1      13.939   2.463  12.441  1.00  0.00     0.017 C 
ENDBRANCH   1  38
TORSDOF 1
ENDMDL
MODEL 9
REMARK minimizedAffinity -5.8685565
REMARK CNNscore 0.0815611035
REMARK CNNaffinity 4.86206675
REMARK  1 active torsions:
REMARK  status: ('A' for Active; 'I' for Inactive)
REMARK    1  A    between atoms: C2_2  and  C3_3 
REMARK       I    between atoms: C3_3  and  N1_5 
ROOT
HETATM    1  C3  UNL     1     -14.839   3.342  24.653  1.00  0.00     0.247 C 
HETATM    2  O1  UNL     1     -14.886   2.117  24.515  1.00  0.00    -0.268 OA
HETATM    3  N1  UNL     1     -14.245   3.999  25.745  1.00  0.00    -0.315 N 
HETATM    4  C4  UNL     1     -14.383   5.450  25.979  1.00  0.00     0.132 C 
HETATM    5  C5  UNL     1     -15.773   5.843  26.487  1.00  0.00     0.020 C 
HETATM    6  C6  UNL     1     -15.854   7.349  26.752  1.00  0.00     0.002 C 
HETATM    7  C7  UNL     1     -17.279   7.840  27.033  1.00  0.00     0.000 C 
HETATM    8  C8  UNL     1     -17.900   7.185  28.264  1.00  0.00     0.000 C 
HETATM    9  C9  UNL     1     -19.286   7.760  28.578  1.00  0.00     0.000 C 
HETATM   10  C10 UNL     1     -19.935   7.041  29.765  1.00  0.00     0.002 C 
HETATM   11  C11 UNL     1     -19.319   7.444  31.108  1.00  0.00     0.020 C 
HETATM   12  C12 UNL     1     -19.491   6.377  32.189  1.00  0.00     0.128 C 
HETATM   13  N2  UNL     1     -18.676   5.194  31.951  1.00  0.00    -0.355 N 
HETATM   14  C13 UNL     1     -17.317   5.157  32.150  1.00  0.00     0.106 A 
HETATM   15  C14 UNL     1     -16.875   3.885  31.852  1.00  0.00     0.019 A 
HETATM   16  C15 UNL     1     -18.014   3.115  31.465  1.00  0.00     0.005 A 
HETATM   17  C16 UNL     1     -18.196   1.771  31.069  1.00  0.00     0.014 A 
HETATM   18  C17 UNL     1     -19.479   1.303  30.760  1.00  0.00     0.001 A 
HETATM   19  C18 UNL     1     -20.577   2.153  30.846  1.00  0.00     0.002 A 
HETATM   20  C19 UNL     1     -20.424   3.489  31.239  1.00  0.00     0.030 A 
HETATM   21  C20 UNL     1     -19.133   3.953  31.546  1.00  0.00     0.045 A 
HETATM   22  C21 UNL     1     -15.507   3.462  32.061  1.00  0.00     0.048 A 
HETATM   23  C22 UNL     1     -15.169   2.881  33.265  1.00  0.00     0.047 A 
HETATM   24  C23 UNL     1     -13.851   2.543  33.397  1.00  0.00     0.093 A 
HETATM   25  N3  UNL     1     -12.939   2.745  32.430  1.00  0.00    -0.342 N 
ATOM     26  H3  UNL     1     -11.960   2.496  32.565  1.00  0.00     0.167 HD
HETATM   27  C24 UNL     1     -13.370   3.288  31.273  1.00  0.00     0.162 A 
HETATM   28  N4  UNL     1     -14.635   3.672  31.051  1.00  0.00    -0.332 N 
ATOM     29  H4  UNL     1     -14.923   4.098  30.171  1.00  0.00     0.168 HD
HETATM   30  N5  UNL     1     -12.365   3.421  30.299  1.00  0.00    -0.230 NA
HETATM   31  C25 UNL     1     -12.503   2.999  28.957  1.00  0.00     0.017 A 
HETATM   32  C26 UNL     1     -11.803   1.867  28.526  1.00  0.00     0.024 A 
HETATM   33  C27 UNL     1     -11.928   1.422  27.215  1.00  0.00     0.004 A 
HETATM   34  C28 UNL     1     -12.745   2.112  26.318  1.00  0.00     0.030 A 
HETATM   35  C29 UNL     1     -13.461   3.254  26.709  1.00  0.00     0.039 A 
HETATM   36  C30 UNL     1     -13.337   3.671  28.050  1.00  0.00     0.053 A 
HETATM   37  H29 UNL     1     -11.571   2.968  30.746  1.00  0.00     0.136 HD
ENDROOT
BRANCH   1  38
HETATM   38  C2  UNL     1     -15.484   4.184  23.593  1.00  0.00     0.064 C 
HETATM   39  C1  UNL     1     -14.945   4.263  22.368  1.00  0.00     0.017 C 
ENDBRANCH   1  38
TORSDOF 1
ENDMDL
