MODEL 1
REMARK minimizedAffinity -9.91514015
REMARK CNNscore 0.869350851
REMARK CNNaffinity 8.11361027
REMARK  6 active torsions:
REMARK  status: ('A' for Active; 'I' for Inactive)
REMARK    1  A    between atoms: N1_2  and  C2_3 
REMARK    2  A    between atoms: C2_3  and  N2_5 
REMARK    3  A    between atoms: N2_5  and  C4_7 
REMARK    4  A    between atoms: C6_9  and  N4_33 
REMARK    5  A    between atoms: C7_11  and  N3_16 
REMARK    6  A    between atoms: C9_13  and  O2_14 
ROOT
HETATM    1  C4  UNL     1      10.737  -8.152  26.946  1.00  0.00     0.124 C 
HETATM    2  C5  UNL     1      10.278  -7.451  28.225  1.00  0.00     0.082 C 
HETATM    3  C6  UNL     1       9.199  -8.266  28.945  1.00  0.00     0.233 C 
HETATM    4  O1  UNL     1       8.985  -9.568  28.401  1.00  0.00    -0.333 OA
HETATM    5  C7  UNL     1       8.750  -9.683  26.970  1.00  0.00     0.168 C 
HETATM    6  C8  UNL     1       9.407 -11.059  26.703  1.00  0.00     0.074 C 
HETATM    7  C9  UNL     1       9.494  -8.581  26.125  1.00  0.00     0.199 C 
ENDROOT
BRANCH   1   8
HETATM    8  N2  UNL     1      11.751  -7.357  26.183  1.00  0.00    -0.355 N 
HETATM    9  C3  UNL     1      12.013  -5.985  26.634  1.00  0.00     0.152 C 
BRANCH   8  10
HETATM   10  C2  UNL     1      12.109  -7.726  24.865  1.00  0.00     0.169 C 
HETATM   11  S1  UNL     1      13.548  -8.494  24.451  1.00  0.00    -0.041 SA
BRANCH  10  12
HETATM   12  N1  UNL     1      11.139  -7.381  23.938  1.00  0.00    -0.371 N 
HETATM   13  C1  UNL     1      10.876  -8.090  22.696  1.00  0.00     0.148 C 
HETATM   14  H4  UNL     1      10.316  -6.974  24.363  1.00  0.00     0.161 HD
ENDBRANCH  10  12
ENDBRANCH   8  10
ENDBRANCH   1   8
BRANCH   7  15
HETATM   15  O2  UNL     1       8.696  -7.396  25.927  1.00  0.00    -0.384 OA
HETATM   16  C10 UNL     1       9.409  -6.179  26.117  1.00  0.00     0.202 C 
ENDBRANCH   7  15
BRANCH   3  17
HETATM   17  N4  UNL     1       7.934  -7.576  29.170  1.00  0.00    -0.316 N 
HETATM   18  C26 UNL     1       6.726  -7.948  28.599  1.00  0.00     0.048 A 
HETATM   19  C21 UNL     1       5.790  -6.947  28.911  1.00  0.00     0.004 A 
HETATM   20  C25 UNL     1       6.384  -9.070  27.822  1.00  0.00     0.030 A 
HETATM   21  C20 UNL     1       6.462  -5.961  29.698  1.00  0.00     0.022 A 
HETATM   22  C22 UNL     1       4.473  -7.093  28.422  1.00  0.00     0.014 A 
HETATM   23  C19 UNL     1       6.186  -4.736  30.324  1.00  0.00     0.054 A 
HETATM   24  C27 UNL     1       7.764  -6.410  29.848  1.00  0.00     0.077 A 
HETATM   25  C18 UNL     1       7.126  -3.976  31.084  1.00  0.00    -0.010 A 
HETATM   26  C29 UNL     1       4.916  -3.993  30.343  1.00  0.00     0.253 A 
HETATM   27  C17 UNL     1       8.446  -4.413  31.282  1.00  0.00     0.015 A 
HETATM   28  C30 UNL     1       6.455  -2.737  31.604  1.00  0.00     0.163 A 
HETATM   29  C16 UNL     1       9.590  -3.963  31.995  1.00  0.00     0.004 A 
HETATM   30  C28 UNL     1       8.802  -5.603  30.685  1.00  0.00     0.077 A 
HETATM   31  C11 UNL     1      10.605  -4.930  31.836  1.00  0.00     0.049 A 
HETATM   32  C15 UNL     1       9.835  -2.829  32.800  1.00  0.00     0.014 A 
HETATM   33  N3  UNL     1      10.108  -5.913  30.977  1.00  0.00    -0.308 N 
HETATM   34  C12 UNL     1      11.828  -4.784  32.519  1.00  0.00     0.030 A 
HETATM   35  C13 UNL     1      12.041  -3.651  33.311  1.00  0.00     0.002 A 
HETATM   36  C14 UNL     1      11.062  -2.679  33.446  1.00  0.00     0.001 A 
HETATM   37  N5  UNL     1       5.121  -2.850  31.083  1.00  0.00    -0.353 N 
HETATM   38  H27 UNL     1       4.371  -2.190  31.234  1.00  0.00     0.163 HD
HETATM   39  O3  UNL     1       3.864  -4.297  29.819  1.00  0.00    -0.268 OA
HETATM   40  C23 UNL     1       4.126  -8.208  27.652  1.00  0.00     0.001 A 
HETATM   41  C24 UNL     1       5.071  -9.182  27.359  1.00  0.00     0.002 A 
ENDBRANCH   3  17
TORSDOF 6
ENDMDL
MODEL 2
REMARK minimizedAffinity -6.54027843
REMARK CNNscore 0.77086401
REMARK CNNaffinity 6.73164892
REMARK  6 active torsions:
REMARK  status: ('A' for Active; 'I' for Inactive)
REMARK    1  A    between atoms: N1_2  and  C2_3 
REMARK    2  A    between atoms: C2_3  and  N2_5 
REMARK    3  A    between atoms: N2_5  and  C4_7 
REMARK    4  A    between atoms: C6_9  and  N4_33 
REMARK    5  A    between atoms: C7_11  and  N3_16 
REMARK    6  A    between atoms: C9_13  and  O2_14 
ROOT
HETATM    1  C4  UNL     1       5.183   5.224  47.193  1.00  0.00     0.124 C 
HETATM    2  C5  UNL     1       3.888   5.763  46.583  1.00  0.00     0.082 C 
HETATM    3  C6  UNL     1       2.913   6.224  47.672  1.00  0.00     0.233 C 
HETATM    4  O1  UNL     1       3.468   6.240  48.988  1.00  0.00    -0.333 OA
HETATM    5  C7  UNL     1       4.135   5.039  49.465  1.00  0.00     0.168 C 
HETATM    6  C8  UNL     1       5.219   5.679  50.367  1.00  0.00     0.074 C 
HETATM    7  C9  UNL     1       4.836   4.216  48.319  1.00  0.00     0.199 C 
ENDROOT
BRANCH   1   8
HETATM    8  N2  UNL     1       6.138   4.710  46.161  1.00  0.00    -0.355 N 
HETATM    9  C3  UNL     1       6.608   3.327  46.305  1.00  0.00     0.152 C 
BRANCH   8  10
HETATM   10  C2  UNL     1       6.882   5.607  45.360  1.00  0.00     0.169 C 
HETATM   11  S1  UNL     1       6.304   6.332  43.956  1.00  0.00    -0.041 SA
BRANCH  10  12
HETATM   12  N1  UNL     1       8.155   5.827  45.858  1.00  0.00    -0.371 N 
HETATM   13  C1  UNL     1       8.931   7.043  45.671  1.00  0.00     0.148 C 
HETATM   14  H4  UNL     1       8.316   5.368  46.746  1.00  0.00     0.161 HD
ENDBRANCH  10  12
ENDBRANCH   8  10
ENDBRANCH   1   8
BRANCH   7  15
HETATM   15  O2  UNL     1       3.967   3.223  47.735  1.00  0.00    -0.384 OA
HETATM   16  C10 UNL     1       3.236   2.460  48.690  1.00  0.00     0.202 C 
ENDBRANCH   7  15
BRANCH   3  17
HETATM   17  N4  UNL     1       1.606   5.579  47.661  1.00  0.00    -0.316 N 
HETATM   18  C26 UNL     1       0.897   5.222  48.799  1.00  0.00     0.048 A 
HETATM   19  C21 UNL     1      -0.217   4.476  48.382  1.00  0.00     0.004 A 
HETATM   20  C25 UNL     1       1.154   5.481  50.159  1.00  0.00     0.030 A 
HETATM   21  C20 UNL     1      -0.173   4.398  46.955  1.00  0.00     0.022 A 
HETATM   22  C22 UNL     1      -1.095   3.982  49.372  1.00  0.00     0.014 A 
HETATM   23  C19 UNL     1      -0.905   3.832  45.901  1.00  0.00     0.054 A 
HETATM   24  C27 UNL     1       0.949   5.112  46.565  1.00  0.00     0.077 A 
HETATM   25  C18 UNL     1      -0.580   3.963  44.516  1.00  0.00    -0.010 A 
HETATM   26  C29 UNL     1      -2.126   3.015  45.981  1.00  0.00     0.253 A 
HETATM   27  C17 UNL     1       0.532   4.703  44.083  1.00  0.00     0.015 A 
HETATM   28  C30 UNL     1      -1.604   3.231  43.697  1.00  0.00     0.163 A 
HETATM   29  C16 UNL     1       1.105   5.078  42.837  1.00  0.00     0.004 A 
HETATM   30  C28 UNL     1       1.315   5.279  45.060  1.00  0.00     0.077 A 
HETATM   31  C11 UNL     1       2.209   5.914  43.104  1.00  0.00     0.049 A 
HETATM   32  C15 UNL     1       0.750   4.808  41.497  1.00  0.00     0.014 A 
HETATM   33  N3  UNL     1       2.349   5.983  44.492  1.00  0.00    -0.308 N 
HETATM   34  C12 UNL     1       2.912   6.512  42.040  1.00  0.00     0.030 A 
HETATM   35  C13 UNL     1       2.536   6.227  40.723  1.00  0.00     0.002 A 
HETATM   36  C14 UNL     1       1.473   5.380  40.451  1.00  0.00     0.001 A 
HETATM   37  N5  UNL     1      -2.486   2.689  44.693  1.00  0.00    -0.353 N 
HETATM   38  H27 UNL     1      -3.309   2.132  44.511  1.00  0.00     0.163 HD
HETATM   39  O3  UNL     1      -2.733   2.673  46.975  1.00  0.00    -0.268 OA
HETATM   40  C23 UNL     1      -0.848   4.237  50.725  1.00  0.00     0.001 A 
HETATM   41  C24 UNL     1       0.262   4.978  51.109  1.00  0.00     0.002 A 
ENDBRANCH   3  17
TORSDOF 6
ENDMDL
MODEL 3
REMARK minimizedAffinity -7.59216118
REMARK CNNscore 0.757318079
REMARK CNNaffinity 6.53684187
REMARK  6 active torsions:
REMARK  status: ('A' for Active; 'I' for Inactive)
REMARK    1  A    between atoms: N1_2  and  C2_3 
REMARK    2  A    between atoms: C2_3  and  N2_5 
REMARK    3  A    between atoms: N2_5  and  C4_7 
REMARK    4  A    between atoms: C6_9  and  N4_33 
REMARK    5  A    between atoms: C7_11  and  N3_16 
REMARK    6  A    between atoms: C9_13  and  O2_14 
ROOT
HETATM    1  C4  UNL     1       1.873   8.982  34.373  1.00  0.00     0.124 C 
HETATM    2  C5  UNL     1       1.912   8.792  35.890  1.00  0.00     0.082 C 
HETATM    3  C6  UNL     1       2.408  10.060  36.593  1.00  0.00     0.233 C 
HETATM    4  O1  UNL     1       2.542  11.193  35.735  1.00  0.00    -0.333 OA
HETATM    5  C7  UNL     1       3.306  11.036  34.507  1.00  0.00     0.168 C 
HETATM    6  C8  UNL     1       2.537  12.019  33.590  1.00  0.00     0.074 C 
HETATM    7  C9  UNL     1       3.220   9.586  33.899  1.00  0.00     0.199 C 
ENDROOT
BRANCH   1   8
HETATM    8  N2  UNL     1       1.449   7.743  33.646  1.00  0.00    -0.355 N 
HETATM    9  C3  UNL     1       1.801   6.452  34.249  1.00  0.00     0.152 C 
BRANCH   8  10
HETATM   10  C2  UNL     1       1.128   7.792  32.270  1.00  0.00     0.169 C 
HETATM   11  S1  UNL     1       1.270   9.165  31.308  1.00  0.00    -0.041 SA
BRANCH  10  12
HETATM   12  N1  UNL     1       0.675   6.573  31.790  1.00  0.00    -0.371 N 
HETATM   13  C1  UNL     1      -0.504   6.384  30.960  1.00  0.00     0.148 C 
HETATM   14  H4  UNL     1       1.426   5.924  31.594  1.00  0.00     0.161 HD
ENDBRANCH  10  12
ENDBRANCH   8  10
ENDBRANCH   1   8
BRANCH   7  15
HETATM   15  O2  UNL     1       4.262   8.715  34.385  1.00  0.00    -0.384 OA
HETATM   16  C10 UNL     1       5.455   8.750  33.609  1.00  0.00     0.202 C 
ENDBRANCH   7  15
BRANCH   3  17
HETATM   17  N4  UNL     1       3.588   9.894  37.433  1.00  0.00    -0.316 N 
HETATM   18  C26 UNL     1       4.739  10.662  37.327  1.00  0.00     0.048 A 
HETATM   19  C21 UNL     1       5.702  10.090  38.176  1.00  0.00     0.004 A 
HETATM   20  C25 UNL     1       5.017  11.798  36.546  1.00  0.00     0.030 A 
HETATM   21  C20 UNL     1       5.100   8.958  38.809  1.00  0.00     0.022 A 
HETATM   22  C22 UNL     1       6.979  10.691  38.232  1.00  0.00     0.014 A 
HETATM   23  C19 UNL     1       5.440   7.948  39.721  1.00  0.00     0.054 A 
HETATM   24  C27 UNL     1       3.798   8.902  38.338  1.00  0.00     0.077 A 
HETATM   25  C18 UNL     1       4.553   6.926  40.178  1.00  0.00    -0.010 A 
HETATM   26  C29 UNL     1       6.732   7.726  40.388  1.00  0.00     0.253 A 
HETATM   27  C17 UNL     1       3.219   6.854  39.745  1.00  0.00     0.015 A 
HETATM   28  C30 UNL     1       5.276   6.044  41.154  1.00  0.00     0.163 A 
HETATM   29  C16 UNL     1       2.083   6.044  40.018  1.00  0.00     0.004 A 
HETATM   30  C28 UNL     1       2.809   7.804  38.834  1.00  0.00     0.077 A 
HETATM   31  C11 UNL     1       0.997   6.562  39.282  1.00  0.00     0.049 A 
HETATM   32  C15 UNL     1       1.878   4.934  40.866  1.00  0.00     0.014 A 
HETATM   33  N3  UNL     1       1.485   7.623  38.516  1.00  0.00    -0.308 N 
HETATM   34  C12 UNL     1      -0.287   6.004  39.438  1.00  0.00     0.030 A 
HETATM   35  C13 UNL     1      -0.460   4.905  40.286  1.00  0.00     0.002 A 
HETATM   36  C14 UNL     1       0.609   4.369  40.987  1.00  0.00     0.001 A 
HETATM   37  N5  UNL     1       6.592   6.619  41.195  1.00  0.00    -0.353 N 
HETATM   38  H27 UNL     1       7.363   6.289  41.758  1.00  0.00     0.163 HD
HETATM   39  O3  UNL     1       7.753   8.375  40.276  1.00  0.00    -0.268 OA
HETATM   40  C23 UNL     1       7.261  11.823  37.460  1.00  0.00     0.001 A 
HETATM   41  C24 UNL     1       6.290  12.367  36.630  1.00  0.00     0.002 A 
ENDBRANCH   3  17
TORSDOF 6
ENDMDL
MODEL 4
REMARK minimizedAffinity -6.61514664
REMARK CNNscore 0.721113682
REMARK CNNaffinity 6.41402578
REMARK  6 active torsions:
REMARK  status: ('A' for Active; 'I' for Inactive)
REMARK    1  A    between atoms: N1_2  and  C2_3 
REMARK    2  A    between atoms: C2_3  and  N2_5 
REMARK    3  A    between atoms: N2_5  and  C4_7 
REMARK    4  A    between atoms: C6_9  and  N4_33 
REMARK    5  A    between atoms: C7_11  and  N3_16 
REMARK    6  A    between atoms: C9_13  and  O2_14 
ROOT
HETATM    1  C4  UNL     1       1.504   7.679  34.778  1.00  0.00     0.124 C 
HETATM    2  C5  UNL     1       2.818   7.307  35.466  1.00  0.00     0.082 C 
HETATM    3  C6  UNL     1       2.595   6.990  36.948  1.00  0.00     0.233 C 
HETATM    4  O1  UNL     1       1.222   6.917  37.333  1.00  0.00    -0.333 OA
HETATM    5  C7  UNL     1       0.350   8.026  36.978  1.00  0.00     0.168 C 
HETATM    6  C8  UNL     1      -0.978   7.260  36.764  1.00  0.00     0.074 C 
HETATM    7  C9  UNL     1       0.761   8.737  35.634  1.00  0.00     0.199 C 
ENDROOT
BRANCH   1   8
HETATM    8  N2  UNL     1       1.690   8.053  33.340  1.00  0.00    -0.355 N 
HETATM    9  C3  UNL     1       0.835   7.383  32.352  1.00  0.00     0.152 C 
BRANCH   8  10
HETATM   10  C2  UNL     1       2.887   8.668  32.906  1.00  0.00     0.169 C 
HETATM   11  S1  UNL     1       3.108  10.330  32.772  1.00  0.00    -0.041 SA
BRANCH  10  12
HETATM   12  N1  UNL     1       3.872   7.745  32.597  1.00  0.00    -0.371 N 
HETATM   13  C1  UNL     1       5.292   8.039  32.481  1.00  0.00     0.148 C 
HETATM   14  H4  UNL     1       3.671   6.820  32.953  1.00  0.00     0.161 HD
ENDBRANCH  10  12
ENDBRANCH   8  10
ENDBRANCH   1   8
BRANCH   7  15
HETATM   15  O2  UNL     1       1.682   9.828  35.839  1.00  0.00    -0.384 OA
HETATM   16  C10 UNL     1       1.051  11.069  36.140  1.00  0.00     0.202 C 
ENDBRANCH   7  15
BRANCH   3  17
HETATM   17  N4  UNL     1       3.361   7.800  37.887  1.00  0.00    -0.316 N 
HETATM   18  C26 UNL     1       4.298   8.754  37.517  1.00  0.00     0.048 A 
HETATM   19  C21 UNL     1       4.941   9.186  38.689  1.00  0.00     0.004 A 
HETATM   20  C25 UNL     1       4.644   9.258  36.250  1.00  0.00     0.030 A 
HETATM   21  C20 UNL     1       4.360   8.476  39.785  1.00  0.00     0.022 A 
HETATM   22  C22 UNL     1       5.959  10.158  38.569  1.00  0.00     0.014 A 
HETATM   23  C19 UNL     1       4.497   8.378  41.178  1.00  0.00     0.054 A 
HETATM   24  C27 UNL     1       3.380   7.661  39.240  1.00  0.00     0.077 A 
HETATM   25  C18 UNL     1       3.708   7.539  42.021  1.00  0.00    -0.010 A 
HETATM   26  C29 UNL     1       5.443   9.096  42.048  1.00  0.00     0.253 A 
HETATM   27  C17 UNL     1       2.687   6.722  41.508  1.00  0.00     0.015 A 
HETATM   28  C30 UNL     1       4.142   7.722  43.447  1.00  0.00     0.163 A 
HETATM   29  C16 UNL     1       1.707   5.836  42.032  1.00  0.00     0.004 A 
HETATM   30  C28 UNL     1       2.499   6.747  40.143  1.00  0.00     0.077 A 
HETATM   31  C11 UNL     1       0.919   5.379  40.956  1.00  0.00     0.049 A 
HETATM   32  C15 UNL     1       1.396   5.417  43.345  1.00  0.00     0.014 A 
HETATM   33  N3  UNL     1       1.462   5.919  39.788  1.00  0.00    -0.308 N 
HETATM   34  C12 UNL     1      -0.196   4.554  41.201  1.00  0.00     0.030 A 
HETATM   35  C13 UNL     1      -0.480   4.155  42.512  1.00  0.00     0.002 A 
HETATM   36  C14 UNL     1       0.309   4.574  43.572  1.00  0.00     0.001 A 
HETATM   37  N5  UNL     1       5.205   8.681  43.340  1.00  0.00    -0.353 N 
HETATM   38  H27 UNL     1       5.742   9.056  44.110  1.00  0.00     0.163 HD
HETATM   39  O3  UNL     1       6.286   9.908  41.727  1.00  0.00    -0.268 OA
HETATM   40  C23 UNL     1       6.305  10.666  37.313  1.00  0.00     0.001 A 
HETATM   41  C24 UNL     1       5.653  10.220  36.170  1.00  0.00     0.002 A 
ENDBRANCH   3  17
TORSDOF 6
ENDMDL
MODEL 5
REMARK minimizedAffinity -7.117805
REMARK CNNscore 0.533486903
REMARK CNNaffinity 6.49424887
REMARK  6 active torsions:
REMARK  status: ('A' for Active; 'I' for Inactive)
REMARK    1  A    between atoms: N1_2  and  C2_3 
REMARK    2  A    between atoms: C2_3  and  N2_5 
REMARK    3  A    between atoms: N2_5  and  C4_7 
REMARK    4  A    between atoms: C6_9  and  N4_33 
REMARK    5  A    between atoms: C7_11  and  N3_16 
REMARK    6  A    between atoms: C9_13  and  O2_14 
ROOT
HETATM    1  C4  UNL     1       3.218  10.198  35.641  1.00  0.00     0.124 C 
HETATM    2  C5  UNL     1       4.073   9.039  36.156  1.00  0.00     0.082 C 
HETATM    3  C6  UNL     1       3.421   8.369  37.371  1.00  0.00     0.233 C 
HETATM    4  O1  UNL     1       2.096   8.819  37.649  1.00  0.00    -0.333 OA
HETATM    5  C7  UNL     1       1.866  10.251  37.754  1.00  0.00     0.168 C 
HETATM    6  C8  UNL     1       0.421  10.329  37.204  1.00  0.00     0.074 C 
HETATM    7  C9  UNL     1       2.817  11.105  36.833  1.00  0.00     0.199 C 
ENDROOT
BRANCH   1   8
HETATM    8  N2  UNL     1       3.850  10.916  34.490  1.00  0.00    -0.355 N 
HETATM    9  C3  UNL     1       3.333  12.249  34.159  1.00  0.00     0.152 C 
BRANCH   8  10
HETATM   10  C2  UNL     1       4.582  10.203  33.512  1.00  0.00     0.169 C 
HETATM   11  S1  UNL     1       3.903   9.118  32.420  1.00  0.00    -0.041 SA
BRANCH  10  12
HETATM   12  N1  UNL     1       5.936  10.493  33.551  1.00  0.00    -0.371 N 
HETATM   13  C1  UNL     1       6.590  11.311  34.560  1.00  0.00     0.148 C 
HETATM   14  H4  UNL     1       6.510   9.741  33.193  1.00  0.00     0.161 HD
ENDBRANCH  10  12
ENDBRANCH   8  10
ENDBRANCH   1   8
BRANCH   7  15
HETATM   15  O2  UNL     1       4.040  11.487  37.496  1.00  0.00    -0.384 OA
HETATM   16  C10 UNL     1       4.176  12.890  37.697  1.00  0.00     0.202 C 
ENDBRANCH   7  15
BRANCH   3  17
HETATM   17  N4  UNL     1       4.232   8.338  38.582  1.00  0.00    -0.316 N 
HETATM   18  C26 UNL     1       5.446   8.993  38.730  1.00  0.00     0.048 A 
HETATM   19  C21 UNL     1       5.996   8.582  39.956  1.00  0.00     0.004 A 
HETATM   20  C25 UNL     1       6.111   9.897  37.882  1.00  0.00     0.030 A 
HETATM   21  C20 UNL     1       5.076   7.666  40.555  1.00  0.00     0.022 A 
HETATM   22  C22 UNL     1       7.253   9.106  40.330  1.00  0.00     0.014 A 
HETATM   23  C19 UNL     1       4.963   6.880  41.712  1.00  0.00     0.054 A 
HETATM   24  C27 UNL     1       4.002   7.575  39.684  1.00  0.00     0.077 A 
HETATM   25  C18 UNL     1       3.848   6.046  42.029  1.00  0.00    -0.010 A 
HETATM   26  C29 UNL     1       5.927   6.749  42.815  1.00  0.00     0.253 A 
HETATM   27  C17 UNL     1       2.730   5.950  41.184  1.00  0.00     0.015 A 
HETATM   28  C30 UNL     1       4.091   5.378  43.351  1.00  0.00     0.163 A 
HETATM   29  C16 UNL     1       1.471   5.292  41.204  1.00  0.00     0.004 A 
HETATM   30  C28 UNL     1       2.769   6.681  40.017  1.00  0.00     0.077 A 
HETATM   31  C11 UNL     1       0.762   5.684  40.050  1.00  0.00     0.049 A 
HETATM   32  C15 UNL     1       0.855   4.425  42.133  1.00  0.00     0.014 A 
HETATM   33  N3  UNL     1       1.608   6.506  39.303  1.00  0.00    -0.308 N 
HETATM   34  C12 UNL     1      -0.565   5.251  39.859  1.00  0.00     0.030 A 
HETATM   35  C13 UNL     1      -1.149   4.393  40.797  1.00  0.00     0.002 A 
HETATM   36  C14 UNL     1      -0.448   3.977  41.918  1.00  0.00     0.001 A 
HETATM   37  N5  UNL     1       5.386   5.872  43.729  1.00  0.00    -0.353 N 
HETATM   38  H27 UNL     1       5.881   5.639  44.579  1.00  0.00     0.163 HD
HETATM   39  O3  UNL     1       7.005   7.294  42.937  1.00  0.00    -0.268 OA
HETATM   40  C23 UNL     1       7.918  10.008  39.493  1.00  0.00     0.001 A 
HETATM   41  C24 UNL     1       7.351  10.397  38.286  1.00  0.00     0.002 A 
ENDBRANCH   3  17
TORSDOF 6
ENDMDL
MODEL 6
REMARK minimizedAffinity -7.28791761
REMARK CNNscore 0.528532743
REMARK CNNaffinity 6.31469297
REMARK  6 active torsions:
REMARK  status: ('A' for Active; 'I' for Inactive)
REMARK    1  A    between atoms: N1_2  and  C2_3 
REMARK    2  A    between atoms: C2_3  and  N2_5 
REMARK    3  A    between atoms: N2_5  and  C4_7 
REMARK    4  A    between atoms: C6_9  and  N4_33 
REMARK    5  A    between atoms: C7_11  and  N3_16 
REMARK    6  A    between atoms: C9_13  and  O2_14 
ROOT
HETATM    1  C4  UNL     1       6.881   8.584  42.440  1.00  0.00     0.124 C 
HETATM    2  C5  UNL     1       6.407   7.446  41.535  1.00  0.00     0.082 C 
HETATM    3  C6  UNL     1       6.047   7.964  40.138  1.00  0.00     0.233 C 
HETATM    4  O1  UNL     1       6.401   9.328  39.908  1.00  0.00    -0.333 OA
HETATM    5  C7  UNL     1       5.967  10.322  40.878  1.00  0.00     0.168 C 
HETATM    6  C8  UNL     1       7.150  11.316  40.784  1.00  0.00     0.074 C 
HETATM    7  C9  UNL     1       5.877   9.762  42.347  1.00  0.00     0.199 C 
ENDROOT
BRANCH   1   8
HETATM    8  N2  UNL     1       7.186   8.126  43.832  1.00  0.00    -0.355 N 
HETATM    9  C3  UNL     1       8.525   8.416  44.360  1.00  0.00     0.152 C 
BRANCH   8  10
HETATM   10  C2  UNL     1       6.415   7.108  44.439  1.00  0.00     0.169 C 
HETATM   11  S1  UNL     1       4.904   7.348  45.139  1.00  0.00    -0.041 SA
BRANCH  10  12
HETATM   12  N1  UNL     1       7.045   5.875  44.399  1.00  0.00    -0.371 N 
HETATM   13  C1  UNL     1       7.414   5.083  45.562  1.00  0.00     0.148 C 
HETATM   14  H4  UNL     1       6.782   5.325  43.592  1.00  0.00     0.161 HD
ENDBRANCH  10  12
ENDBRANCH   8  10
ENDBRANCH   1   8
BRANCH   7  15
HETATM   15  O2  UNL     1       4.575   9.225  42.660  1.00  0.00    -0.384 OA
HETATM   16  C10 UNL     1       3.493  10.062  42.263  1.00  0.00     0.202 C 
ENDBRANCH   7  15
BRANCH   3  17
HETATM   17  N4  UNL     1       4.683   7.694  39.698  1.00  0.00    -0.316 N 
HETATM   18  C26 UNL     1       3.794   6.865  40.366  1.00  0.00     0.048 A 
HETATM   19  C21 UNL     1       2.661   6.721  39.548  1.00  0.00     0.004 A 
HETATM   20  C25 UNL     1       3.900   6.218  41.611  1.00  0.00     0.030 A 
HETATM   21  C20 UNL     1       2.882   7.496  38.368  1.00  0.00     0.022 A 
HETATM   22  C22 UNL     1       1.607   5.901  40.010  1.00  0.00     0.014 A 
HETATM   23  C19 UNL     1       2.230   7.804  37.164  1.00  0.00     0.054 A 
HETATM   24  C27 UNL     1       4.123   8.091  38.524  1.00  0.00     0.077 A 
HETATM   25  C18 UNL     1       2.747   8.669  36.151  1.00  0.00    -0.010 A 
HETATM   26  C29 UNL     1       0.919   7.329  36.696  1.00  0.00     0.253 A 
HETATM   27  C17 UNL     1       3.988   9.312  36.289  1.00  0.00     0.015 A 
HETATM   28  C30 UNL     1       1.758   8.759  35.026  1.00  0.00     0.163 A 
HETATM   29  C16 UNL     1       4.761  10.243  35.542  1.00  0.00     0.004 A 
HETATM   30  C28 UNL     1       4.700   9.049  37.439  1.00  0.00     0.077 A 
HETATM   31  C11 UNL     1       5.913  10.548  36.295  1.00  0.00     0.049 A 
HETATM   32  C15 UNL     1       4.553  10.886  34.302  1.00  0.00     0.014 A 
HETATM   33  N3  UNL     1       5.878   9.756  37.445  1.00  0.00    -0.308 N 
HETATM   34  C12 UNL     1       6.817  11.524  35.832  1.00  0.00     0.030 A 
HETATM   35  C13 UNL     1       6.585  12.146  34.600  1.00  0.00     0.002 A 
HETATM   36  C14 UNL     1       5.471  11.827  33.839  1.00  0.00     0.001 A 
HETATM   37  N5  UNL     1       0.694   7.898  35.462  1.00  0.00    -0.353 N 
HETATM   38  H27 UNL     1      -0.161   7.713  34.955  1.00  0.00     0.163 HD
HETATM   39  O3  UNL     1       0.149   6.579  37.261  1.00  0.00    -0.268 OA
HETATM   40  C23 UNL     1       1.704   5.258  41.248  1.00  0.00     0.001 A 
HETATM   41  C24 UNL     1       2.837   5.417  42.036  1.00  0.00     0.002 A 
ENDBRANCH   3  17
TORSDOF 6
ENDMDL
MODEL 7
REMARK minimizedAffinity -6.86644459
REMARK CNNscore 0.446621925
REMARK CNNaffinity 6.58384323
REMARK  6 active torsions:
REMARK  status: ('A' for Active; 'I' for Inactive)
REMARK    1  A    between atoms: N1_2  and  C2_3 
REMARK    2  A    between atoms: C2_3  and  N2_5 
REMARK    3  A    between atoms: N2_5  and  C4_7 
REMARK    4  A    between atoms: C6_9  and  N4_33 
REMARK    5  A    between atoms: C7_11  and  N3_16 
REMARK    6  A    between atoms: C9_13  and  O2_14 
ROOT
HETATM    1  C4  UNL     1       1.363   5.662  41.089  1.00  0.00     0.124 C 
HETATM    2  C5  UNL     1       2.865   5.416  40.936  1.00  0.00     0.082 C 
HETATM    3  C6  UNL     1       3.563   5.397  42.300  1.00  0.00     0.233 C 
HETATM    4  O1  UNL     1       2.673   5.416  43.415  1.00  0.00    -0.333 OA
HETATM    5  C7  UNL     1       1.645   6.444  43.455  1.00  0.00     0.168 C 
HETATM    6  C8  UNL     1       0.521   5.666  44.182  1.00  0.00     0.074 C 
HETATM    7  C9  UNL     1       1.138   6.875  42.028  1.00  0.00     0.199 C 
ENDROOT
BRANCH   1   8
HETATM    8  N2  UNL     1       0.654   5.746  39.772  1.00  0.00    -0.355 N 
HETATM    9  C3  UNL     1       1.086   6.793  38.838  1.00  0.00     0.152 C 
BRANCH   8  10
HETATM   10  C2  UNL     1      -0.623   5.163  39.605  1.00  0.00     0.169 C 
HETATM   11  S1  UNL     1      -1.747   4.964  40.842  1.00  0.00    -0.041 SA
BRANCH  10  12
HETATM   12  N1  UNL     1      -0.854   4.764  38.299  1.00  0.00    -0.371 N 
HETATM   13  C1  UNL     1      -2.129   4.860  37.606  1.00  0.00     0.148 C 
HETATM   14  H4  UNL     1      -0.049   4.892  37.700  1.00  0.00     0.161 HD
ENDBRANCH  10  12
ENDBRANCH   8  10
ENDBRANCH   1   8
BRANCH   7  15
HETATM   15  O2  UNL     1       1.891   7.975  41.477  1.00  0.00    -0.384 OA
HETATM   16  C10 UNL     1       1.299   9.251  41.699  1.00  0.00     0.202 C 
ENDBRANCH   7  15
BRANCH   3  17
HETATM   17  N4  UNL     1       4.640   6.366  42.470  1.00  0.00    -0.316 N 
HETATM   18  C26 UNL     1       5.126   7.182  41.459  1.00  0.00     0.048 A 
HETATM   19  C21 UNL     1       6.262   7.838  41.962  1.00  0.00     0.004 A 
HETATM   20  C25 UNL     1       4.672   7.385  40.143  1.00  0.00     0.030 A 
HETATM   21  C20 UNL     1       6.447   7.406  43.311  1.00  0.00     0.022 A 
HETATM   22  C22 UNL     1       6.952   8.724  41.105  1.00  0.00     0.014 A 
HETATM   23  C19 UNL     1       7.333   7.611  44.380  1.00  0.00     0.054 A 
HETATM   24  C27 UNL     1       5.410   6.526  43.579  1.00  0.00     0.077 A 
HETATM   25  C18 UNL     1       7.218   7.004  45.667  1.00  0.00    -0.010 A 
HETATM   26  C29 UNL     1       8.529   8.468  44.413  1.00  0.00     0.253 A 
HETATM   27  C17 UNL     1       6.165   6.130  45.983  1.00  0.00     0.015 A 
HETATM   28  C30 UNL     1       8.343   7.480  46.540  1.00  0.00     0.163 A 
HETATM   29  C16 UNL     1       5.720   5.415  47.128  1.00  0.00     0.004 A 
HETATM   30  C28 UNL     1       5.257   5.863  44.981  1.00  0.00     0.077 A 
HETATM   31  C11 UNL     1       4.518   4.761  46.788  1.00  0.00     0.049 A 
HETATM   32  C15 UNL     1       6.220   5.304  48.444  1.00  0.00     0.014 A 
HETATM   33  N3  UNL     1       4.279   5.013  45.436  1.00  0.00    -0.308 N 
HETATM   34  C12 UNL     1       3.803   4.049  47.771  1.00  0.00     0.030 A 
HETATM   35  C13 UNL     1       4.322   3.957  49.067  1.00  0.00     0.002 A 
HETATM   36  C14 UNL     1       5.520   4.570  49.401  1.00  0.00     0.001 A 
HETATM   37  N5  UNL     1       9.078   8.355  45.670  1.00  0.00    -0.353 N 
HETATM   38  H27 UNL     1       9.911   8.870  45.919  1.00  0.00     0.163 HD
HETATM   39  O3  UNL     1       8.978   9.160  43.523  1.00  0.00    -0.268 OA
HETATM   40  C23 UNL     1       6.504   8.933  39.796  1.00  0.00     0.001 A 
HETATM   41  C24 UNL     1       5.377   8.270  39.325  1.00  0.00     0.002 A 
ENDBRANCH   3  17
TORSDOF 6
ENDMDL
MODEL 8
REMARK minimizedAffinity -7.49354839
REMARK CNNscore 0.438168526
REMARK CNNaffinity 5.90582514
REMARK  6 active torsions:
REMARK  status: ('A' for Active; 'I' for Inactive)
REMARK    1  A    between atoms: N1_2  and  C2_3 
REMARK    2  A    between atoms: C2_3  and  N2_5 
REMARK    3  A    between atoms: N2_5  and  C4_7 
REMARK    4  A    between atoms: C6_9  and  N4_33 
REMARK    5  A    between atoms: C7_11  and  N3_16 
REMARK    6  A    between atoms: C9_13  and  O2_14 
ROOT
HETATM    1  C4  UNL     1      -0.176   4.900  41.844  1.00  0.00     0.124 C 
HETATM    2  C5  UNL     1       0.914   4.801  40.776  1.00  0.00     0.082 C 
HETATM    3  C6  UNL     1       2.276   5.224  41.336  1.00  0.00     0.233 C 
HETATM    4  O1  UNL     1       2.292   5.430  42.749  1.00  0.00    -0.333 OA
HETATM    5  C7  UNL     1       1.282   6.304  43.325  1.00  0.00     0.168 C 
HETATM    6  C8  UNL     1       1.092   5.617  44.700  1.00  0.00     0.074 C 
HETATM    7  C9  UNL     1      -0.084   6.281  42.542  1.00  0.00     0.199 C 
ENDROOT
BRANCH   1   8
HETATM    8  N2  UNL     1      -1.534   4.551  41.318  1.00  0.00    -0.355 N 
HETATM    9  C3  UNL     1      -1.791   4.797  39.894  1.00  0.00     0.152 C 
BRANCH   8  10
HETATM   10  C2  UNL     1      -2.632   4.411  42.199  1.00  0.00     0.169 C 
HETATM   11  S1  UNL     1      -4.156   5.071  41.931  1.00  0.00    -0.041 SA
BRANCH  10  12
HETATM   12  N1  UNL     1      -2.315   3.663  43.321  1.00  0.00    -0.371 N 
HETATM   13  C1  UNL     1      -2.947   3.798  44.624  1.00  0.00     0.148 C 
HETATM   14  H4  UNL     1      -2.029   2.719  43.098  1.00  0.00     0.161 HD
ENDBRANCH  10  12
ENDBRANCH   8  10
ENDBRANCH   1   8
BRANCH   7  15
HETATM   15  O2  UNL     1      -0.147   7.279  41.501  1.00  0.00    -0.384 OA
HETATM   16  C10 UNL     1       0.308   8.566  41.906  1.00  0.00     0.202 C 
ENDBRANCH   7  15
BRANCH   3  17
HETATM   17  N4  UNL     1       2.931   6.323  40.637  1.00  0.00    -0.316 N 
HETATM   18  C26 UNL     1       2.486   6.868  39.441  1.00  0.00     0.048 A 
HETATM   19  C21 UNL     1       3.467   7.773  39.003  1.00  0.00     0.004 A 
HETATM   20  C25 UNL     1       1.312   6.628  38.704  1.00  0.00     0.030 A 
HETATM   21  C20 UNL     1       4.517   7.771  39.972  1.00  0.00     0.022 A 
HETATM   22  C22 UNL     1       3.247   8.452  37.784  1.00  0.00     0.014 A 
HETATM   23  C19 UNL     1       5.763   8.379  40.187  1.00  0.00     0.054 A 
HETATM   24  C27 UNL     1       4.125   6.886  40.964  1.00  0.00     0.077 A 
HETATM   25  C18 UNL     1       6.597   8.158  41.325  1.00  0.00    -0.010 A 
HETATM   26  C29 UNL     1       6.459   9.348  39.325  1.00  0.00     0.253 A 
HETATM   27  C17 UNL     1       6.218   7.291  42.364  1.00  0.00     0.015 A 
HETATM   28  C30 UNL     1       7.836   8.997  41.201  1.00  0.00     0.163 A 
HETATM   29  C16 UNL     1       6.747   6.887  43.619  1.00  0.00     0.004 A 
HETATM   30  C28 UNL     1       5.012   6.640  42.221  1.00  0.00     0.077 A 
HETATM   31  C11 UNL     1       5.810   6.022  44.223  1.00  0.00     0.049 A 
HETATM   32  C15 UNL     1       7.930   7.219  44.315  1.00  0.00     0.014 A 
HETATM   33  N3  UNL     1       4.766   5.845  43.314  1.00  0.00    -0.308 N 
HETATM   34  C12 UNL     1       6.037   5.541  45.527  1.00  0.00     0.030 A 
HETATM   35  C13 UNL     1       7.218   5.888  46.192  1.00  0.00     0.002 A 
HETATM   36  C14 UNL     1       8.159   6.711  45.593  1.00  0.00     0.001 A 
HETATM   37  N5  UNL     1       7.647   9.667  39.945  1.00  0.00    -0.353 N 
HETATM   38  H27 UNL     1       8.286  10.329  39.528  1.00  0.00     0.163 HD
HETATM   39  O3  UNL     1       6.090   9.805  38.262  1.00  0.00    -0.268 OA
HETATM   40  C23 UNL     1       2.081   8.220  37.047  1.00  0.00     0.001 A 
HETATM   41  C24 UNL     1       1.128   7.320  37.505  1.00  0.00     0.002 A 
ENDBRANCH   3  17
TORSDOF 6
ENDMDL
MODEL 9
REMARK minimizedAffinity -7.40145493
REMARK CNNscore 0.410332441
REMARK CNNaffinity 6.13588476
REMARK  6 active torsions:
REMARK  status: ('A' for Active; 'I' for Inactive)
REMARK    1  A    between atoms: N1_2  and  C2_3 
REMARK    2  A    between atoms: C2_3  and  N2_5 
REMARK    3  A    between atoms: N2_5  and  C4_7 
REMARK    4  A    between atoms: C6_9  and  N4_33 
REMARK    5  A    between atoms: C7_11  and  N3_16 
REMARK    6  A    between atoms: C9_13  and  O2_14 
ROOT
HETATM    1  C4  UNL     1       4.966   5.099  49.334  1.00  0.00     0.124 C 
HETATM    2  C5  UNL     1       5.039   6.354  48.463  1.00  0.00     0.082 C 
HETATM    3  C6  UNL     1       4.138   6.223  47.230  1.00  0.00     0.233 C 
HETATM    4  O1  UNL     1       3.288   5.076  47.242  1.00  0.00    -0.333 OA
HETATM    5  C7  UNL     1       3.893   3.777  47.491  1.00  0.00     0.168 C 
HETATM    6  C8  UNL     1       2.729   3.081  48.237  1.00  0.00     0.074 C 
HETATM    7  C9  UNL     1       5.149   3.846  48.441  1.00  0.00     0.199 C 
ENDROOT
BRANCH   1   8
HETATM    8  N2  UNL     1       5.879   5.165  50.520  1.00  0.00    -0.355 N 
HETATM    9  C3  UNL     1       6.629   6.409  50.727  1.00  0.00     0.152 C 
BRANCH   8  10
HETATM   10  C2  UNL     1       6.331   3.979  51.145  1.00  0.00     0.169 C 
HETATM   11  S1  UNL     1       5.372   2.985  52.105  1.00  0.00    -0.041 SA
BRANCH  10  12
HETATM   12  N1  UNL     1       7.666   3.720  50.881  1.00  0.00    -0.371 N 
HETATM   13  C1  UNL     1       8.699   3.533  51.888  1.00  0.00     0.148 C 
HETATM   14  H4  UNL     1       7.802   3.170  50.043  1.00  0.00     0.161 HD
ENDBRANCH  10  12
ENDBRANCH   8  10
ENDBRANCH   1   8
BRANCH   7  15
HETATM   15  O2  UNL     1       6.385   4.025  47.719  1.00  0.00    -0.384 OA
HETATM   16  C10 UNL     1       6.464   3.273  46.512  1.00  0.00     0.202 C 
ENDBRANCH   7  15
BRANCH   3  17
HETATM   17  N4  UNL     1       4.807   6.368  45.943  1.00  0.00    -0.316 N 
HETATM   18  C26 UNL     1       6.121   6.786  45.785  1.00  0.00     0.048 A 
HETATM   19  C21 UNL     1       6.339   6.967  44.409  1.00  0.00     0.004 A 
HETATM   20  C25 UNL     1       7.126   7.034  46.738  1.00  0.00     0.030 A 
HETATM   21  C20 UNL     1       5.124   6.637  43.733  1.00  0.00     0.022 A 
HETATM   22  C22 UNL     1       7.614   7.410  43.991  1.00  0.00     0.014 A 
HETATM   23  C19 UNL     1       4.614   6.596  42.427  1.00  0.00     0.054 A 
HETATM   24  C27 UNL     1       4.228   6.251  44.718  1.00  0.00     0.077 A 
HETATM   25  C18 UNL     1       3.292   6.183  42.077  1.00  0.00    -0.010 A 
HETATM   26  C29 UNL     1       5.300   6.950  41.175  1.00  0.00     0.253 A 
HETATM   27  C17 UNL     1       2.367   5.759  43.045  1.00  0.00     0.015 A 
HETATM   28  C30 UNL     1       3.128   6.263  40.587  1.00  0.00     0.163 A 
HETATM   29  C16 UNL     1       1.041   5.248  43.056  1.00  0.00     0.004 A 
HETATM   30  C28 UNL     1       2.786   5.784  44.357  1.00  0.00     0.077 A 
HETATM   31  C11 UNL     1       0.710   4.939  44.391  1.00  0.00     0.049 A 
HETATM   32  C15 UNL     1       0.106   4.983  42.032  1.00  0.00     0.014 A 
HETATM   33  N3  UNL     1       1.790   5.328  45.186  1.00  0.00    -0.308 N 
HETATM   34  C12 UNL     1      -0.523   4.324  44.685  1.00  0.00     0.030 A 
HETATM   35  C13 UNL     1      -1.429   4.072  43.650  1.00  0.00     0.002 A 
HETATM   36  C14 UNL     1      -1.125   4.403  42.338  1.00  0.00     0.001 A 
HETATM   37  N5  UNL     1       4.406   6.750  40.147  1.00  0.00    -0.353 N 
HETATM   38  H27 UNL     1       4.673   6.925  39.188  1.00  0.00     0.163 HD
HETATM   39  O3  UNL     1       6.439   7.347  41.032  1.00  0.00    -0.268 OA
HETATM   40  C23 UNL     1       8.619   7.655  44.932  1.00  0.00     0.001 A 
HETATM   41  C24 UNL     1       8.375   7.469  46.287  1.00  0.00     0.002 A 
ENDBRANCH   3  17
TORSDOF 6
ENDMDL
