MODEL 1
REMARK minimizedAffinity -7.96871805
REMARK  3 active torsions:
REMARK  status: ('A' for Active; 'I' for Inactive)
REMARK    1  A    between atoms: C4_5  and  C5_6 
REMARK    2  A    between atoms: N2_9  and  C6_10 
REMARK    3  A    between atoms: C12_16  and  C13_17 
ROOT
HETATM    1  C5  UNL     1      14.700  57.334   4.365  1.00  0.00     0.038 C 
HETATM    2  N1  UNL     1      13.703  57.886   4.987  1.00  0.00    -0.301 N 
ATOM      3  H1  UNL     1      13.120  57.451   5.702  1.00  0.00     0.187 HD
HETATM    4  N2  UNL     1      13.581  59.159   4.507  1.00  0.00    -0.283 N 
HETATM    5  C12 UNL     1      14.522  59.462   3.423  1.00  0.00     0.148 C 
HETATM    6  C23 UNL     1      15.430  58.229   3.404  1.00  0.00     0.091 C 
ENDROOT
BRANCH   5   7
HETATM    7  C13 UNL     1      13.867  59.665   2.057  1.00  0.00    -0.022 A 
HETATM    8  C14 UNL     1      13.559  60.968   1.616  1.00  0.00     0.010 A 
HETATM    9  C15 UNL     1      12.951  61.189   0.387  1.00  0.00     0.002 A 
HETATM   10  C16 UNL     1      12.625  60.111  -0.425  1.00  0.00     0.012 A 
HETATM   11  C17 UNL     1      12.894  58.796  -0.020  1.00  0.00    -0.025 A 
HETATM   12  C18 UNL     1      12.541  57.727  -0.859  1.00  0.00     0.012 A 
HETATM   13  C22 UNL     1      13.516  58.550   1.233  1.00  0.00    -0.018 A 
HETATM   14  C19 UNL     1      12.785  56.408  -0.485  1.00  0.00     0.001 A 
HETATM   15  C20 UNL     1      13.385  56.143   0.737  1.00  0.00     0.001 A 
HETATM   16  C21 UNL     1      13.743  57.196   1.583  1.00  0.00     0.013 A 
ENDBRANCH   5   7
BRANCH   4  17
HETATM   17  C6  UNL     1      12.797  60.101   5.177  1.00  0.00     0.051 A 
HETATM   18  C7  UNL     1      12.594  61.384   4.638  1.00  0.00     0.031 A 
HETATM   19  C8  UNL     1      11.817  62.347   5.289  1.00  0.00     0.002 A 
HETATM   20  C9  UNL     1      11.223  62.051   6.510  1.00  0.00     0.000 A 
HETATM   21  C10 UNL     1      11.410  60.793   7.074  1.00  0.00     0.002 A 
HETATM   22  C11 UNL     1      12.188  59.834   6.414  1.00  0.00     0.031 A 
ENDBRANCH   4  17
BRANCH   1  23
HETATM   23  C4  UNL     1      15.121  55.933   4.603  1.00  0.00    -0.012 A 
HETATM   24  C3  UNL     1      14.195  54.938   4.947  1.00  0.00     0.016 A 
HETATM   25  C2  UNL     1      14.629  53.626   5.163  1.00  0.00     0.043 A 
HETATM   26  C1  UNL     1      15.978  53.316   5.034  1.00  0.00     0.116 A 
HETATM   27  F1  UNL     1      16.388  52.058   5.243  1.00  0.00    -0.206 F 
HETATM   28  C25 UNL     1      16.908  54.291   4.692  1.00  0.00     0.043 A 
HETATM   29  C24 UNL     1      16.478  55.602   4.476  1.00  0.00     0.016 A 
ENDBRANCH   1  23
TORSDOF 3
ENDMDL
MODEL 2
REMARK minimizedAffinity -7.88539505
REMARK  3 active torsions:
REMARK  status: ('A' for Active; 'I' for Inactive)
REMARK    1  A    between atoms: C4_5  and  C5_6 
REMARK    2  A    between atoms: N2_9  and  C6_10 
REMARK    3  A    between atoms: C12_16  and  C13_17 
ROOT
HETATM    1  C5  UNL     1      13.760  58.718   3.650  1.00  0.00     0.038 C 
HETATM    2  N1  UNL     1      13.254  58.159   2.594  1.00  0.00    -0.301 N 
ATOM      3  H1  UNL     1      12.374  58.408   2.140  1.00  0.00     0.187 HD
HETATM    4  N2  UNL     1      14.118  57.177   2.202  1.00  0.00    -0.283 N 
HETATM    5  C12 UNL     1      15.258  57.013   3.110  1.00  0.00     0.148 C 
HETATM    6  C23 UNL     1      15.106  58.198   4.068  1.00  0.00     0.091 C 
ENDROOT
BRANCH   5   7
HETATM    7  C13 UNL     1      15.263  55.695   3.885  1.00  0.00    -0.022 A 
HETATM    8  C14 UNL     1      14.051  55.170   4.377  1.00  0.00     0.010 A 
HETATM    9  C15 UNL     1      14.019  53.982   5.098  1.00  0.00     0.002 A 
HETATM   10  C16 UNL     1      15.200  53.298   5.354  1.00  0.00     0.012 A 
HETATM   11  C17 UNL     1      16.431  53.793   4.901  1.00  0.00    -0.025 A 
HETATM   12  C18 UNL     1      17.610  53.084   5.186  1.00  0.00     0.012 A 
HETATM   13  C22 UNL     1      16.484  55.005   4.162  1.00  0.00    -0.018 A 
HETATM   14  C19 UNL     1      18.851  53.550   4.761  1.00  0.00     0.001 A 
HETATM   15  C20 UNL     1      18.928  54.735   4.044  1.00  0.00     0.001 A 
HETATM   16  C21 UNL     1      17.764  55.452   3.751  1.00  0.00     0.013 A 
ENDBRANCH   5   7
BRANCH   4  17
HETATM   17  C6  UNL     1      14.006  56.593   0.938  1.00  0.00     0.051 A 
HETATM   18  C7  UNL     1      15.151  56.181   0.231  1.00  0.00     0.031 A 
HETATM   19  C8  UNL     1      15.068  55.597  -1.036  1.00  0.00     0.002 A 
HETATM   20  C9  UNL     1      13.829  55.413  -1.637  1.00  0.00     0.000 A 
HETATM   21  C10 UNL     1      12.679  55.816  -0.968  1.00  0.00     0.002 A 
HETATM   22  C11 UNL     1      12.769  56.398   0.303  1.00  0.00     0.031 A 
ENDBRANCH   4  17
BRANCH   1  23
HETATM   23  C4  UNL     1      13.086  59.818   4.381  1.00  0.00    -0.012 A 
HETATM   24  C3  UNL     1      12.639  59.654   5.700  1.00  0.00     0.016 A 
HETATM   25  C2  UNL     1      12.007  60.714   6.358  1.00  0.00     0.043 A 
HETATM   26  C1  UNL     1      11.826  61.926   5.700  1.00  0.00     0.116 A 
HETATM   27  F1  UNL     1      11.220  62.937   6.336  1.00  0.00    -0.206 F 
HETATM   28  C25 UNL     1      12.265  62.103   4.393  1.00  0.00     0.043 A 
HETATM   29  C24 UNL     1      12.896  61.047   3.732  1.00  0.00     0.016 A 
ENDBRANCH   1  23
TORSDOF 3
ENDMDL
MODEL 3
REMARK minimizedAffinity -7.64390516
REMARK  3 active torsions:
REMARK  status: ('A' for Active; 'I' for Inactive)
REMARK    1  A    between atoms: C4_5  and  C5_6 
REMARK    2  A    between atoms: N2_9  and  C6_10 
REMARK    3  A    between atoms: C12_16  and  C13_17 
ROOT
HETATM    1  C5  UNL     1      13.650  60.327   3.345  1.00  0.00     0.038 C 
HETATM    2  N1  UNL     1      13.692  59.032   3.267  1.00  0.00    -0.301 N 
ATOM      3  H1  UNL     1      13.509  58.470   2.436  1.00  0.00     0.187 HD
HETATM    4  N2  UNL     1      14.028  58.563   4.505  1.00  0.00    -0.283 N 
HETATM    5  C12 UNL     1      14.149  59.622   5.513  1.00  0.00     0.148 C 
HETATM    6  C23 UNL     1      14.031  60.901   4.681  1.00  0.00     0.091 C 
ENDROOT
BRANCH   5   7
HETATM    7  C13 UNL     1      13.070  59.587   6.596  1.00  0.00    -0.022 A 
HETATM    8  C14 UNL     1      11.828  60.212   6.366  1.00  0.00     0.010 A 
HETATM    9  C15 UNL     1      10.830  60.211   7.333  1.00  0.00     0.002 A 
HETATM   10  C16 UNL     1      11.055  59.597   8.557  1.00  0.00     0.012 A 
HETATM   11  C17 UNL     1      12.282  58.980   8.838  1.00  0.00    -0.025 A 
HETATM   12  C18 UNL     1      12.483  58.378  10.091  1.00  0.00     0.012 A 
HETATM   13  C22 UNL     1      13.314  58.969   7.863  1.00  0.00    -0.018 A 
HETATM   14  C19 UNL     1      13.692  57.765  10.409  1.00  0.00     0.001 A 
HETATM   15  C20 UNL     1      14.717  57.748   9.475  1.00  0.00     0.001 A 
HETATM   16  C21 UNL     1      14.532  58.342   8.223  1.00  0.00     0.013 A 
ENDBRANCH   5   7
BRANCH   4  17
HETATM   17  C6  UNL     1      14.439  57.239   4.677  1.00  0.00     0.051 A 
HETATM   18  C7  UNL     1      13.613  56.172   4.280  1.00  0.00     0.031 A 
HETATM   19  C8  UNL     1      13.998  54.837   4.443  1.00  0.00     0.002 A 
HETATM   20  C9  UNL     1      15.226  54.533   5.018  1.00  0.00     0.000 A 
HETATM   21  C10 UNL     1      16.062  55.566   5.428  1.00  0.00     0.002 A 
HETATM   22  C11 UNL     1      15.671  56.900   5.260  1.00  0.00     0.031 A 
ENDBRANCH   4  17
BRANCH   1  23
HETATM   23  C4  UNL     1      13.289  61.192   2.197  1.00  0.00    -0.012 A 
HETATM   24  C3  UNL     1      13.660  62.543   2.153  1.00  0.00     0.016 A 
HETATM   25  C2  UNL     1      13.301  63.329   1.052  1.00  0.00     0.043 A 
HETATM   26  C1  UNL     1      12.580  62.764   0.007  1.00  0.00     0.116 A 
HETATM   27  F1  UNL     1      12.239  63.522  -1.044  1.00  0.00    -0.206 F 
HETATM   28  C25 UNL     1      12.206  61.426   0.036  1.00  0.00     0.043 A 
HETATM   29  C24 UNL     1      12.562  60.638   1.133  1.00  0.00     0.016 A 
ENDBRANCH   1  23
TORSDOF 3
ENDMDL
MODEL 4
REMARK minimizedAffinity -7.61893749
REMARK  3 active torsions:
REMARK  status: ('A' for Active; 'I' for Inactive)
REMARK    1  A    between atoms: C4_5  and  C5_6 
REMARK    2  A    between atoms: N2_9  and  C6_10 
REMARK    3  A    between atoms: C12_16  and  C13_17 
ROOT
HETATM    1  C5  UNL     1      11.383  35.020  20.338  1.00  0.00     0.038 C 
HETATM    2  N1  UNL     1      12.040  35.833  21.106  1.00  0.00    -0.301 N 
ATOM      3  H1  UNL     1      11.664  36.656  21.579  1.00  0.00     0.187 HD
HETATM    4  N2  UNL     1      13.329  35.383  21.165  1.00  0.00    -0.283 N 
HETATM    5  C12 UNL     1      13.575  34.218  20.309  1.00  0.00     0.148 C 
HETATM    6  C23 UNL     1      12.171  33.848  19.823  1.00  0.00     0.091 C 
ENDROOT
BRANCH   5   7
HETATM    7  C13 UNL     1      14.497  34.493  19.121  1.00  0.00    -0.022 A 
HETATM    8  C14 UNL     1      15.855  34.120  19.189  1.00  0.00     0.010 A 
HETATM    9  C15 UNL     1      16.725  34.366  18.134  1.00  0.00     0.002 A 
HETATM   10  C16 UNL     1      16.260  35.002  16.990  1.00  0.00     0.012 A 
HETATM   11  C17 UNL     1      14.922  35.408  16.886  1.00  0.00    -0.025 A 
HETATM   12  C18 UNL     1      14.486  36.060  15.720  1.00  0.00     0.012 A 
HETATM   13  C22 UNL     1      14.018  35.165  17.953  1.00  0.00    -0.018 A 
HETATM   14  C19 UNL     1      13.167  36.486  15.585  1.00  0.00     0.001 A 
HETATM   15  C20 UNL     1      12.267  36.266  16.618  1.00  0.00     0.001 A 
HETATM   16  C21 UNL     1      12.686  35.618  17.783  1.00  0.00     0.013 A 
ENDBRANCH   5   7
BRANCH   4  17
HETATM   17  C6  UNL     1      14.208  35.867  22.137  1.00  0.00     0.051 A 
HETATM   18  C7  UNL     1      15.531  35.394  22.211  1.00  0.00     0.031 A 
HETATM   19  C8  UNL     1      16.431  35.859  23.175  1.00  0.00     0.002 A 
HETATM   20  C9  UNL     1      16.026  36.813  24.101  1.00  0.00     0.000 A 
HETATM   21  C10 UNL     1      14.722  37.295  24.059  1.00  0.00     0.002 A 
HETATM   22  C11 UNL     1      13.827  36.827  23.090  1.00  0.00     0.031 A 
ENDBRANCH   4  17
BRANCH   1  23
HETATM   23  C4  UNL     1       9.949  35.201  20.011  1.00  0.00    -0.012 A 
HETATM   24  C3  UNL     1       8.961  34.378  20.568  1.00  0.00     0.016 A 
HETATM   25  C2  UNL     1       7.617  34.579  20.236  1.00  0.00     0.043 A 
HETATM   26  C1  UNL     1       7.269  35.596  19.355  1.00  0.00     0.116 A 
HETATM   27  F1  UNL     1       5.980  35.784  19.041  1.00  0.00    -0.206 F 
HETATM   28  C25 UNL     1       8.237  36.422  18.796  1.00  0.00     0.043 A 
HETATM   29  C24 UNL     1       9.580  36.224  19.125  1.00  0.00     0.016 A 
ENDBRANCH   1  23
TORSDOF 3
ENDMDL
MODEL 5
REMARK minimizedAffinity -7.56887245
REMARK  3 active torsions:
REMARK  status: ('A' for Active; 'I' for Inactive)
REMARK    1  A    between atoms: C4_5  and  C5_6 
REMARK    2  A    between atoms: N2_9  and  C6_10 
REMARK    3  A    between atoms: C12_16  and  C13_17 
ROOT
HETATM    1  C5  UNL     1      13.617  58.601   5.756  1.00  0.00     0.038 C 
HETATM    2  N1  UNL     1      13.010  58.386   4.629  1.00  0.00    -0.301 N 
ATOM      3  H1  UNL     1      12.053  58.652   4.396  1.00  0.00     0.187 HD
HETATM    4  N2  UNL     1      13.892  57.736   3.812  1.00  0.00    -0.283 N 
HETATM    5  C12 UNL     1      15.167  57.425   4.467  1.00  0.00     0.148 C 
HETATM    6  C23 UNL     1      15.053  58.162   5.805  1.00  0.00     0.091 C 
ENDROOT
BRANCH   5   7
HETATM    7  C13 UNL     1      15.409  55.933   4.697  1.00  0.00    -0.022 A 
HETATM    8  C14 UNL     1      14.339  55.103   5.087  1.00  0.00     0.010 A 
HETATM    9  C15 UNL     1      14.526  53.745   5.318  1.00  0.00     0.002 A 
HETATM   10  C16 UNL     1      15.790  53.188   5.177  1.00  0.00     0.012 A 
HETATM   11  C17 UNL     1      16.887  53.979   4.810  1.00  0.00    -0.025 A 
HETATM   12  C18 UNL     1      18.156  53.388   4.687  1.00  0.00     0.012 A 
HETATM   13  C22 UNL     1      16.717  55.368   4.569  1.00  0.00    -0.018 A 
HETATM   14  C19 UNL     1      19.270  54.144   4.334  1.00  0.00     0.001 A 
HETATM   15  C20 UNL     1      19.130  55.504   4.100  1.00  0.00     0.001 A 
HETATM   16  C21 UNL     1      17.874  56.107   4.217  1.00  0.00     0.013 A 
ENDBRANCH   5   7
BRANCH   4  17
HETATM   17  C6  UNL     1      13.644  57.626   2.442  1.00  0.00     0.051 A 
HETATM   18  C7  UNL     1      13.280  58.753   1.683  1.00  0.00     0.031 A 
HETATM   19  C8  UNL     1      13.024  58.671   0.311  1.00  0.00     0.002 A 
HETATM   20  C9  UNL     1      13.119  57.447  -0.342  1.00  0.00     0.000 A 
HETATM   21  C10 UNL     1      13.469  56.313   0.382  1.00  0.00     0.002 A 
HETATM   22  C11 UNL     1      13.726  56.403   1.755  1.00  0.00     0.031 A 
ENDBRANCH   4  17
BRANCH   1  23
HETATM   23  C4  UNL     1      12.963  59.266   6.908  1.00  0.00    -0.012 A 
HETATM   24  C3  UNL     1      12.001  60.269   6.727  1.00  0.00     0.016 A 
HETATM   25  C2  UNL     1      11.406  60.874   7.839  1.00  0.00     0.043 A 
HETATM   26  C1  UNL     1      11.772  60.475   9.119  1.00  0.00     0.116 A 
HETATM   27  F1  UNL     1      11.198  61.058  10.180  1.00  0.00    -0.206 F 
HETATM   28  C25 UNL     1      12.723  59.481   9.315  1.00  0.00     0.043 A 
HETATM   29  C24 UNL     1      13.320  58.875   8.208  1.00  0.00     0.016 A 
ENDBRANCH   1  23
TORSDOF 3
ENDMDL
MODEL 6
REMARK minimizedAffinity -7.55529165
REMARK  3 active torsions:
REMARK  status: ('A' for Active; 'I' for Inactive)
REMARK    1  A    between atoms: C4_5  and  C5_6 
REMARK    2  A    between atoms: N2_9  and  C6_10 
REMARK    3  A    between atoms: C12_16  and  C13_17 
ROOT
HETATM    1  C5  UNL     1       6.705  63.727  -5.634  1.00  0.00     0.038 C 
HETATM    2  N1  UNL     1       5.648  63.788  -4.883  1.00  0.00    -0.301 N 
ATOM      3  H1  UNL     1       5.344  63.085  -4.208  1.00  0.00     0.187 HD
HETATM    4  N2  UNL     1       5.019  64.967  -5.163  1.00  0.00    -0.283 N 
HETATM    5  C12 UNL     1       5.663  65.725  -6.241  1.00  0.00     0.148 C 
HETATM    6  C23 UNL     1       6.951  64.936  -6.492  1.00  0.00     0.091 C 
ENDROOT
BRANCH   5   7
HETATM    7  C13 UNL     1       4.837  65.823  -7.524  1.00  0.00    -0.022 A 
HETATM    8  C14 UNL     1       3.460  66.116  -7.448  1.00  0.00     0.010 A 
HETATM    9  C15 UNL     1       2.676  66.199  -8.592  1.00  0.00     0.002 A 
HETATM   10  C16 UNL     1       3.248  65.978  -9.838  1.00  0.00     0.012 A 
HETATM   11  C17 UNL     1       4.608  65.665  -9.960  1.00  0.00    -0.025 A 
HETATM   12  C18 UNL     1       5.154  65.435 -11.234  1.00  0.00     0.012 A 
HETATM   13  C22 UNL     1       5.426  65.576  -8.803  1.00  0.00    -0.018 A 
HETATM   14  C19 UNL     1       6.498  65.112 -11.394  1.00  0.00     0.001 A 
HETATM   15  C20 UNL     1       7.316  65.012 -10.277  1.00  0.00     0.001 A 
HETATM   16  C21 UNL     1       6.788  65.239  -9.002  1.00  0.00     0.013 A 
ENDBRANCH   5   7
BRANCH   4  17
HETATM   17  C6  UNL     1       4.021  65.460  -4.319  1.00  0.00     0.051 A 
HETATM   18  C7  UNL     1       3.516  64.675  -3.266  1.00  0.00     0.031 A 
HETATM   19  C8  UNL     1       2.516  65.142  -2.408  1.00  0.00     0.002 A 
HETATM   20  C9  UNL     1       1.986  66.415  -2.586  1.00  0.00     0.000 A 
HETATM   21  C10 UNL     1       2.459  67.213  -3.622  1.00  0.00     0.002 A 
HETATM   22  C11 UNL     1       3.462  66.739  -4.476  1.00  0.00     0.031 A 
ENDBRANCH   4  17
BRANCH   1  23
HETATM   23  C4  UNL     1       7.631  62.570  -5.629  1.00  0.00    -0.012 A 
HETATM   24  C3  UNL     1       7.159  61.253  -5.542  1.00  0.00     0.016 A 
HETATM   25  C2  UNL     1       8.063  60.186  -5.540  1.00  0.00     0.043 A 
HETATM   26  C1  UNL     1       9.427  60.439  -5.626  1.00  0.00     0.116 A 
HETATM   27  F1  UNL     1      10.289  59.413  -5.624  1.00  0.00    -0.206 F 
HETATM   28  C25 UNL     1       9.911  61.739  -5.715  1.00  0.00     0.043 A 
HETATM   29  C24 UNL     1       9.011  62.807  -5.716  1.00  0.00     0.016 A 
ENDBRANCH   1  23
TORSDOF 3
ENDMDL
MODEL 7
REMARK minimizedAffinity -7.51016283
REMARK  3 active torsions:
REMARK  status: ('A' for Active; 'I' for Inactive)
REMARK    1  A    between atoms: C4_5  and  C5_6 
REMARK    2  A    between atoms: N2_9  and  C6_10 
REMARK    3  A    between atoms: C12_16  and  C13_17 
ROOT
HETATM    1  C5  UNL     1       3.680  65.970  -5.110  1.00  0.00     0.038 C 
HETATM    2  N1  UNL     1       3.628  66.831  -4.140  1.00  0.00    -0.301 N 
ATOM      3  H1  UNL     1       4.424  67.237  -3.649  1.00  0.00     0.187 HD
HETATM    4  N2  UNL     1       2.308  67.091  -3.901  1.00  0.00    -0.283 N 
HETATM    5  C12 UNL     1       1.400  66.286  -4.725  1.00  0.00     0.148 C 
HETATM    6  C23 UNL     1       2.352  65.587  -5.700  1.00  0.00     0.091 C 
ENDROOT
BRANCH   5   7
HETATM    7  C13 UNL     1       0.585  65.257  -3.942  1.00  0.00    -0.022 A 
HETATM    8  C14 UNL     1       1.192  64.054  -3.526  1.00  0.00     0.010 A 
HETATM    9  C15 UNL     1       0.477  63.091  -2.825  1.00  0.00     0.002 A 
HETATM   10  C16 UNL     1      -0.864  63.301  -2.534  1.00  0.00     0.012 A 
HETATM   11  C17 UNL     1      -1.514  64.473  -2.944  1.00  0.00    -0.025 A 
HETATM   12  C18 UNL     1      -2.875  64.651  -2.645  1.00  0.00     0.012 A 
HETATM   13  C22 UNL     1      -0.801  65.470  -3.662  1.00  0.00    -0.018 A 
HETATM   14  C19 UNL     1      -3.556  65.797  -3.046  1.00  0.00     0.001 A 
HETATM   15  C20 UNL     1      -2.882  66.782  -3.753  1.00  0.00     0.001 A 
HETATM   16  C21 UNL     1      -1.527  66.620  -4.058  1.00  0.00     0.013 A 
ENDBRANCH   5   7
BRANCH   4  17
HETATM   17  C6  UNL     1       1.929  68.188  -3.123  1.00  0.00     0.051 A 
HETATM   18  C7  UNL     1       1.314  68.005  -1.872  1.00  0.00     0.031 A 
HETATM   19  C8  UNL     1       0.921  69.084  -1.074  1.00  0.00     0.002 A 
HETATM   20  C9  UNL     1       1.130  70.386  -1.514  1.00  0.00     0.000 A 
HETATM   21  C10 UNL     1       1.729  70.600  -2.751  1.00  0.00     0.002 A 
HETATM   22  C11 UNL     1       2.122  69.514  -3.543  1.00  0.00     0.031 A 
ENDBRANCH   4  17
BRANCH   1  23
HETATM   23  C4  UNL     1       4.954  65.422  -5.633  1.00  0.00    -0.012 A 
HETATM   24  C3  UNL     1       5.421  65.749  -6.914  1.00  0.00     0.016 A 
HETATM   25  C2  UNL     1       6.628  65.212  -7.374  1.00  0.00     0.043 A 
HETATM   26  C1  UNL     1       7.360  64.358  -6.557  1.00  0.00     0.116 A 
HETATM   27  F1  UNL     1       8.515  63.847  -7.003  1.00  0.00    -0.206 F 
HETATM   28  C25 UNL     1       6.910  64.026  -5.284  1.00  0.00     0.043 A 
HETATM   29  C24 UNL     1       5.705  64.559  -4.821  1.00  0.00     0.016 A 
ENDBRANCH   1  23
TORSDOF 3
ENDMDL
MODEL 8
REMARK minimizedAffinity -7.48493147
REMARK  3 active torsions:
REMARK  status: ('A' for Active; 'I' for Inactive)
REMARK    1  A    between atoms: C4_5  and  C5_6 
REMARK    2  A    between atoms: N2_9  and  C6_10 
REMARK    3  A    between atoms: C12_16  and  C13_17 
ROOT
HETATM    1  C5  UNL     1      13.023  35.012  18.633  1.00  0.00     0.038 C 
HETATM    2  N1  UNL     1      11.904  35.630  18.405  1.00  0.00    -0.301 N 
ATOM      3  H1  UNL     1      11.687  36.209  17.593  1.00  0.00     0.187 HD
HETATM    4  N2  UNL     1      11.072  35.360  19.454  1.00  0.00    -0.283 N 
HETATM    5  C12 UNL     1      11.706  34.559  20.506  1.00  0.00     0.148 C 
HETATM    6  C23 UNL     1      13.048  34.171  19.878  1.00  0.00     0.091 C 
ENDROOT
BRANCH   5   7
HETATM    7  C13 UNL     1      11.927  35.306  21.821  1.00  0.00    -0.022 A 
HETATM    8  C14 UNL     1      10.976  35.196  22.856  1.00  0.00     0.010 A 
HETATM    9  C15 UNL     1      11.138  35.872  24.059  1.00  0.00     0.002 A 
HETATM   10  C16 UNL     1      12.248  36.684  24.251  1.00  0.00     0.012 A 
HETATM   11  C17 UNL     1      13.210  36.838  23.244  1.00  0.00    -0.025 A 
HETATM   12  C18 UNL     1      14.315  37.676  23.465  1.00  0.00     0.012 A 
HETATM   13  C22 UNL     1      13.063  36.156  22.007  1.00  0.00    -0.018 A 
HETATM   14  C19 UNL     1      15.285  37.862  22.483  1.00  0.00     0.001 A 
HETATM   15  C20 UNL     1      15.159  37.211  21.264  1.00  0.00     0.001 A 
HETATM   16  C21 UNL     1      14.065  36.373  21.030  1.00  0.00     0.013 A 
ENDBRANCH   5   7
BRANCH   4  17
HETATM   17  C6  UNL     1       9.705  35.635  19.367  1.00  0.00     0.051 A 
HETATM   18  C7  UNL     1       8.774  34.907  20.129  1.00  0.00     0.031 A 
HETATM   19  C8  UNL     1       7.401  35.159  20.059  1.00  0.00     0.002 A 
HETATM   20  C9  UNL     1       6.918  36.151  19.213  1.00  0.00     0.000 A 
HETATM   21  C10 UNL     1       7.812  36.883  18.441  1.00  0.00     0.002 A 
HETATM   22  C11 UNL     1       9.187  36.627  18.518  1.00  0.00     0.031 A 
ENDBRANCH   4  17
BRANCH   1  23
HETATM   23  C4  UNL     1      14.188  35.091  17.719  1.00  0.00    -0.012 A 
HETATM   24  C3  UNL     1      15.422  34.518  18.055  1.00  0.00     0.016 A 
HETATM   25  C2  UNL     1      16.499  34.613  17.169  1.00  0.00     0.043 A 
HETATM   26  C1  UNL     1      16.339  35.275  15.956  1.00  0.00     0.116 A 
HETATM   27  F1  UNL     1      17.374  35.363  15.111  1.00  0.00    -0.206 F 
HETATM   28  C25 UNL     1      15.121  35.847  15.609  1.00  0.00     0.043 A 
HETATM   29  C24 UNL     1      14.042  35.754  16.492  1.00  0.00     0.016 A 
ENDBRANCH   1  23
TORSDOF 3
ENDMDL
MODEL 9
REMARK minimizedAffinity -7.39770889
REMARK  3 active torsions:
REMARK  status: ('A' for Active; 'I' for Inactive)
REMARK    1  A    between atoms: C4_5  and  C5_6 
REMARK    2  A    between atoms: N2_9  and  C6_10 
REMARK    3  A    between atoms: C12_16  and  C13_17 
ROOT
HETATM    1  C5  UNL     1      11.361  35.055  20.132  1.00  0.00     0.038 C 
HETATM    2  N1  UNL     1      12.202  35.805  20.777  1.00  0.00    -0.301 N 
ATOM      3  H1  UNL     1      11.978  36.455  21.531  1.00  0.00     0.187 HD
HETATM    4  N2  UNL     1      13.442  35.560  20.260  1.00  0.00    -0.283 N 
HETATM    5  C12 UNL     1      13.424  34.628  19.127  1.00  0.00     0.148 C 
HETATM    6  C23 UNL     1      11.973  34.138  19.111  1.00  0.00     0.091 C 
ENDROOT
BRANCH   5   7
HETATM    7  C13 UNL     1      13.790  35.261  17.785  1.00  0.00    -0.022 A 
HETATM    8  C14 UNL     1      12.818  35.982  17.063  1.00  0.00     0.010 A 
HETATM    9  C15 UNL     1      13.112  36.558  15.833  1.00  0.00     0.002 A 
HETATM   10  C16 UNL     1      14.382  36.416  15.290  1.00  0.00     0.012 A 
HETATM   11  C17 UNL     1      15.375  35.692  15.963  1.00  0.00    -0.025 A 
HETATM   12  C18 UNL     1      16.647  35.557  15.382  1.00  0.00     0.012 A 
HETATM   13  C22 UNL     1      15.095  35.096  17.222  1.00  0.00    -0.018 A 
HETATM   14  C19 UNL     1      17.656  34.837  16.017  1.00  0.00     0.001 A 
HETATM   15  C20 UNL     1      17.402  34.239  17.243  1.00  0.00     0.001 A 
HETATM   16  C21 UNL     1      16.142  34.366  17.835  1.00  0.00     0.013 A 
ENDBRANCH   5   7
BRANCH   4  17
HETATM   17  C6  UNL     1      14.590  35.987  20.931  1.00  0.00     0.051 A 
HETATM   18  C7  UNL     1      15.219  37.197  20.585  1.00  0.00     0.031 A 
HETATM   19  C8  UNL     1      16.370  37.647  21.238  1.00  0.00     0.002 A 
HETATM   20  C9  UNL     1      16.931  36.889  22.259  1.00  0.00     0.000 A 
HETATM   21  C10 UNL     1      16.338  35.684  22.620  1.00  0.00     0.002 A 
HETATM   22  C11 UNL     1      15.184  35.242  21.963  1.00  0.00     0.031 A 
ENDBRANCH   4  17
BRANCH   1  23
HETATM   23  C4  UNL     1       9.903  35.066  20.398  1.00  0.00    -0.012 A 
HETATM   24  C3  UNL     1       9.358  34.423  21.518  1.00  0.00     0.016 A 
HETATM   25  C2  UNL     1       7.977  34.455  21.736  1.00  0.00     0.043 A 
HETATM   26  C1  UNL     1       7.152  35.126  20.841  1.00  0.00     0.116 A 
HETATM   27  F1  UNL     1       5.830  35.152  21.055  1.00  0.00    -0.206 F 
HETATM   28  C25 UNL     1       7.678  35.769  19.727  1.00  0.00     0.043 A 
HETATM   29  C24 UNL     1       9.056  35.740  19.505  1.00  0.00     0.016 A 
ENDBRANCH   1  23
TORSDOF 3
ENDMDL
