MODEL 1
REMARK minimizedAffinity -7.22665548
REMARK  2 active torsions:
REMARK  status: ('A' for Active; 'I' for Inactive)
REMARK    1  A    between atoms: C4_5  and  N1_6 
REMARK    2  A    between atoms: N1_6  and  C5_7 
ROOT
HETATM    1  C5  UNL     1      10.733  34.790  18.912  1.00  0.00     0.131 A 
HETATM    2  N2  UNL     1      10.894  35.114  17.608  1.00  0.00    -0.285 N 
ATOM      3  H2  UNL     1      11.753  34.844  17.128  1.00  0.00     0.188 HD
HETATM    4  N3  UNL     1       9.931  35.795  16.920  1.00  0.00    -0.309 N 
ATOM      5  H3  UNL     1      10.067  36.031  15.938  1.00  0.00     0.186 HD
HETATM    6  C6  UNL     1       8.800  36.149  17.556  1.00  0.00     0.119 A 
HETATM    7  C7  UNL     1       8.562  35.862  18.892  1.00  0.00    -0.005 A 
HETATM    8  C8  UNL     1       7.368  36.254  19.527  1.00  0.00     0.014 A 
HETATM    9  C9  UNL     1       7.154  35.969  20.875  1.00  0.00     0.001 A 
HETATM   10  C10 UNL     1       8.129  35.298  21.602  1.00  0.00     0.001 A 
HETATM   11  C11 UNL     1       9.316  34.903  20.980  1.00  0.00     0.016 A 
HETATM   12  C12 UNL     1       9.557  35.167  19.608  1.00  0.00     0.021 A 
ENDROOT
BRANCH   1  13
HETATM   13  N1  UNL     1      11.734  34.050  19.600  1.00  0.00    -0.341 N 
HETATM   14  H3  UNL     1      11.506  33.064  19.532  1.00  0.00     0.167 HD
BRANCH  13  15
HETATM   15  C4  UNL     1      13.131  34.261  19.598  1.00  0.00     0.033 A 
HETATM   16  C3  UNL     1      13.852  34.581  20.758  1.00  0.00     0.032 A 
HETATM   17  C2  UNL     1      15.243  34.713  20.729  1.00  0.00     0.044 A 
HETATM   18  C1  UNL     1      15.926  34.499  19.540  1.00  0.00     0.116 A 
HETATM   19  F1  UNL     1      17.259  34.621  19.511  1.00  0.00    -0.206 F 
HETATM   20  C14 UNL     1      15.245  34.144  18.384  1.00  0.00     0.044 A 
HETATM   21  C13 UNL     1      13.853  34.014  18.418  1.00  0.00     0.032 A 
ENDBRANCH  13  15
ENDBRANCH   1  13
TORSDOF 2
ENDMDL
MODEL 2
REMARK minimizedAffinity -6.93488741
REMARK  2 active torsions:
REMARK  status: ('A' for Active; 'I' for Inactive)
REMARK    1  A    between atoms: C4_5  and  N1_6 
REMARK    2  A    between atoms: N1_6  and  C5_7 
ROOT
HETATM    1  C5  UNL     1      12.738  35.512  16.979  1.00  0.00     0.131 A 
HETATM    2  N2  UNL     1      12.664  36.429  15.986  1.00  0.00    -0.285 N 
ATOM      3  H2  UNL     1      11.770  36.592  15.522  1.00  0.00     0.188 HD
HETATM    4  N3  UNL     1      13.760  37.141  15.593  1.00  0.00    -0.309 N 
ATOM      5  H3  UNL     1      13.689  37.829  14.844  1.00  0.00     0.186 HD
HETATM    6  C6  UNL     1      14.936  36.923  16.208  1.00  0.00     0.119 A 
HETATM    7  C7  UNL     1      15.097  35.996  17.227  1.00  0.00    -0.005 A 
HETATM    8  C8  UNL     1      16.346  35.789  17.843  1.00  0.00     0.014 A 
HETATM    9  C9  UNL     1      16.490  34.843  18.856  1.00  0.00     0.001 A 
HETATM   10  C10 UNL     1      15.395  34.089  19.258  1.00  0.00     0.001 A 
HETATM   11  C11 UNL     1      14.151  34.288  18.653  1.00  0.00     0.016 A 
HETATM   12  C12 UNL     1      13.970  35.252  17.630  1.00  0.00     0.021 A 
ENDROOT
BRANCH   1  13
HETATM   13  N1  UNL     1      11.575  34.806  17.396  1.00  0.00    -0.341 N 
HETATM   14  H3  UNL     1      11.860  33.891  17.731  1.00  0.00     0.167 HD
BRANCH  13  15
HETATM   15  C4  UNL     1      10.466  35.301  18.117  1.00  0.00     0.033 A 
HETATM   16  C3  UNL     1       9.421  36.010  17.509  1.00  0.00     0.032 A 
HETATM   17  C2  UNL     1       8.305  36.423  18.243  1.00  0.00     0.044 A 
HETATM   18  C1  UNL     1       8.217  36.103  19.590  1.00  0.00     0.116 A 
HETATM   19  F1  UNL     1       7.148  36.493  20.296  1.00  0.00    -0.206 F 
HETATM   20  C14 UNL     1       9.217  35.369  20.213  1.00  0.00     0.044 A 
HETATM   21  C13 UNL     1      10.331  34.960  19.474  1.00  0.00     0.032 A 
ENDBRANCH  13  15
ENDBRANCH   1  13
TORSDOF 2
ENDMDL
MODEL 3
REMARK minimizedAffinity -6.79709339
REMARK  2 active torsions:
REMARK  status: ('A' for Active; 'I' for Inactive)
REMARK    1  A    between atoms: C4_5  and  N1_6 
REMARK    2  A    between atoms: N1_6  and  C5_7 
ROOT
HETATM    1  C5  UNL     1      12.015  35.940  18.610  1.00  0.00     0.131 A 
HETATM    2  N2  UNL     1      11.946  36.184  17.281  1.00  0.00    -0.285 N 
ATOM      3  H2  UNL     1      11.131  36.667  16.903  1.00  0.00     0.188 HD
HETATM    4  N3  UNL     1      12.945  35.798  16.435  1.00  0.00    -0.309 N 
ATOM      5  H3  UNL     1      12.879  35.989  15.435  1.00  0.00     0.186 HD
HETATM    6  C6  UNL     1      14.018  35.161  16.937  1.00  0.00     0.119 A 
HETATM    7  C7  UNL     1      14.160  34.867  18.285  1.00  0.00    -0.005 A 
HETATM    8  C8  UNL     1      15.295  34.192  18.775  1.00  0.00     0.014 A 
HETATM    9  C9  UNL     1      15.413  33.893  20.131  1.00  0.00     0.001 A 
HETATM   10  C10 UNL     1      14.399  34.255  21.009  1.00  0.00     0.001 A 
HETATM   11  C11 UNL     1      13.270  34.926  20.532  1.00  0.00     0.016 A 
HETATM   12  C12 UNL     1      13.128  35.256  19.161  1.00  0.00     0.021 A 
ENDROOT
BRANCH   1  13
HETATM   13  N1  UNL     1      10.979  36.383  19.479  1.00  0.00    -0.341 N 
HETATM   14  H3  UNL     1      11.006  37.397  19.517  1.00  0.00     0.167 HD
BRANCH  13  15
HETATM   15  C4  UNL     1       9.658  35.894  19.582  1.00  0.00     0.033 A 
HETATM   16  C3  UNL     1       9.303  34.841  20.437  1.00  0.00     0.032 A 
HETATM   17  C2  UNL     1       7.972  34.431  20.563  1.00  0.00     0.044 A 
HETATM   18  C1  UNL     1       6.982  35.093  19.851  1.00  0.00     0.116 A 
HETATM   19  F1  UNL     1       5.706  34.706  19.973  1.00  0.00    -0.206 F 
HETATM   20  C14 UNL     1       7.297  36.163  19.026  1.00  0.00     0.044 A 
HETATM   21  C13 UNL     1       8.629  36.569  18.902  1.00  0.00     0.032 A 
ENDBRANCH  13  15
ENDBRANCH   1  13
TORSDOF 2
ENDMDL
MODEL 4
REMARK minimizedAffinity -6.45568085
REMARK  2 active torsions:
REMARK  status: ('A' for Active; 'I' for Inactive)
REMARK    1  A    between atoms: C4_5  and  N1_6 
REMARK    2  A    between atoms: N1_6  and  C5_7 
ROOT
HETATM    1  C5  UNL     1      10.839  35.170  17.778  1.00  0.00     0.131 A 
HETATM    2  N2  UNL     1       9.944  35.831  17.007  1.00  0.00    -0.285 N 
ATOM      3  H2  UNL     1      10.179  36.044  16.038  1.00  0.00     0.188 HD
HETATM    4  N3  UNL     1       8.730  36.217  17.500  1.00  0.00    -0.309 N 
ATOM      5  H3  UNL     1       8.066  36.713  16.907  1.00  0.00     0.186 HD
HETATM    6  C6  UNL     1       8.424  35.934  18.778  1.00  0.00     0.119 A 
HETATM    7  C7  UNL     1       9.289  35.269  19.635  1.00  0.00    -0.005 A 
HETATM    8  C8  UNL     1       8.937  34.995  20.970  1.00  0.00     0.014 A 
HETATM    9  C9  UNL     1       9.826  34.338  21.819  1.00  0.00     0.001 A 
HETATM   10  C10 UNL     1      11.075  33.955  21.348  1.00  0.00     0.001 A 
HETATM   11  C11 UNL     1      11.433  34.221  20.023  1.00  0.00     0.016 A 
HETATM   12  C12 UNL     1      10.546  34.876  19.133  1.00  0.00     0.021 A 
ENDROOT
BRANCH   1  13
HETATM   13  N1  UNL     1      12.084  34.746  17.234  1.00  0.00    -0.341 N 
HETATM   14  H3  UNL     1      11.899  34.220  16.386  1.00  0.00     0.167 HD
BRANCH  13  15
HETATM   15  C4  UNL     1      13.289  35.476  17.140  1.00  0.00     0.033 A 
HETATM   16  C3  UNL     1      14.495  35.027  17.697  1.00  0.00     0.032 A 
HETATM   17  C2  UNL     1      15.682  35.744  17.522  1.00  0.00     0.044 A 
HETATM   18  C1  UNL     1      15.674  36.905  16.763  1.00  0.00     0.116 A 
HETATM   19  F1  UNL     1      16.811  37.591  16.590  1.00  0.00    -0.206 F 
HETATM   20  C14 UNL     1      14.505  37.356  16.167  1.00  0.00     0.044 A 
HETATM   21  C13 UNL     1      13.320  36.635  16.345  1.00  0.00     0.032 A 
ENDBRANCH  13  15
ENDBRANCH   1  13
TORSDOF 2
ENDMDL
MODEL 5
REMARK minimizedAffinity -6.36521149
REMARK  2 active torsions:
REMARK  status: ('A' for Active; 'I' for Inactive)
REMARK    1  A    between atoms: C4_5  and  N1_6 
REMARK    2  A    between atoms: N1_6  and  C5_7 
ROOT
HETATM    1  C5  UNL     1      17.201  51.588   5.640  1.00  0.00     0.131 A 
HETATM    2  N2  UNL     1      16.549  50.919   4.660  1.00  0.00    -0.285 N 
ATOM      3  H2  UNL     1      15.886  51.420   4.069  1.00  0.00     0.188 HD
HETATM    4  N3  UNL     1      16.761  49.588   4.446  1.00  0.00    -0.309 N 
ATOM      5  H3  UNL     1      16.263  49.098   3.703  1.00  0.00     0.186 HD
HETATM    6  C6  UNL     1      17.637  48.931   5.227  1.00  0.00     0.119 A 
HETATM    7  C7  UNL     1      18.338  49.541   6.257  1.00  0.00    -0.005 A 
HETATM    8  C8  UNL     1      19.242  48.820   7.059  1.00  0.00     0.014 A 
HETATM    9  C9  UNL     1      19.927  49.448   8.098  1.00  0.00     0.001 A 
HETATM   10  C10 UNL     1      19.711  50.797   8.352  1.00  0.00     0.001 A 
HETATM   11  C11 UNL     1      18.816  51.521   7.559  1.00  0.00     0.016 A 
HETATM   12  C12 UNL     1      18.116  50.913   6.488  1.00  0.00     0.021 A 
ENDROOT
BRANCH   1  13
HETATM   13  N1  UNL     1      16.991  52.983   5.824  1.00  0.00    -0.341 N 
HETATM   14  H3  UNL     1      17.892  53.423   5.979  1.00  0.00     0.167 HD
BRANCH  13  15
HETATM   15  C4  UNL     1      16.111  53.833   5.118  1.00  0.00     0.033 A 
HETATM   16  C3  UNL     1      14.722  53.813   5.307  1.00  0.00     0.032 A 
HETATM   17  C2  UNL     1      13.890  54.719   4.642  1.00  0.00     0.044 A 
HETATM   18  C1  UNL     1      14.449  55.669   3.800  1.00  0.00     0.116 A 
HETATM   19  F1  UNL     1      13.655  56.541   3.164  1.00  0.00    -0.206 F 
HETATM   20  C14 UNL     1      15.823  55.739   3.621  1.00  0.00     0.044 A 
HETATM   21  C13 UNL     1      16.651  54.831   4.289  1.00  0.00     0.032 A 
ENDBRANCH  13  15
ENDBRANCH   1  13
TORSDOF 2
ENDMDL
MODEL 6
REMARK minimizedAffinity -6.31383657
REMARK  2 active torsions:
REMARK  status: ('A' for Active; 'I' for Inactive)
REMARK    1  A    between atoms: C4_5  and  N1_6 
REMARK    2  A    between atoms: N1_6  and  C5_7 
ROOT
HETATM    1  C5  UNL     1      14.746  35.928  15.611  1.00  0.00     0.131 A 
HETATM    2  N2  UNL     1      13.521  36.344  15.216  1.00  0.00    -0.285 N 
ATOM      3  H2  UNL     1      13.410  36.769  14.295  1.00  0.00     0.188 HD
HETATM    4  N3  UNL     1      12.429  36.208  16.024  1.00  0.00    -0.309 N 
ATOM      5  H3  UNL     1      11.512  36.527  15.713  1.00  0.00     0.186 HD
HETATM    6  C6  UNL     1      12.580  35.649  17.238  1.00  0.00     0.119 A 
HETATM    7  C7  UNL     1      13.803  35.204  17.719  1.00  0.00    -0.005 A 
HETATM    8  C8  UNL     1      13.924  34.628  18.998  1.00  0.00     0.014 A 
HETATM    9  C9  UNL     1      15.164  34.201  19.470  1.00  0.00     0.001 A 
HETATM   10  C10 UNL     1      16.294  34.349  18.675  1.00  0.00     0.001 A 
HETATM   11  C11 UNL     1      16.182  34.918  17.403  1.00  0.00     0.016 A 
HETATM   12  C12 UNL     1      14.933  35.350  16.892  1.00  0.00     0.021 A 
ENDROOT
BRANCH   1  13
HETATM   13  N1  UNL     1      15.864  36.047  14.738  1.00  0.00    -0.341 N 
HETATM   14  H3  UNL     1      16.599  36.547  15.228  1.00  0.00     0.167 HD
BRANCH  13  15
HETATM   15  C4  UNL     1      16.392  35.076  13.859  1.00  0.00     0.033 A 
HETATM   16  C3  UNL     1      17.615  34.429  14.088  1.00  0.00     0.032 A 
HETATM   17  C2  UNL     1      18.070  33.423  13.231  1.00  0.00     0.044 A 
HETATM   18  C1  UNL     1      17.288  33.039  12.151  1.00  0.00     0.116 A 
HETATM   19  F1  UNL     1      17.720  32.072  11.331  1.00  0.00    -0.206 F 
HETATM   20  C14 UNL     1      16.056  33.633  11.919  1.00  0.00     0.044 A 
HETATM   21  C13 UNL     1      15.605  34.640  12.779  1.00  0.00     0.032 A 
ENDBRANCH  13  15
ENDBRANCH   1  13
TORSDOF 2
ENDMDL
MODEL 7
REMARK minimizedAffinity -6.27389097
REMARK  2 active torsions:
REMARK  status: ('A' for Active; 'I' for Inactive)
REMARK    1  A    between atoms: C4_5  and  N1_6 
REMARK    2  A    between atoms: N1_6  and  C5_7 
ROOT
HETATM    1  C5  UNL     1      11.303  35.722  19.633  1.00  0.00     0.131 A 
HETATM    2  N2  UNL     1      11.821  34.875  20.553  1.00  0.00    -0.285 N 
ATOM      3  H2  UNL     1      12.833  34.813  20.662  1.00  0.00     0.188 HD
HETATM    4  N3  UNL     1      11.017  34.101  21.339  1.00  0.00    -0.309 N 
ATOM      5  H3  UNL     1      11.421  33.468  22.028  1.00  0.00     0.186 HD
HETATM    6  C6  UNL     1       9.683  34.185  21.192  1.00  0.00     0.119 A 
HETATM    7  C7  UNL     1       9.075  35.021  20.267  1.00  0.00    -0.005 A 
HETATM    8  C8  UNL     1       7.674  35.078  20.136  1.00  0.00     0.014 A 
HETATM    9  C9  UNL     1       7.082  35.914  19.191  1.00  0.00     0.001 A 
HETATM   10  C10 UNL     1       7.880  36.694  18.364  1.00  0.00     0.001 A 
HETATM   11  C11 UNL     1       9.271  36.646  18.488  1.00  0.00     0.016 A 
HETATM   12  C12 UNL     1       9.901  35.815  19.448  1.00  0.00     0.021 A 
ENDROOT
BRANCH   1  13
HETATM   13  N1  UNL     1      12.159  36.545  18.849  1.00  0.00    -0.341 N 
HETATM   14  H3  UNL     1      12.367  37.385  19.379  1.00  0.00     0.167 HD
BRANCH  13  15
HETATM   15  C4  UNL     1      13.253  36.152  18.047  1.00  0.00     0.033 A 
HETATM   16  C3  UNL     1      14.179  35.178  18.451  1.00  0.00     0.032 A 
HETATM   17  C2  UNL     1      15.208  34.765  17.600  1.00  0.00     0.044 A 
HETATM   18  C1  UNL     1      15.301  35.307  16.326  1.00  0.00     0.116 A 
HETATM   19  F1  UNL     1      16.284  34.909  15.507  1.00  0.00    -0.206 F 
HETATM   20  C14 UNL     1      14.379  36.243  15.883  1.00  0.00     0.044 A 
HETATM   21  C13 UNL     1      13.351  36.654  16.738  1.00  0.00     0.032 A 
ENDBRANCH  13  15
ENDBRANCH   1  13
TORSDOF 2
ENDMDL
MODEL 8
REMARK minimizedAffinity -6.2717557
REMARK  2 active torsions:
REMARK  status: ('A' for Active; 'I' for Inactive)
REMARK    1  A    between atoms: C4_5  and  N1_6 
REMARK    2  A    between atoms: N1_6  and  C5_7 
ROOT
HETATM    1  C5  UNL     1      10.937  34.072  20.274  1.00  0.00     0.131 A 
HETATM    2  N2  UNL     1      10.735  33.746  21.572  1.00  0.00    -0.285 N 
ATOM      3  H2  UNL     1      11.392  33.120  22.038  1.00  0.00     0.188 HD
HETATM    4  N3  UNL     1       9.672  34.239  22.271  1.00  0.00    -0.309 N 
ATOM      5  H3  UNL     1       9.533  33.986  23.249  1.00  0.00     0.186 HD
HETATM    6  C6  UNL     1       8.809  35.065  21.653  1.00  0.00     0.119 A 
HETATM    7  C7  UNL     1       8.940  35.440  20.324  1.00  0.00    -0.005 A 
HETATM    8  C8  UNL     1       8.013  36.301  19.707  1.00  0.00     0.014 A 
HETATM    9  C9  UNL     1       8.155  36.655  18.367  1.00  0.00     0.001 A 
HETATM   10  C10 UNL     1       9.216  36.148  17.627  1.00  0.00     0.001 A 
HETATM   11  C11 UNL     1      10.142  35.293  18.231  1.00  0.00     0.016 A 
HETATM   12  C12 UNL     1      10.032  34.926  19.596  1.00  0.00     0.021 A 
ENDROOT
BRANCH   1  13
HETATM   13  N1  UNL     1      12.071  33.574  19.574  1.00  0.00    -0.341 N 
HETATM   14  H3  UNL     1      11.792  33.367  18.620  1.00  0.00     0.167 HD
BRANCH  13  15
HETATM   15  C4  UNL     1      13.405  34.034  19.636  1.00  0.00     0.033 A 
HETATM   16  C3  UNL     1      14.046  34.342  20.845  1.00  0.00     0.032 A 
HETATM   17  C2  UNL     1      15.390  34.726  20.872  1.00  0.00     0.044 A 
HETATM   18  C1  UNL     1      16.110  34.779  19.687  1.00  0.00     0.116 A 
HETATM   19  F1  UNL     1      17.399  35.143  19.710  1.00  0.00    -0.206 F 
HETATM   20  C14 UNL     1      15.515  34.443  18.479  1.00  0.00     0.044 A 
HETATM   21  C13 UNL     1      14.171  34.060  18.458  1.00  0.00     0.032 A 
ENDBRANCH  13  15
ENDBRANCH   1  13
TORSDOF 2
ENDMDL
MODEL 9
REMARK minimizedAffinity -6.25764561
REMARK  2 active torsions:
REMARK  status: ('A' for Active; 'I' for Inactive)
REMARK    1  A    between atoms: C4_5  and  N1_6 
REMARK    2  A    between atoms: N1_6  and  C5_7 
ROOT
HETATM    1  C5  UNL     1       3.838  65.227  -3.899  1.00  0.00     0.131 A 
HETATM    2  N2  UNL     1       4.781  64.289  -4.148  1.00  0.00    -0.285 N 
ATOM      3  H2  UNL     1       4.953  63.558  -3.458  1.00  0.00     0.188 HD
HETATM    4  N3  UNL     1       5.507  64.300  -5.304  1.00  0.00    -0.309 N 
ATOM      5  H3  UNL     1       6.214  63.586  -5.477  1.00  0.00     0.186 HD
HETATM    6  C6  UNL     1       5.277  65.265  -6.211  1.00  0.00     0.119 A 
HETATM    7  C7  UNL     1       4.335  66.267  -6.028  1.00  0.00    -0.005 A 
HETATM    8  C8  UNL     1       4.126  67.266  -6.998  1.00  0.00     0.014 A 
HETATM    9  C9  UNL     1       3.185  68.272  -6.789  1.00  0.00     0.001 A 
HETATM   10  C10 UNL     1       2.450  68.297  -5.611  1.00  0.00     0.001 A 
HETATM   11  C11 UNL     1       2.649  67.308  -4.643  1.00  0.00     0.016 A 
HETATM   12  C12 UNL     1       3.590  66.265  -4.833  1.00  0.00     0.021 A 
ENDROOT
BRANCH   1  13
HETATM   13  N1  UNL     1       3.069  65.177  -2.704  1.00  0.00    -0.341 N 
HETATM   14  H3  UNL     1       3.301  65.988  -2.140  1.00  0.00     0.167 HD
BRANCH  13  15
HETATM   15  C4  UNL     1       1.712  64.812  -2.554  1.00  0.00     0.033 A 
HETATM   16  C3  UNL     1       1.183  63.625  -3.081  1.00  0.00     0.032 A 
HETATM   17  C2  UNL     1      -0.148  63.264  -2.851  1.00  0.00     0.044 A 
HETATM   18  C1  UNL     1      -0.952  64.080  -2.068  1.00  0.00     0.116 A 
HETATM   19  F1  UNL     1      -2.227  63.734  -1.843  1.00  0.00    -0.206 F 
HETATM   20  C14 UNL     1      -0.447  65.241  -1.501  1.00  0.00     0.044 A 
HETATM   21  C13 UNL     1       0.884  65.598  -1.734  1.00  0.00     0.032 A 
ENDBRANCH  13  15
ENDBRANCH   1  13
TORSDOF 2
ENDMDL
