MODEL 1
REMARK minimizedAffinity -7.16599607
REMARK  3 active torsions:
REMARK  status: ('A' for Active; 'I' for Inactive)
REMARK    1  A    between atoms: C5_5  and  N1_6 
REMARK    2  A    between atoms: N1_6  and  C6_7 
REMARK    3  A    between atoms: C14_20  and  O1_21 
ROOT
HETATM    1  C6  UNL     1      11.485  34.606  18.423  1.00  0.00     0.136 A 
HETATM    2  N2  UNL     1      11.815  33.893  19.458  1.00  0.00    -0.336 N 
ATOM      3  H2  UNL     1      12.697  33.381  19.462  1.00  0.00     0.168 HD
HETATM    4  C7  UNL     1      10.983  33.825  20.544  1.00  0.00     0.199 A 
HETATM    5  N3  UNL     1       9.835  34.408  20.687  1.00  0.00    -0.289 N 
ATOM      6  H3  UNL     1       9.261  34.314  21.524  1.00  0.00     0.188 HD
HETATM    7  N4  UNL     1       9.474  35.147  19.628  1.00  0.00    -0.256 N 
HETATM    8  C8  UNL     1       8.312  35.872  19.505  1.00  0.00     0.031 A 
HETATM    9  C9  UNL     1       7.293  35.908  20.584  1.00  0.00     0.070 C 
HETATM   10  C10 UNL     1       8.331  36.487  18.267  1.00  0.00     0.029 A 
HETATM   11  C11 UNL     1       9.540  36.121  17.628  1.00  0.00     0.037 A 
HETATM   12  C12 UNL     1      10.221  35.291  18.496  1.00  0.00     0.100 A 
ENDROOT
BRANCH   1  13
HETATM   13  N1  UNL     1      12.266  34.716  17.290  1.00  0.00    -0.340 N 
HETATM   14  H6  UNL     1      12.019  34.101  16.529  1.00  0.00     0.167 HD
BRANCH  13  15
HETATM   15  C5  UNL     1      13.323  35.594  16.985  1.00  0.00     0.036 A 
HETATM   16  C4  UNL     1      14.574  35.355  17.577  1.00  0.00     0.030 A 
HETATM   17  C3  UNL     1      15.670  36.195  17.343  1.00  0.00     0.012 A 
HETATM   18  C2  UNL     1      15.549  37.311  16.508  1.00  0.00    -0.029 A 
HETATM   19  C1  UNL     1      16.740  38.193  16.275  1.00  0.00     0.051 C 
HETATM   20  C14 UNL     1      14.304  37.558  15.926  1.00  0.00     0.073 A 
HETATM   21  C13 UNL     1      13.209  36.718  16.162  1.00  0.00     0.066 A 
BRANCH  20  22
HETATM   22  O1  UNL     1      14.075  38.619  15.096  1.00  0.00    -0.360 OA
HETATM   23  H14 UNL     1      14.882  39.149  15.017  1.00  0.00     0.217 HD
ENDBRANCH  20  22
ENDBRANCH  13  15
ENDBRANCH   1  13
TORSDOF 3
ENDMDL
MODEL 2
REMARK minimizedAffinity -7.11129999
REMARK  3 active torsions:
REMARK  status: ('A' for Active; 'I' for Inactive)
REMARK    1  A    between atoms: C5_5  and  N1_6 
REMARK    2  A    between atoms: N1_6  and  C6_7 
REMARK    3  A    between atoms: C14_20  and  O1_21 
ROOT
HETATM    1  C6  UNL     1      11.242  35.099  17.790  1.00  0.00     0.136 A 
HETATM    2  N2  UNL     1      10.318  35.770  17.168  1.00  0.00    -0.336 N 
ATOM      3  H2  UNL     1      10.489  36.112  16.223  1.00  0.00     0.168 HD
HETATM    4  C7  UNL     1       9.117  36.018  17.778  1.00  0.00     0.199 A 
HETATM    5  N3  UNL     1       8.755  35.658  18.968  1.00  0.00    -0.289 N 
ATOM      6  H3  UNL     1       7.842  35.878  19.365  1.00  0.00     0.188 HD
HETATM    7  N4  UNL     1       9.696  34.968  19.628  1.00  0.00    -0.256 N 
HETATM    8  C8  UNL     1       9.584  34.463  20.902  1.00  0.00     0.031 A 
HETATM    9  C9  UNL     1       8.353  34.643  21.712  1.00  0.00     0.070 C 
HETATM   10  C10 UNL     1      10.770  33.820  21.204  1.00  0.00     0.029 A 
HETATM   11  C11 UNL     1      11.619  33.943  20.077  1.00  0.00     0.037 A 
HETATM   12  C12 UNL     1      10.924  34.658  19.123  1.00  0.00     0.100 A 
ENDROOT
BRANCH   1  13
HETATM   13  N1  UNL     1      12.479  34.817  17.246  1.00  0.00    -0.340 N 
HETATM   14  H6  UNL     1      12.644  33.849  17.013  1.00  0.00     0.167 HD
BRANCH  13  15
HETATM   15  C5  UNL     1      13.544  35.669  16.897  1.00  0.00     0.036 A 
HETATM   16  C4  UNL     1      14.830  35.343  17.358  1.00  0.00     0.030 A 
HETATM   17  C3  UNL     1      15.939  36.151  17.073  1.00  0.00     0.012 A 
HETATM   18  C2  UNL     1      15.796  37.320  16.318  1.00  0.00    -0.029 A 
HETATM   19  C1  UNL     1      17.001  38.165  16.028  1.00  0.00     0.051 C 
HETATM   20  C14 UNL     1      14.516  37.652  15.867  1.00  0.00     0.073 A 
HETATM   21  C13 UNL     1      13.410  36.844  16.153  1.00  0.00     0.066 A 
BRANCH  20  22
HETATM   22  O1  UNL     1      14.263  38.771  15.123  1.00  0.00    -0.360 OA
HETATM   23  H14 UNL     1      15.084  39.271  15.002  1.00  0.00     0.217 HD
ENDBRANCH  20  22
ENDBRANCH  13  15
ENDBRANCH   1  13
TORSDOF 3
ENDMDL
MODEL 3
REMARK minimizedAffinity -7.0946188
REMARK  3 active torsions:
REMARK  status: ('A' for Active; 'I' for Inactive)
REMARK    1  A    between atoms: C5_5  and  N1_6 
REMARK    2  A    between atoms: N1_6  and  C6_7 
REMARK    3  A    between atoms: C14_20  and  O1_21 
ROOT
HETATM    1  C6  UNL     1      11.027  34.957  18.471  1.00  0.00     0.136 A 
HETATM    2  N2  UNL     1      11.485  34.160  19.389  1.00  0.00    -0.336 N 
ATOM      3  H2  UNL     1      12.406  33.736  19.281  1.00  0.00     0.168 HD
HETATM    4  C7  UNL     1      10.735  33.886  20.502  1.00  0.00     0.199 A 
HETATM    5  N3  UNL     1       9.553  34.337  20.780  1.00  0.00    -0.289 N 
ATOM      6  H3  UNL     1       9.046  34.091  21.629  1.00  0.00     0.188 HD
HETATM    7  N4  UNL     1       9.060  35.159  19.841  1.00  0.00    -0.256 N 
HETATM    8  C8  UNL     1       7.835  35.781  19.874  1.00  0.00     0.031 A 
HETATM    9  C9  UNL     1       6.890  35.594  21.003  1.00  0.00     0.070 C 
HETATM   10  C10 UNL     1       7.718  36.538  18.723  1.00  0.00     0.029 A 
HETATM   11  C11 UNL     1       8.909  36.365  17.978  1.00  0.00     0.037 A 
HETATM   12  C12 UNL     1       9.716  35.506  18.697  1.00  0.00     0.100 A 
ENDROOT
BRANCH   1  13
HETATM   13  N1  UNL     1      11.718  35.273  17.319  1.00  0.00    -0.340 N 
HETATM   14  H6  UNL     1      11.150  35.487  16.513  1.00  0.00     0.167 HD
BRANCH  13  15
HETATM   15  C5  UNL     1      13.100  35.412  17.086  1.00  0.00     0.036 A 
HETATM   16  C4  UNL     1      13.520  36.377  16.156  1.00  0.00     0.030 A 
HETATM   17  C3  UNL     1      14.874  36.563  15.851  1.00  0.00     0.012 A 
HETATM   18  C2  UNL     1      15.858  35.781  16.466  1.00  0.00    -0.029 A 
HETATM   19  C1  UNL     1      17.302  36.002  16.121  1.00  0.00     0.051 C 
HETATM   20  C14 UNL     1      15.443  34.814  17.384  1.00  0.00     0.073 A 
HETATM   21  C13 UNL     1      14.088  34.629  17.687  1.00  0.00     0.066 A 
BRANCH  20  22
HETATM   22  O1  UNL     1      16.319  33.996  18.042  1.00  0.00    -0.360 OA
HETATM   23  H14 UNL     1      17.222  34.184  17.746  1.00  0.00     0.217 HD
ENDBRANCH  20  22
ENDBRANCH  13  15
ENDBRANCH   1  13
TORSDOF 3
ENDMDL
MODEL 4
REMARK minimizedAffinity -6.87492704
REMARK  3 active torsions:
REMARK  status: ('A' for Active; 'I' for Inactive)
REMARK    1  A    between atoms: C5_5  and  N1_6 
REMARK    2  A    between atoms: N1_6  and  C6_7 
REMARK    3  A    between atoms: C14_20  and  O1_21 
ROOT
HETATM    1  C6  UNL     1      12.803  35.263  17.310  1.00  0.00     0.136 A 
HETATM    2  N2  UNL     1      12.393  36.117  16.421  1.00  0.00    -0.336 N 
ATOM      3  H2  UNL     1      11.400  36.336  16.346  1.00  0.00     0.168 HD
HETATM    4  C7  UNL     1      13.290  36.726  15.584  1.00  0.00     0.199 A 
HETATM    5  N3  UNL     1      14.573  36.551  15.552  1.00  0.00    -0.289 N 
ATOM      6  H3  UNL     1      15.188  37.037  14.900  1.00  0.00     0.188 HD
HETATM    7  N4  UNL     1      15.016  35.669  16.460  1.00  0.00    -0.256 N 
HETATM    8  C8  UNL     1      16.324  35.292  16.650  1.00  0.00     0.031 A 
HETATM    9  C9  UNL     1      17.428  35.848  15.828  1.00  0.00     0.070 C 
HETATM   10  C10 UNL     1      16.349  34.370  17.680  1.00  0.00     0.029 A 
HETATM   11  C11 UNL     1      15.016  34.189  18.121  1.00  0.00     0.037 A 
HETATM   12  C12 UNL     1      14.219  35.006  17.345  1.00  0.00     0.100 A 
ENDROOT
BRANCH   1  13
HETATM   13  N1  UNL     1      11.959  34.602  18.181  1.00  0.00    -0.340 N 
HETATM   14  H6  UNL     1      12.277  33.696  18.494  1.00  0.00     0.167 HD
BRANCH  13  15
HETATM   15  C5  UNL     1      10.745  35.006  18.767  1.00  0.00     0.036 A 
HETATM   16  C4  UNL     1      10.385  34.440  20.001  1.00  0.00     0.030 A 
HETATM   17  C3  UNL     1       9.183  34.772  20.638  1.00  0.00     0.012 A 
HETATM   18  C2  UNL     1       8.294  35.682  20.057  1.00  0.00    -0.029 A 
HETATM   19  C1  UNL     1       7.013  36.020  20.762  1.00  0.00     0.051 C 
HETATM   20  C14 UNL     1       8.644  36.239  18.825  1.00  0.00     0.073 A 
HETATM   21  C13 UNL     1       9.846  35.906  18.189  1.00  0.00     0.066 A 
BRANCH  20  22
HETATM   22  O1  UNL     1       7.850  37.138  18.169  1.00  0.00    -0.360 OA
HETATM   23  H14 UNL     1       7.036  37.282  18.676  1.00  0.00     0.217 HD
ENDBRANCH  20  22
ENDBRANCH  13  15
ENDBRANCH   1  13
TORSDOF 3
ENDMDL
MODEL 5
REMARK minimizedAffinity -6.85152721
REMARK  3 active torsions:
REMARK  status: ('A' for Active; 'I' for Inactive)
REMARK    1  A    between atoms: C5_5  and  N1_6 
REMARK    2  A    between atoms: N1_6  and  C6_7 
REMARK    3  A    between atoms: C14_20  and  O1_21 
ROOT
HETATM    1  C6  UNL     1      10.705  35.229  17.775  1.00  0.00     0.136 A 
HETATM    2  N2  UNL     1       9.844  35.834  17.013  1.00  0.00    -0.336 N 
ATOM      3  H2  UNL     1      10.097  36.077  16.055  1.00  0.00     0.168 HD
HETATM    4  C7  UNL     1       8.599  36.146  17.490  1.00  0.00     0.199 A 
HETATM    5  N3  UNL     1       8.134  35.911  18.676  1.00  0.00    -0.289 N 
ATOM      6  H3  UNL     1       7.194  36.172  18.970  1.00  0.00     0.188 HD
HETATM    7  N4  UNL     1       9.010  35.290  19.481  1.00  0.00    -0.256 N 
HETATM    8  C8  UNL     1       8.786  34.919  20.785  1.00  0.00     0.031 A 
HETATM    9  C9  UNL     1       7.494  35.183  21.466  1.00  0.00     0.070 C 
HETATM   10  C10 UNL     1       9.936  34.307  21.250  1.00  0.00     0.029 A 
HETATM   11  C11 UNL     1      10.877  34.312  20.192  1.00  0.00     0.037 A 
HETATM   12  C12 UNL     1      10.272  34.927  19.115  1.00  0.00     0.100 A 
ENDROOT
BRANCH   1  13
HETATM   13  N1  UNL     1      11.980  34.890  17.369  1.00  0.00    -0.340 N 
HETATM   14  H6  UNL     1      12.042  34.394  16.492  1.00  0.00     0.167 HD
BRANCH  13  15
HETATM   15  C5  UNL     1      13.233  35.175  17.945  1.00  0.00     0.036 A 
HETATM   16  C4  UNL     1      14.159  34.126  18.066  1.00  0.00     0.030 A 
HETATM   17  C3  UNL     1      15.418  34.322  18.648  1.00  0.00     0.012 A 
HETATM   18  C2  UNL     1      15.793  35.579  19.133  1.00  0.00    -0.029 A 
HETATM   19  C1  UNL     1      17.148  35.760  19.751  1.00  0.00     0.051 C 
HETATM   20  C14 UNL     1      14.870  36.622  19.023  1.00  0.00     0.073 A 
HETATM   21  C13 UNL     1      13.612  36.424  18.443  1.00  0.00     0.066 A 
BRANCH  20  22
HETATM   22  O1  UNL     1      15.132  37.889  19.466  1.00  0.00    -0.360 OA
HETATM   23  H14 UNL     1      16.012  37.915  19.870  1.00  0.00     0.217 HD
ENDBRANCH  20  22
ENDBRANCH  13  15
ENDBRANCH   1  13
TORSDOF 3
ENDMDL
MODEL 6
REMARK minimizedAffinity -6.83224344
REMARK  3 active torsions:
REMARK  status: ('A' for Active; 'I' for Inactive)
REMARK    1  A    between atoms: C5_5  and  N1_6 
REMARK    2  A    between atoms: N1_6  and  C6_7 
REMARK    3  A    between atoms: C14_20  and  O1_21 
ROOT
HETATM    1  C6  UNL     1      12.928  35.802  17.172  1.00  0.00     0.136 A 
HETATM    2  N2  UNL     1      13.203  36.916  16.562  1.00  0.00    -0.336 N 
ATOM      3  H2  UNL     1      12.477  37.398  16.032  1.00  0.00     0.168 HD
HETATM    4  C7  UNL     1      14.464  37.446  16.629  1.00  0.00     0.199 A 
HETATM    5  N3  UNL     1      15.488  36.954  17.252  1.00  0.00    -0.289 N 
ATOM      6  H3  UNL     1      16.404  37.400  17.261  1.00  0.00     0.188 HD
HETATM    7  N4  UNL     1      15.225  35.801  17.885  1.00  0.00    -0.256 N 
HETATM    8  C8  UNL     1      16.120  35.062  18.622  1.00  0.00     0.031 A 
HETATM    9  C9  UNL     1      17.532  35.484  18.796  1.00  0.00     0.070 C 
HETATM   10  C10 UNL     1      15.450  33.953  19.104  1.00  0.00     0.029 A 
HETATM   11  C11 UNL     1      14.114  34.029  18.643  1.00  0.00     0.037 A 
HETATM   12  C12 UNL     1      14.010  35.183  17.892  1.00  0.00     0.100 A 
ENDROOT
BRANCH   1  13
HETATM   13  N1  UNL     1      11.685  35.202  17.144  1.00  0.00    -0.340 N 
HETATM   14  H6  UNL     1      11.545  34.522  16.411  1.00  0.00     0.167 HD
BRANCH  13  15
HETATM   15  C5  UNL     1      10.584  35.330  18.011  1.00  0.00     0.036 A 
HETATM   16  C4  UNL     1       9.462  36.041  17.555  1.00  0.00     0.030 A 
HETATM   17  C3  UNL     1       8.335  36.232  18.364  1.00  0.00     0.012 A 
HETATM   18  C2  UNL     1       8.294  35.720  19.665  1.00  0.00    -0.029 A 
HETATM   19  C1  UNL     1       7.074  35.940  20.510  1.00  0.00     0.051 C 
HETATM   20  C14 UNL     1       9.413  35.021  20.126  1.00  0.00     0.073 A 
HETATM   21  C13 UNL     1      10.538  34.832  19.315  1.00  0.00     0.066 A 
BRANCH  20  22
HETATM   22  O1  UNL     1       9.480  34.480  21.379  1.00  0.00    -0.360 OA
HETATM   23  H14 UNL     1       8.668  34.686  21.865  1.00  0.00     0.217 HD
ENDBRANCH  20  22
ENDBRANCH  13  15
ENDBRANCH   1  13
TORSDOF 3
ENDMDL
MODEL 7
REMARK minimizedAffinity -6.66740131
REMARK  3 active torsions:
REMARK  status: ('A' for Active; 'I' for Inactive)
REMARK    1  A    between atoms: C5_5  and  N1_6 
REMARK    2  A    between atoms: N1_6  and  C6_7 
REMARK    3  A    between atoms: C14_20  and  O1_21 
ROOT
HETATM    1  C6  UNL     1      10.879  35.156  17.791  1.00  0.00     0.136 A 
HETATM    2  N2  UNL     1       9.947  35.850  17.209  1.00  0.00    -0.336 N 
ATOM      3  H2  UNL     1      10.076  36.169  16.248  1.00  0.00     0.168 HD
HETATM    4  C7  UNL     1       8.793  36.156  17.880  1.00  0.00     0.199 A 
HETATM    5  N3  UNL     1       8.486  35.832  19.096  1.00  0.00    -0.289 N 
ATOM      6  H3  UNL     1       7.606  36.095  19.539  1.00  0.00     0.188 HD
HETATM    7  N4  UNL     1       9.437  35.118  19.716  1.00  0.00    -0.256 N 
HETATM    8  C8  UNL     1       9.379  34.642  21.004  1.00  0.00     0.031 A 
HETATM    9  C9  UNL     1       8.204  34.884  21.879  1.00  0.00     0.070 C 
HETATM   10  C10 UNL     1      10.556  33.959  21.251  1.00  0.00     0.029 A 
HETATM   11  C11 UNL     1      11.342  34.028  20.076  1.00  0.00     0.037 A 
HETATM   12  C12 UNL     1      10.621  34.753  19.148  1.00  0.00     0.100 A 
ENDROOT
BRANCH   1  13
HETATM   13  N1  UNL     1      12.071  34.817  17.184  1.00  0.00    -0.340 N 
HETATM   14  H6  UNL     1      11.998  34.184  16.401  1.00  0.00     0.167 HD
BRANCH  13  15
HETATM   15  C5  UNL     1      13.386  35.256  17.432  1.00  0.00     0.036 A 
HETATM   16  C4  UNL     1      13.674  36.618  17.251  1.00  0.00     0.030 A 
HETATM   17  C3  UNL     1      14.961  37.130  17.455  1.00  0.00     0.012 A 
HETATM   18  C2  UNL     1      16.010  36.291  17.845  1.00  0.00    -0.029 A 
HETATM   19  C1  UNL     1      17.379  36.867  18.058  1.00  0.00     0.051 C 
HETATM   20  C14 UNL     1      15.729  34.933  18.017  1.00  0.00     0.073 A 
HETATM   21  C13 UNL     1      14.442  34.423  17.811  1.00  0.00     0.066 A 
BRANCH  20  22
HETATM   22  O1  UNL     1      16.679  34.025  18.395  1.00  0.00    -0.360 OA
HETATM   23  H14 UNL     1      17.534  34.471  18.487  1.00  0.00     0.217 HD
ENDBRANCH  20  22
ENDBRANCH  13  15
ENDBRANCH   1  13
TORSDOF 3
ENDMDL
MODEL 8
REMARK minimizedAffinity -6.41433096
REMARK  3 active torsions:
REMARK  status: ('A' for Active; 'I' for Inactive)
REMARK    1  A    between atoms: C5_5  and  N1_6 
REMARK    2  A    between atoms: N1_6  and  C6_7 
REMARK    3  A    between atoms: C14_20  and  O1_21 
ROOT
HETATM    1  C6  UNL     1       3.948  65.506  -4.920  1.00  0.00     0.136 A 
HETATM    2  N2  UNL     1       3.326  66.434  -5.585  1.00  0.00    -0.336 N 
ATOM      3  H2  UNL     1       2.420  66.771  -5.259  1.00  0.00     0.168 HD
HETATM    4  C7  UNL     1       3.881  66.960  -6.720  1.00  0.00     0.199 A 
HETATM    5  N3  UNL     1       5.013  66.634  -7.261  1.00  0.00    -0.289 N 
ATOM      6  H3  UNL     1       5.370  67.066  -8.113  1.00  0.00     0.188 HD
HETATM    7  N4  UNL     1       5.670  65.675  -6.592  1.00  0.00    -0.256 N 
HETATM    8  C8  UNL     1       6.887  65.139  -6.936  1.00  0.00     0.031 A 
HETATM    9  C9  UNL     1       7.631  65.587  -8.140  1.00  0.00     0.070 C 
HETATM   10  C10 UNL     1       7.208  64.186  -5.987  1.00  0.00     0.029 A 
HETATM   11  C11 UNL     1       6.152  64.150  -5.046  1.00  0.00     0.037 A 
HETATM   12  C12 UNL     1       5.217  65.082  -5.451  1.00  0.00     0.100 A 
ENDROOT
BRANCH   1  13
HETATM   13  N1  UNL     1       3.449  64.921  -3.774  1.00  0.00    -0.340 N 
HETATM   14  H6  UNL     1       4.139  64.589  -3.116  1.00  0.00     0.167 HD
BRANCH  13  15
HETATM   15  C5  UNL     1       2.123  64.762  -3.326  1.00  0.00     0.036 A 
HETATM   16  C4  UNL     1       1.166  64.302  -4.245  1.00  0.00     0.030 A 
HETATM   17  C3  UNL     1      -0.178  64.138  -3.885  1.00  0.00     0.012 A 
HETATM   18  C2  UNL     1      -0.612  64.436  -2.589  1.00  0.00    -0.029 A 
HETATM   19  C1  UNL     1      -2.057  64.251  -2.231  1.00  0.00     0.051 C 
HETATM   20  C14 UNL     1       0.336  64.904  -1.676  1.00  0.00     0.073 A 
HETATM   21  C13 UNL     1       1.679  65.067  -2.038  1.00  0.00     0.066 A 
BRANCH  20  22
HETATM   22  O1  UNL     1       0.021  65.226  -0.385  1.00  0.00    -0.360 OA
HETATM   23  H14 UNL     1      -0.929  65.102  -0.243  1.00  0.00     0.217 HD
ENDBRANCH  20  22
ENDBRANCH  13  15
ENDBRANCH   1  13
TORSDOF 3
ENDMDL
MODEL 9
REMARK minimizedAffinity -6.35608387
REMARK  3 active torsions:
REMARK  status: ('A' for Active; 'I' for Inactive)
REMARK    1  A    between atoms: C5_5  and  N1_6 
REMARK    2  A    between atoms: N1_6  and  C6_7 
REMARK    3  A    between atoms: C14_20  and  O1_21 
ROOT
HETATM    1  C6  UNL     1      13.516  35.179  18.115  1.00  0.00     0.136 A 
HETATM    2  N2  UNL     1      13.877  34.525  19.178  1.00  0.00    -0.336 N 
ATOM      3  H2  UNL     1      13.217  34.399  19.946  1.00  0.00     0.168 HD
HETATM    4  C7  UNL     1      15.139  34.003  19.272  1.00  0.00     0.199 A 
HETATM    5  N3  UNL     1      16.086  34.083  18.392  1.00  0.00    -0.289 N 
ATOM      6  H3  UNL     1      17.010  33.672  18.525  1.00  0.00     0.188 HD
HETATM    7  N4  UNL     1      15.735  34.759  17.288  1.00  0.00    -0.256 N 
HETATM    8  C8  UNL     1      16.536  34.997  16.197  1.00  0.00     0.031 A 
HETATM    9  C9  UNL     1      17.937  34.509  16.129  1.00  0.00     0.070 C 
HETATM   10  C10 UNL     1      15.794  35.722  15.282  1.00  0.00     0.029 A 
HETATM   11  C11 UNL     1      14.510  35.924  15.842  1.00  0.00     0.037 A 
HETATM   12  C12 UNL     1      14.509  35.318  17.082  1.00  0.00     0.100 A 
ENDROOT
BRANCH   1  13
HETATM   13  N1  UNL     1      12.266  35.741  17.951  1.00  0.00    -0.340 N 
HETATM   14  H6  UNL     1      12.175  36.387  17.180  1.00  0.00     0.167 HD
BRANCH  13  15
HETATM   15  C5  UNL     1      11.061  35.520  18.645  1.00  0.00     0.036 A 
HETATM   16  C4  UNL     1      11.051  34.548  19.659  1.00  0.00     0.030 A 
HETATM   17  C3  UNL     1       9.887  34.252  20.380  1.00  0.00     0.012 A 
HETATM   18  C2  UNL     1       8.688  34.918  20.106  1.00  0.00    -0.029 A 
HETATM   19  C1  UNL     1       7.457  34.580  20.895  1.00  0.00     0.051 C 
HETATM   20  C14 UNL     1       8.692  35.877  19.091  1.00  0.00     0.073 A 
HETATM   21  C13 UNL     1       9.856  36.171  18.370  1.00  0.00     0.066 A 
BRANCH  20  22
HETATM   22  O1  UNL     1       7.577  36.585  18.740  1.00  0.00    -0.360 OA
HETATM   23  H14 UNL     1       6.825  36.292  19.277  1.00  0.00     0.217 HD
ENDBRANCH  20  22
ENDBRANCH  13  15
ENDBRANCH   1  13
TORSDOF 3
ENDMDL
