MODEL 1
REMARK minimizedAffinity -6.49379683
REMARK CNNscore 0.3287386
REMARK CNNaffinity 5.92366934
REMARK  1 active torsions:
REMARK  status: ('A' for Active; 'I' for Inactive)
REMARK    1  A    between atoms: C2_2  and  C3_3 
REMARK       I    between atoms: C3_3  and  N1_5 
ROOT
HETATM    1  C3  UNL     1      -8.572  17.145   4.982  1.00  0.00     0.247 C 
HETATM    2  O1  UNL     1      -9.208  17.522   3.999  1.00  0.00    -0.268 OA
HETATM    3  N1  UNL     1      -7.349  17.695   5.389  1.00  0.00    -0.315 N 
HETATM    4  C4  UNL     1      -6.684  18.592   4.430  1.00  0.00     0.132 C 
HETATM    5  C5  UNL     1      -6.243  17.873   3.145  1.00  0.00     0.020 C 
HETATM    6  C6  UNL     1      -5.539  18.833   2.182  1.00  0.00     0.002 C 
HETATM    7  C7  UNL     1      -5.548  18.372   0.721  1.00  0.00     0.000 C 
HETATM    8  C8  UNL     1      -4.964  16.989   0.409  1.00  0.00     0.000 C 
HETATM    9  C9  UNL     1      -3.449  16.954   0.180  1.00  0.00     0.002 C 
HETATM   10  C10 UNL     1      -2.576  16.999   1.432  1.00  0.00     0.020 C 
HETATM   11  C11 UNL     1      -2.744  15.767   2.320  1.00  0.00     0.128 C 
HETATM   12  N2  UNL     1      -1.929  15.850   3.522  1.00  0.00    -0.355 N 
HETATM   13  C12 UNL     1      -2.293  16.577   4.623  1.00  0.00     0.106 A 
HETATM   14  C13 UNL     1      -1.328  16.417   5.598  1.00  0.00     0.019 A 
HETATM   15  C14 UNL     1      -0.343  15.522   5.060  1.00  0.00     0.005 A 
HETATM   16  C15 UNL     1       0.840  14.931   5.562  1.00  0.00     0.014 A 
HETATM   17  C16 UNL     1       1.605  14.089   4.748  1.00  0.00     0.001 A 
HETATM   18  C17 UNL     1       1.211  13.822   3.441  1.00  0.00     0.002 A 
HETATM   19  C18 UNL     1       0.038  14.372   2.922  1.00  0.00     0.030 A 
HETATM   20  C19 UNL     1      -0.731  15.210   3.749  1.00  0.00     0.045 A 
HETATM   21  C20 UNL     1      -1.428  17.091   6.888  1.00  0.00     0.063 A 
HETATM   22  C21 UNL     1      -0.306  17.481   7.583  1.00  0.00     0.048 A 
HETATM   23  C22 UNL     1      -0.543  18.111   8.776  1.00  0.00     0.108 A 
HETATM   24  N3  UNL     1      -1.774  18.353   9.256  1.00  0.00    -0.202 N 
ATOM     25  H3  UNL     1      -1.912  18.815  10.154  1.00  0.00     0.183 HD
HETATM   26  C23 UNL     1      -2.817  17.962   8.503  1.00  0.00     0.683 A 
HETATM   27  N4  UNL     1      -2.682  17.338   7.328  1.00  0.00    -0.191 N 
ATOM     28  H4  UNL     1      -3.497  17.058   6.784  1.00  0.00     0.184 HD
HETATM   29  N5  UNL     1      -4.065  18.237   9.051  1.00  0.00    -0.192 N 
HETATM   30  C24 UNL     1      -5.374  18.214   8.553  1.00  0.00     0.051 A 
HETATM   31  C25 UNL     1      -6.424  18.378   9.468  1.00  0.00     0.030 A 
HETATM   32  C26 UNL     1      -7.755  18.332   9.058  1.00  0.00     0.004 A 
HETATM   33  C27 UNL     1      -8.060  18.104   7.720  1.00  0.00     0.030 A 
HETATM   34  C28 UNL     1      -7.040  17.907   6.778  1.00  0.00     0.039 A 
HETATM   35  C29 UNL     1      -5.704  17.957   7.214  1.00  0.00     0.059 A 
HETATM   36  H27 UNL     1      -3.927  18.706   9.933  1.00  0.00     0.184 HD
ENDROOT
BRANCH   1  37
HETATM   37  C2  UNL     1      -9.026  15.951   5.763  1.00  0.00     0.064 C 
HETATM   38  C1  UNL     1      -9.382  14.819   5.144  1.00  0.00     0.017 C 
ENDBRANCH   1  37
TORSDOF 1
ENDMDL
MODEL 2
REMARK minimizedAffinity -6.52831888
REMARK CNNscore 0.236228734
REMARK CNNaffinity 5.57072258
REMARK  1 active torsions:
REMARK  status: ('A' for Active; 'I' for Inactive)
REMARK    1  A    between atoms: C2_2  and  C3_3 
REMARK       I    between atoms: C3_3  and  N1_5 
ROOT
HETATM    1  C3  UNL     1      -9.024  18.669   6.495  1.00  0.00     0.247 C 
HETATM    2  O1  UNL     1      -9.751  19.327   5.754  1.00  0.00    -0.268 OA
HETATM    3  N1  UNL     1      -7.636  18.840   6.594  1.00  0.00    -0.315 N 
HETATM    4  C4  UNL     1      -7.006  19.677   5.559  1.00  0.00     0.132 C 
HETATM    5  C5  UNL     1      -7.104  19.065   4.153  1.00  0.00     0.020 C 
HETATM    6  C6  UNL     1      -6.421  19.954   3.109  1.00  0.00     0.002 C 
HETATM    7  C7  UNL     1      -6.910  19.723   1.676  1.00  0.00     0.000 C 
HETATM    8  C8  UNL     1      -6.820  18.300   1.114  1.00  0.00     0.000 C 
HETATM    9  C9  UNL     1      -5.474  17.931   0.478  1.00  0.00     0.002 C 
HETATM   10  C10 UNL     1      -4.345  17.581   1.445  1.00  0.00     0.020 C 
HETATM   11  C11 UNL     1      -4.621  16.312   2.251  1.00  0.00     0.128 C 
HETATM   12  N2  UNL     1      -3.548  16.021   3.187  1.00  0.00    -0.355 N 
HETATM   13  C12 UNL     1      -3.421  16.648   4.398  1.00  0.00     0.106 A 
HETATM   14  C13 UNL     1      -2.329  16.120   5.058  1.00  0.00     0.019 A 
HETATM   15  C14 UNL     1      -1.786  15.099   4.206  1.00  0.00     0.005 A 
HETATM   16  C15 UNL     1      -0.725  14.171   4.321  1.00  0.00     0.014 A 
HETATM   17  C16 UNL     1      -0.441  13.295   3.269  1.00  0.00     0.001 A 
HETATM   18  C17 UNL     1      -1.198  13.323   2.103  1.00  0.00     0.002 A 
HETATM   19  C18 UNL     1      -2.265  14.211   1.965  1.00  0.00     0.030 A 
HETATM   20  C19 UNL     1      -2.552  15.083   3.031  1.00  0.00     0.045 A 
HETATM   21  C20 UNL     1      -1.924  16.605   6.373  1.00  0.00     0.063 A 
HETATM   22  C21 UNL     1      -0.605  16.605   6.763  1.00  0.00     0.048 A 
HETATM   23  C22 UNL     1      -0.363  17.096   8.019  1.00  0.00     0.108 A 
HETATM   24  N3  UNL     1      -1.327  17.559   8.833  1.00  0.00    -0.202 N 
ATOM     25  H3  UNL     1      -1.111  17.906   9.767  1.00  0.00     0.183 HD
HETATM   26  C23 UNL     1      -2.587  17.546   8.365  1.00  0.00     0.683 A 
HETATM   27  N4  UNL     1      -2.917  17.084   7.156  1.00  0.00    -0.191 N 
ATOM     28  H4  UNL     1      -3.885  17.092   6.834  1.00  0.00     0.184 HD
HETATM   29  N5  UNL     1      -3.541  18.035   9.252  1.00  0.00    -0.192 N 
HETATM   30  C24 UNL     1      -4.887  18.402   9.129  1.00  0.00     0.051 A 
HETATM   31  C25 UNL     1      -5.597  18.683  10.305  1.00  0.00     0.030 A 
HETATM   32  C26 UNL     1      -6.948  19.022  10.272  1.00  0.00     0.004 A 
HETATM   33  C27 UNL     1      -7.620  19.071   9.054  1.00  0.00     0.030 A 
HETATM   34  C28 UNL     1      -6.953  18.769   7.857  1.00  0.00     0.039 A 
HETATM   35  C29 UNL     1      -5.590  18.429   7.916  1.00  0.00     0.059 A 
HETATM   36  H27 UNL     1      -3.070  18.324  10.095  1.00  0.00     0.184 HD
ENDROOT
BRANCH   1  37
HETATM   37  C2  UNL     1      -9.582  17.522   7.279  1.00  0.00     0.064 C 
HETATM   38  C1  UNL     1     -10.825  17.568   7.774  1.00  0.00     0.017 C 
ENDBRANCH   1  37
TORSDOF 1
ENDMDL
MODEL 3
REMARK minimizedAffinity -6.69902468
REMARK CNNscore 0.210243911
REMARK CNNaffinity 5.70329046
REMARK  1 active torsions:
REMARK  status: ('A' for Active; 'I' for Inactive)
REMARK    1  A    between atoms: C2_2  and  C3_3 
REMARK       I    between atoms: C3_3  and  N1_5 
ROOT
HETATM    1  C3  UNL     1     -19.235   5.677  23.668  1.00  0.00     0.247 C 
HETATM    2  O1  UNL     1     -20.446   5.489  23.766  1.00  0.00    -0.268 OA
HETATM    3  N1  UNL     1     -18.269   4.666  23.756  1.00  0.00    -0.315 N 
HETATM    4  C4  UNL     1     -18.735   3.359  24.251  1.00  0.00     0.132 C 
HETATM    5  C5  UNL     1     -19.212   3.408  25.711  1.00  0.00     0.020 C 
HETATM    6  C6  UNL     1     -19.669   2.028  26.194  1.00  0.00     0.002 C 
HETATM    7  C7  UNL     1     -20.625   2.071  27.390  1.00  0.00     0.000 C 
HETATM    8  C8  UNL     1     -20.153   2.802  28.652  1.00  0.00     0.000 C 
HETATM    9  C9  UNL     1     -19.323   1.959  29.627  1.00  0.00     0.002 C 
HETATM   10  C10 UNL     1     -17.859   1.739  29.251  1.00  0.00     0.020 C 
HETATM   11  C11 UNL     1     -17.044   3.032  29.250  1.00  0.00     0.128 C 
HETATM   12  N2  UNL     1     -15.663   2.801  28.856  1.00  0.00    -0.355 N 
HETATM   13  C12 UNL     1     -15.271   2.663  27.551  1.00  0.00     0.106 A 
HETATM   14  C13 UNL     1     -13.901   2.495  27.516  1.00  0.00     0.019 A 
HETATM   15  C14 UNL     1     -13.442   2.563  28.875  1.00  0.00     0.005 A 
HETATM   16  C15 UNL     1     -12.173   2.519  29.498  1.00  0.00     0.014 A 
HETATM   17  C16 UNL     1     -12.070   2.600  30.890  1.00  0.00     0.001 A 
HETATM   18  C17 UNL     1     -13.210   2.728  31.676  1.00  0.00     0.002 A 
HETATM   19  C18 UNL     1     -14.476   2.796  31.093  1.00  0.00     0.030 A 
HETATM   20  C19 UNL     1     -14.571   2.724  29.692  1.00  0.00     0.045 A 
HETATM   21  C20 UNL     1     -13.188   2.300  26.258  1.00  0.00     0.063 A 
HETATM   22  C21 UNL     1     -12.044   1.539  26.192  1.00  0.00     0.048 A 
HETATM   23  C22 UNL     1     -11.480   1.431  24.948  1.00  0.00     0.108 A 
HETATM   24  N3  UNL     1     -11.992   2.010  23.849  1.00  0.00    -0.202 N 
ATOM     25  H3  UNL     1     -11.538   1.918  22.941  1.00  0.00     0.183 HD
HETATM   26  C23 UNL     1     -13.126   2.717  23.996  1.00  0.00     0.683 A 
HETATM   27  N4  UNL     1     -13.744   2.879  25.170  1.00  0.00    -0.191 N 
ATOM     28  H4  UNL     1     -14.605   3.421  25.242  1.00  0.00     0.184 HD
HETATM   29  N5  UNL     1     -13.606   3.295  22.826  1.00  0.00    -0.192 N 
HETATM   30  C24 UNL     1     -14.814   3.906  22.466  1.00  0.00     0.051 A 
HETATM   31  C25 UNL     1     -14.875   4.551  21.223  1.00  0.00     0.030 A 
HETATM   32  C26 UNL     1     -16.027   5.213  20.805  1.00  0.00     0.004 A 
HETATM   33  C27 UNL     1     -17.142   5.254  21.638  1.00  0.00     0.030 A 
HETATM   34  C28 UNL     1     -17.112   4.646  22.902  1.00  0.00     0.039 A 
HETATM   35  C29 UNL     1     -15.938   3.984  23.301  1.00  0.00     0.059 A 
HETATM   36  H27 UNL     1     -12.986   3.043  22.071  1.00  0.00     0.184 HD
ENDROOT
BRANCH   1  37
HETATM   37  C2  UNL     1     -18.692   7.069  23.562  1.00  0.00     0.064 C 
HETATM   38  C1  UNL     1     -18.187   7.693  24.634  1.00  0.00     0.017 C 
ENDBRANCH   1  37
TORSDOF 1
ENDMDL
MODEL 4
REMARK minimizedAffinity -8.00726604
REMARK CNNscore 0.108323462
REMARK CNNaffinity 5.61090279
REMARK  1 active torsions:
REMARK  status: ('A' for Active; 'I' for Inactive)
REMARK    1  A    between atoms: C2_2  and  C3_3 
REMARK       I    between atoms: C3_3  and  N1_5 
ROOT
HETATM    1  C3  UNL     1      -0.116  16.096  18.397  1.00  0.00     0.247 C 
HETATM    2  O1  UNL     1      -0.573  17.216  18.618  1.00  0.00    -0.268 OA
HETATM    3  N1  UNL     1       0.106  15.125  19.383  1.00  0.00    -0.315 N 
HETATM    4  C4  UNL     1       0.023  15.581  20.780  1.00  0.00     0.132 C 
HETATM    5  C5  UNL     1       1.121  16.593  21.145  1.00  0.00     0.020 C 
HETATM    6  C6  UNL     1       1.014  17.028  22.609  1.00  0.00     0.002 C 
HETATM    7  C7  UNL     1       1.682  18.373  22.911  1.00  0.00     0.000 C 
HETATM    8  C8  UNL     1       3.165  18.527  22.554  1.00  0.00     0.000 C 
HETATM    9  C9  UNL     1       4.151  18.046  23.626  1.00  0.00     0.002 C 
HETATM   10  C10 UNL     1       4.366  16.537  23.716  1.00  0.00     0.020 C 
HETATM   11  C11 UNL     1       5.021  15.953  22.464  1.00  0.00     0.128 C 
HETATM   12  N2  UNL     1       5.183  14.511  22.562  1.00  0.00    -0.355 N 
HETATM   13  C12 UNL     1       4.165  13.626  22.328  1.00  0.00     0.106 A 
HETATM   14  C13 UNL     1       4.655  12.342  22.463  1.00  0.00     0.019 A 
HETATM   15  C14 UNL     1       6.052  12.463  22.771  1.00  0.00     0.005 A 
HETATM   16  C15 UNL     1       7.107  11.543  22.972  1.00  0.00     0.014 A 
HETATM   17  C16 UNL     1       8.392  12.004  23.280  1.00  0.00     0.001 A 
HETATM   18  C17 UNL     1       8.646  13.367  23.388  1.00  0.00     0.002 A 
HETATM   19  C18 UNL     1       7.632  14.302  23.175  1.00  0.00     0.030 A 
HETATM   20  C19 UNL     1       6.346  13.832  22.856  1.00  0.00     0.045 A 
HETATM   21  C20 UNL     1       3.795  11.176  22.293  1.00  0.00     0.063 A 
HETATM   22  C21 UNL     1       4.016  10.012  22.993  1.00  0.00     0.048 A 
HETATM   23  C22 UNL     1       3.129   8.999  22.745  1.00  0.00     0.108 A 
HETATM   24  N3  UNL     1       2.099   9.107  21.889  1.00  0.00    -0.202 N 
ATOM     25  H3  UNL     1       1.465   8.327  21.720  1.00  0.00     0.183 HD
HETATM   26  C23 UNL     1       1.939  10.286  21.264  1.00  0.00     0.683 A 
HETATM   27  N4  UNL     1       2.756  11.329  21.441  1.00  0.00    -0.191 N 
ATOM     28  H4  UNL     1       2.602  12.209  20.950  1.00  0.00     0.184 HD
HETATM   29  N5  UNL     1       0.859  10.339  20.389  1.00  0.00    -0.192 N 
HETATM   30  C24 UNL     1       0.201  11.375  19.715  1.00  0.00     0.051 A 
HETATM   31  C25 UNL     1      -0.754  11.024  18.750  1.00  0.00     0.030 A 
HETATM   32  C26 UNL     1      -1.428  11.994  18.012  1.00  0.00     0.004 A 
HETATM   33  C27 UNL     1      -1.144  13.341  18.216  1.00  0.00     0.030 A 
HETATM   34  C28 UNL     1      -0.175  13.733  19.151  1.00  0.00     0.039 A 
HETATM   35  C29 UNL     1       0.492  12.736  19.884  1.00  0.00     0.059 A 
HETATM   36  H27 UNL     1       0.389   9.447  20.413  1.00  0.00     0.184 HD
ENDROOT
BRANCH   1  37
HETATM   37  C2  UNL     1       0.361  15.732  17.025  1.00  0.00     0.064 C 
HETATM   38  C1  UNL     1       0.262  14.474  16.574  1.00  0.00     0.017 C 
ENDBRANCH   1  37
TORSDOF 1
ENDMDL
MODEL 5
REMARK minimizedAffinity -7.4130497
REMARK CNNscore 0.106717452
REMARK CNNaffinity 5.07435274
REMARK  1 active torsions:
REMARK  status: ('A' for Active; 'I' for Inactive)
REMARK    1  A    between atoms: C2_2  and  C3_3 
REMARK       I    between atoms: C3_3  and  N1_5 
ROOT
HETATM    1  C3  UNL     1      12.946  -1.959   3.533  1.00  0.00     0.247 C 
HETATM    2  O1  UNL     1      11.730  -1.892   3.704  1.00  0.00    -0.268 OA
HETATM    3  N1  UNL     1      13.667  -3.159   3.455  1.00  0.00    -0.315 N 
HETATM    4  C4  UNL     1      12.950  -4.379   3.859  1.00  0.00     0.132 C 
HETATM    5  C5  UNL     1      12.574  -4.386   5.350  1.00  0.00     0.020 C 
HETATM    6  C6  UNL     1      11.848  -5.678   5.736  1.00  0.00     0.002 C 
HETATM    7  C7  UNL     1      10.990  -5.560   6.999  1.00  0.00     0.000 C 
HETATM    8  C8  UNL     1      11.678  -5.085   8.284  1.00  0.00     0.000 C 
HETATM    9  C9  UNL     1      12.352  -6.186   9.112  1.00  0.00     0.002 C 
HETATM   10  C10 UNL     1      13.709  -6.674   8.609  1.00  0.00     0.020 C 
HETATM   11  C11 UNL     1      14.789  -5.594   8.666  1.00  0.00     0.128 C 
HETATM   12  N2  UNL     1      16.061  -6.073   8.150  1.00  0.00    -0.355 N 
HETATM   13  C12 UNL     1      16.343  -6.152   6.812  1.00  0.00     0.106 A 
HETATM   14  C13 UNL     1      17.638  -6.605   6.660  1.00  0.00     0.019 A 
HETATM   15  C14 UNL     1      18.172  -6.783   7.981  1.00  0.00     0.005 A 
HETATM   16  C15 UNL     1      19.432  -7.165   8.499  1.00  0.00     0.014 A 
HETATM   17  C16 UNL     1      19.623  -7.257   9.882  1.00  0.00     0.001 A 
HETATM   18  C17 UNL     1      18.583  -6.972  10.759  1.00  0.00     0.002 A 
HETATM   19  C18 UNL     1      17.335  -6.571  10.282  1.00  0.00     0.030 A 
HETATM   20  C19 UNL     1      17.152  -6.471   8.891  1.00  0.00     0.045 A 
HETATM   21  C20 UNL     1      18.223  -6.814   5.339  1.00  0.00     0.063 A 
HETATM   22  C21 UNL     1      19.166  -7.791   5.117  1.00  0.00     0.048 A 
HETATM   23  C22 UNL     1      19.624  -7.884   3.830  1.00  0.00     0.108 A 
HETATM   24  N3  UNL     1      19.196  -7.095   2.831  1.00  0.00    -0.202 N 
ATOM     25  H3  UNL     1      19.570  -7.185   1.886  1.00  0.00     0.183 HD
HETATM   26  C23 UNL     1      18.256  -6.181   3.127  1.00  0.00     0.683 A 
HETATM   27  N4  UNL     1      17.753  -6.016   4.354  1.00  0.00    -0.191 N 
ATOM     28  H4  UNL     1      17.038  -5.313   4.540  1.00  0.00     0.184 HD
HETATM   29  N5  UNL     1      17.854  -5.392   2.054  1.00  0.00    -0.192 N 
HETATM   30  C24 UNL     1      16.795  -4.500   1.844  1.00  0.00     0.051 A 
HETATM   31  C25 UNL     1      16.813  -3.728   0.674  1.00  0.00     0.030 A 
HETATM   32  C26 UNL     1      15.815  -2.794   0.407  1.00  0.00     0.004 A 
HETATM   33  C27 UNL     1      14.782  -2.603   1.322  1.00  0.00     0.030 A 
HETATM   34  C28 UNL     1      14.743  -3.334   2.518  1.00  0.00     0.039 A 
HETATM   35  C29 UNL     1      15.762  -4.272   2.765  1.00  0.00     0.059 A 
HETATM   36  H27 UNL     1      18.363  -5.688   1.235  1.00  0.00     0.184 HD
ENDROOT
BRANCH   1  37
HETATM   37  C2  UNL     1      13.777  -0.714   3.516  1.00  0.00     0.064 C 
HETATM   38  C1  UNL     1      14.771  -0.539   4.396  1.00  0.00     0.017 C 
ENDBRANCH   1  37
TORSDOF 1
ENDMDL
MODEL 6
REMARK minimizedAffinity -6.85191679
REMARK CNNscore 0.09945862
REMARK CNNaffinity 4.44292688
REMARK  1 active torsions:
REMARK  status: ('A' for Active; 'I' for Inactive)
REMARK    1  A    between atoms: C2_2  and  C3_3 
REMARK       I    between atoms: C3_3  and  N1_5 
ROOT
HETATM    1  C3  UNL     1       1.988  13.686  14.718  1.00  0.00     0.247 C 
HETATM    2  O1  UNL     1       0.788  13.446  14.834  1.00  0.00    -0.268 OA
HETATM    3  N1  UNL     1       3.008  12.772  15.019  1.00  0.00    -0.315 N 
HETATM    4  C4  UNL     1       2.604  11.562  15.754  1.00  0.00     0.132 C 
HETATM    5  C5  UNL     1       2.086  11.866  17.169  1.00  0.00     0.020 C 
HETATM    6  C6  UNL     1       1.696  10.582  17.908  1.00  0.00     0.002 C 
HETATM    7  C7  UNL     1       0.708  10.799  19.058  1.00  0.00     0.000 C 
HETATM    8  C8  UNL     1       1.102  11.792  20.157  1.00  0.00     0.000 C 
HETATM    9  C9  UNL     1       1.953  11.209  21.292  1.00  0.00     0.002 C 
HETATM   10  C10 UNL     1       3.437  11.010  20.989  1.00  0.00     0.020 C 
HETATM   11  C11 UNL     1       4.177  12.325  20.745  1.00  0.00     0.128 C 
HETATM   12  N2  UNL     1       5.578  12.106  20.425  1.00  0.00    -0.355 N 
HETATM   13  C12 UNL     1       6.012  11.740  19.179  1.00  0.00     0.106 A 
HETATM   14  C13 UNL     1       7.390  11.653  19.199  1.00  0.00     0.019 A 
HETATM   15  C14 UNL     1       7.808  12.015  20.524  1.00  0.00     0.005 A 
HETATM   16  C15 UNL     1       9.061  12.171  21.162  1.00  0.00     0.014 A 
HETATM   17  C16 UNL     1       9.121  12.529  22.513  1.00  0.00     0.001 A 
HETATM   18  C17 UNL     1       7.955  12.739  23.241  1.00  0.00     0.002 A 
HETATM   19  C18 UNL     1       6.703  12.613  22.637  1.00  0.00     0.030 A 
HETATM   20  C19 UNL     1       6.650  12.262  21.276  1.00  0.00     0.045 A 
HETATM   21  C20 UNL     1       8.147  11.260  18.015  1.00  0.00     0.063 A 
HETATM   22  C21 UNL     1       9.334  10.572  18.117  1.00  0.00     0.048 A 
HETATM   23  C22 UNL     1       9.936  10.258  16.928  1.00  0.00     0.108 A 
HETATM   24  N3  UNL     1       9.422  10.578  15.729  1.00  0.00    -0.202 N 
ATOM     25  H3  UNL     1       9.905  10.337  14.863  1.00  0.00     0.183 HD
HETATM   26  C23 UNL     1       8.246  11.228  15.716  1.00  0.00     0.683 A 
HETATM   27  N4  UNL     1       7.589  11.579  16.826  1.00  0.00    -0.191 N 
ATOM     28  H4  UNL     1       6.696  12.070  16.777  1.00  0.00     0.184 HD
HETATM   29  N5  UNL     1       7.765  11.535  14.448  1.00  0.00    -0.192 N 
HETATM   30  C24 UNL     1       6.534  11.989  13.956  1.00  0.00     0.051 A 
HETATM   31  C25 UNL     1       6.470  12.373  12.610  1.00  0.00     0.030 A 
HETATM   32  C26 UNL     1       5.293  12.867  12.053  1.00  0.00     0.004 A 
HETATM   33  C27 UNL     1       4.156  13.003  12.844  1.00  0.00     0.030 A 
HETATM   34  C28 UNL     1       4.186  12.657  14.203  1.00  0.00     0.039 A 
HETATM   35  C29 UNL     1       5.386  12.160  14.743  1.00  0.00     0.059 A 
HETATM   36  H27 UNL     1       8.418  11.179  13.767  1.00  0.00     0.184 HD
ENDROOT
BRANCH   1  37
HETATM   37  C2  UNL     1       2.453  15.060  14.349  1.00  0.00     0.064 C 
HETATM   38  C1  UNL     1       1.835  15.760  13.389  1.00  0.00     0.017 C 
ENDBRANCH   1  37
TORSDOF 1
ENDMDL
MODEL 7
REMARK minimizedAffinity -6.24650717
REMARK CNNscore 0.095443733
REMARK CNNaffinity 4.76956892
REMARK  1 active torsions:
REMARK  status: ('A' for Active; 'I' for Inactive)
REMARK    1  A    between atoms: C2_2  and  C3_3 
REMARK       I    between atoms: C3_3  and  N1_5 
ROOT
HETATM    1  C3  UNL     1      -4.276 -13.818   2.217  1.00  0.00     0.247 C 
HETATM    2  O1  UNL     1      -3.778 -13.896   3.338  1.00  0.00    -0.268 OA
HETATM    3  N1  UNL     1      -4.519 -12.613   1.544  1.00  0.00    -0.315 N 
HETATM    4  C4  UNL     1      -4.405 -11.382   2.344  1.00  0.00     0.132 C 
HETATM    5  C5  UNL     1      -5.463 -11.291   3.455  1.00  0.00     0.020 C 
HETATM    6  C6  UNL     1      -5.324  -9.990   4.251  1.00  0.00     0.002 C 
HETATM    7  C7  UNL     1      -5.942 -10.046   5.652  1.00  0.00     0.000 C 
HETATM    8  C8  UNL     1      -7.423 -10.428   5.761  1.00  0.00     0.000 C 
HETATM    9  C9  UNL     1      -8.412  -9.266   5.611  1.00  0.00     0.002 C 
HETATM   10  C10 UNL     1      -8.679  -8.787   4.186  1.00  0.00     0.020 C 
HETATM   11  C11 UNL     1      -9.368  -9.842   3.321  1.00  0.00     0.128 C 
HETATM   12  N2  UNL     1      -9.579  -9.373   1.961  1.00  0.00    -0.355 N 
HETATM   13  C12 UNL     1      -8.594  -9.371   1.009  1.00  0.00     0.106 A 
HETATM   14  C13 UNL     1      -9.126  -8.906  -0.177  1.00  0.00     0.019 A 
HETATM   15  C14 UNL     1     -10.515  -8.638   0.070  1.00  0.00     0.005 A 
HETATM   16  C15 UNL     1     -11.599  -8.202  -0.727  1.00  0.00     0.014 A 
HETATM   17  C16 UNL     1     -12.863  -8.021  -0.155  1.00  0.00     0.001 A 
HETATM   18  C17 UNL     1     -13.069  -8.271   1.197  1.00  0.00     0.002 A 
HETATM   19  C18 UNL     1     -12.026  -8.722   2.007  1.00  0.00     0.030 A 
HETATM   20  C19 UNL     1     -10.760  -8.910   1.424  1.00  0.00     0.045 A 
HETATM   21  C20 UNL     1      -8.309  -8.769  -1.378  1.00  0.00     0.063 A 
HETATM   22  C21 UNL     1      -8.562  -7.790  -2.311  1.00  0.00     0.048 A 
HETATM   23  C22 UNL     1      -7.713  -7.769  -3.386  1.00  0.00     0.108 A 
HETATM   24  N3  UNL     1      -6.690  -8.626  -3.541  1.00  0.00    -0.202 N 
ATOM     25  H3  UNL     1      -6.085  -8.587  -4.361  1.00  0.00     0.183 HD
HETATM   26  C23 UNL     1      -6.497  -9.536  -2.571  1.00  0.00     0.683 A 
HETATM   27  N4  UNL     1      -7.276  -9.634  -1.489  1.00  0.00    -0.191 N 
ATOM     28  H4  UNL     1      -7.096 -10.337  -0.772  1.00  0.00     0.184 HD
HETATM   29  N5  UNL     1      -5.426 -10.397  -2.787  1.00  0.00    -0.192 N 
HETATM   30  C24 UNL     1      -4.740 -11.318  -1.986  1.00  0.00     0.051 A 
HETATM   31  C25 UNL     1      -3.809 -12.160  -2.609  1.00  0.00     0.030 A 
HETATM   32  C26 UNL     1      -3.110 -13.127  -1.889  1.00  0.00     0.004 A 
HETATM   33  C27 UNL     1      -3.345 -13.279  -0.526  1.00  0.00     0.030 A 
HETATM   34  C28 UNL     1      -4.290 -12.476   0.130  1.00  0.00     0.039 A 
HETATM   35  C29 UNL     1      -4.982 -11.507  -0.617  1.00  0.00     0.059 A 
HETATM   36  H27 UNL     1      -4.986 -10.142  -3.658  1.00  0.00     0.184 HD
ENDROOT
BRANCH   1  37
HETATM   37  C2  UNL     1      -4.780 -15.047   1.527  1.00  0.00     0.064 C 
HETATM   38  C1  UNL     1      -4.169 -16.227   1.690  1.00  0.00     0.017 C 
ENDBRANCH   1  37
TORSDOF 1
ENDMDL
MODEL 8
REMARK minimizedAffinity -6.9029665
REMARK CNNscore 0.0932470039
REMARK CNNaffinity 4.97539473
REMARK  1 active torsions:
REMARK  status: ('A' for Active; 'I' for Inactive)
REMARK    1  A    between atoms: C2_2  and  C3_3 
REMARK       I    between atoms: C3_3  and  N1_5 
ROOT
HETATM    1  C3  UNL     1     -11.865   8.264  13.955  1.00  0.00     0.247 C 
HETATM    2  O1  UNL     1     -11.390   9.200  13.314  1.00  0.00    -0.268 OA
HETATM    3  N1  UNL     1     -12.881   8.398  14.911  1.00  0.00    -0.315 N 
HETATM    4  C4  UNL     1     -13.200   9.770  15.338  1.00  0.00     0.132 C 
HETATM    5  C5  UNL     1     -12.039  10.451  16.080  1.00  0.00     0.020 C 
HETATM    6  C6  UNL     1     -12.416  11.867  16.525  1.00  0.00     0.002 C 
HETATM    7  C7  UNL     1     -11.214  12.784  16.775  1.00  0.00     0.000 C 
HETATM    8  C8  UNL     1     -10.159  12.314  17.782  1.00  0.00     0.000 C 
HETATM    9  C9  UNL     1     -10.449  12.662  19.247  1.00  0.00     0.002 C 
HETATM   10  C10 UNL     1     -11.470  11.779  19.961  1.00  0.00     0.020 C 
HETATM   11  C11 UNL     1     -11.003  10.332  20.114  1.00  0.00     0.128 C 
HETATM   12  N2  UNL     1     -12.006   9.506  20.765  1.00  0.00    -0.355 N 
HETATM   13  C12 UNL     1     -13.089   8.987  20.108  1.00  0.00     0.106 A 
HETATM   14  C13 UNL     1     -13.821   8.222  20.994  1.00  0.00     0.019 A 
HETATM   15  C14 UNL     1     -13.123   8.263  22.249  1.00  0.00     0.005 A 
HETATM   16  C15 UNL     1     -13.317   7.660  23.513  1.00  0.00     0.014 A 
HETATM   17  C16 UNL     1     -12.433   7.928  24.563  1.00  0.00     0.001 A 
HETATM   18  C17 UNL     1     -11.354   8.785  24.376  1.00  0.00     0.002 A 
HETATM   19  C18 UNL     1     -11.121   9.381  23.135  1.00  0.00     0.030 A 
HETATM   20  C19 UNL     1     -12.009   9.099  22.081  1.00  0.00     0.045 A 
HETATM   21  C20 UNL     1     -15.052   7.552  20.589  1.00  0.00     0.063 A 
HETATM   22  C21 UNL     1     -16.084   7.348  21.476  1.00  0.00     0.048 A 
HETATM   23  C22 UNL     1     -17.185   6.716  20.962  1.00  0.00     0.108 A 
HETATM   24  N3  UNL     1     -17.282   6.318  19.682  1.00  0.00    -0.202 N 
ATOM     25  H3  UNL     1     -18.113   5.839  19.337  1.00  0.00     0.183 HD
HETATM   26  C23 UNL     1     -16.239   6.577  18.876  1.00  0.00     0.683 A 
HETATM   27  N4  UNL     1     -15.123   7.186  19.290  1.00  0.00    -0.191 N 
ATOM     28  H4  UNL     1     -14.352   7.368  18.647  1.00  0.00     0.184 HD
HETATM   29  N5  UNL     1     -16.395   6.141  17.564  1.00  0.00    -0.192 N 
HETATM   30  C24 UNL     1     -15.699   6.372  16.371  1.00  0.00     0.051 A 
HETATM   31  C25 UNL     1     -16.044   5.599  15.253  1.00  0.00     0.030 A 
HETATM   32  C26 UNL     1     -15.376   5.744  14.039  1.00  0.00     0.004 A 
HETATM   33  C27 UNL     1     -14.335   6.660  13.926  1.00  0.00     0.030 A 
HETATM   34  C28 UNL     1     -13.941   7.432  15.028  1.00  0.00     0.039 A 
HETATM   35  C29 UNL     1     -14.629   7.269  16.244  1.00  0.00     0.059 A 
HETATM   36  H27 UNL     1     -17.304   5.712  17.480  1.00  0.00     0.184 HD
ENDROOT
BRANCH   1  37
HETATM   37  C2  UNL     1     -11.280   6.892  13.834  1.00  0.00     0.064 C 
HETATM   38  C1  UNL     1     -10.028   6.714  13.391  1.00  0.00     0.017 C 
ENDBRANCH   1  37
TORSDOF 1
ENDMDL
MODEL 9
REMARK minimizedAffinity -6.77829647
REMARK CNNscore 0.0903952122
REMARK CNNaffinity 4.51589394
REMARK  1 active torsions:
REMARK  status: ('A' for Active; 'I' for Inactive)
REMARK    1  A    between atoms: C2_2  and  C3_3 
REMARK       I    between atoms: C3_3  and  N1_5 
ROOT
HETATM    1  C3  UNL     1     -12.641  -8.108   1.356  1.00  0.00     0.247 C 
HETATM    2  O1  UNL     1     -13.560  -8.514   2.065  1.00  0.00    -0.268 OA
HETATM    3  N1  UNL     1     -11.654  -8.931   0.796  1.00  0.00    -0.315 N 
HETATM    4  C4  UNL     1     -11.585 -10.310   1.307  1.00  0.00     0.132 C 
HETATM    5  C5  UNL     1     -11.185 -10.379   2.790  1.00  0.00     0.020 C 
HETATM    6  C6  UNL     1     -11.106 -11.828   3.279  1.00  0.00     0.002 C 
HETATM    7  C7  UNL     1     -11.245 -11.984   4.797  1.00  0.00     0.000 C 
HETATM    8  C8  UNL     1     -10.267 -11.205   5.684  1.00  0.00     0.000 C 
HETATM    9  C9  UNL     1      -8.930 -11.905   5.957  1.00  0.00     0.002 C 
HETATM   10  C10 UNL     1      -7.898 -11.849   4.833  1.00  0.00     0.020 C 
HETATM   11  C11 UNL     1      -7.407 -10.431   4.545  1.00  0.00     0.128 C 
HETATM   12  N2  UNL     1      -6.451 -10.401   3.449  1.00  0.00    -0.355 N 
HETATM   13  C12 UNL     1      -6.823 -10.439   2.132  1.00  0.00     0.106 A 
HETATM   14  C13 UNL     1      -5.688 -10.356   1.349  1.00  0.00     0.019 A 
HETATM   15  C14 UNL     1      -4.575 -10.234   2.248  1.00  0.00     0.005 A 
HETATM   16  C15 UNL     1      -3.181 -10.062   2.083  1.00  0.00     0.014 A 
HETATM   17  C16 UNL     1      -2.345  -9.993   3.203  1.00  0.00     0.001 A 
HETATM   18  C17 UNL     1      -2.873 -10.089   4.485  1.00  0.00     0.002 A 
HETATM   19  C18 UNL     1      -4.246 -10.238   4.684  1.00  0.00     0.030 A 
HETATM   20  C19 UNL     1      -5.082 -10.297   3.554  1.00  0.00     0.045 A 
HETATM   21  C20 UNL     1      -5.762 -10.393  -0.108  1.00  0.00     0.063 A 
HETATM   22  C21 UNL     1      -4.748 -10.934  -0.864  1.00  0.00     0.048 A 
HETATM   23  C22 UNL     1      -4.949 -10.912  -2.219  1.00  0.00     0.108 A 
HETATM   24  N3  UNL     1      -6.054 -10.412  -2.797  1.00  0.00    -0.202 N 
ATOM     25  H3  UNL     1      -6.164 -10.402  -3.811  1.00  0.00     0.183 HD
HETATM   26  C23 UNL     1      -7.008  -9.925  -1.985  1.00  0.00     0.683 A 
HETATM   27  N4  UNL     1      -6.897  -9.901  -0.653  1.00  0.00    -0.191 N 
ATOM     28  H4  UNL     1      -7.643  -9.525  -0.069  1.00  0.00     0.184 HD
HETATM   29  N5  UNL     1      -8.126  -9.419  -2.639  1.00  0.00    -0.192 N 
HETATM   30  C24 UNL     1      -9.404  -9.028  -2.222  1.00  0.00     0.051 A 
HETATM   31  C25 UNL     1     -10.226  -8.379  -3.155  1.00  0.00     0.030 A 
HETATM   32  C26 UNL     1     -11.497  -7.927  -2.810  1.00  0.00     0.004 A 
HETATM   33  C27 UNL     1     -11.967  -8.105  -1.511  1.00  0.00     0.030 A 
HETATM   34  C28 UNL     1     -11.165  -8.724  -0.541  1.00  0.00     0.039 A 
HETATM   35  C29 UNL     1      -9.885  -9.171  -0.913  1.00  0.00     0.059 A 
HETATM   36  H27 UNL     1      -7.992  -9.538  -3.632  1.00  0.00     0.184 HD
ENDROOT
BRANCH   1  37
HETATM   37  C2  UNL     1     -12.445  -6.640   1.138  1.00  0.00     0.064 C 
HETATM   38  C1  UNL     1     -11.520  -5.960   1.828  1.00  0.00     0.017 C 
ENDBRANCH   1  37
TORSDOF 1
ENDMDL
