MODEL 1
REMARK minimizedAffinity -7.91808367
REMARK  4 active torsions:
REMARK  status: ('A' for Active; 'I' for Inactive)
REMARK    1  A    between atoms: O1_1  and  C1_2 
REMARK    2  A    between atoms: C4_5  and  C5_6 
REMARK    3  A    between atoms: N1_7  and  N2_9 
REMARK    4  A    between atoms: N2_9  and  C6_10 
ROOT
HETATM    1  C6  UNL     1      13.642  36.370  18.412  1.00  0.00     0.706 A 
HETATM    2  N3  UNL     1      14.763  36.021  18.997  1.00  0.00    -0.189 N 
ATOM      3  H3  UNL     1      14.833  36.059  20.014  1.00  0.00     0.184 HD
HETATM    4  C7  UNL     1      15.876  35.592  18.236  1.00  0.00     0.063 A 
HETATM    5  C8  UNL     1      17.048  35.230  18.899  1.00  0.00     0.031 A 
HETATM    6  C9  UNL     1      18.166  34.800  18.178  1.00  0.00     0.002 A 
HETATM    7  C10 UNL     1      18.118  34.731  16.784  1.00  0.00     0.001 A 
HETATM    8  C11 UNL     1      16.954  35.090  16.106  1.00  0.00     0.017 A 
HETATM    9  C12 UNL     1      15.840  35.517  16.832  1.00  0.00     0.038 A 
HETATM   10  C13 UNL     1      14.597  35.907  16.211  1.00  0.00     0.157 A 
HETATM   11  N4  UNL     1      14.234  35.954  14.947  1.00  0.00    -0.283 N 
ATOM     12  H4  UNL     1      14.812  35.706  14.143  1.00  0.00     0.188 HD
HETATM   13  N5  UNL     1      12.930  36.400  14.906  1.00  0.00    -0.293 N 
ATOM     14  H5  UNL     1      12.368  36.542  14.067  1.00  0.00     0.187 HD
HETATM   15  C14 UNL     1      12.542  36.609  16.145  1.00  0.00     0.225 A 
HETATM   16  N6  UNL     1      13.557  36.314  17.009  1.00  0.00    -0.124 N 
ENDROOT
BRANCH   1  17
HETATM   17  N2  UNL     1      12.523  36.799  19.117  1.00  0.00    -0.132 N 
HETATM   18  H5  UNL     1      12.623  37.568  19.769  1.00  0.00     0.205 HD
BRANCH  17  19
HETATM   19  N1  UNL     1      11.289  36.232  18.974  1.00  0.00    -0.297 N 
HETATM   20  C5  UNL     1      10.480  36.367  19.974  1.00  0.00     0.119 C 
ATOM     21  H1  UNL     1      11.020  35.732  18.127  1.00  0.00     0.186 HD
BRANCH  20  22
HETATM   22  C4  UNL     1       9.115  35.802  19.949  1.00  0.00    -0.019 A 
HETATM   23  C3  UNL     1       8.169  36.359  19.080  1.00  0.00     0.015 A 
HETATM   24  C2  UNL     1       6.872  35.840  19.040  1.00  0.00     0.037 A 
HETATM   25  C1  UNL     1       6.536  34.772  19.869  1.00  0.00     0.065 A 
HETATM   26  C16 UNL     1       7.471  34.215  20.734  1.00  0.00     0.037 A 
HETATM   27  C15 UNL     1       8.768  34.730  20.776  1.00  0.00     0.015 A 
BRANCH  25  28
HETATM   28  O1  UNL     1       5.282  34.236  19.861  1.00  0.00    -0.361 OA
HETATM   29  H1  UNL     1       4.736  34.716  19.218  1.00  0.00     0.217 HD
ENDBRANCH  25  28
ENDBRANCH  20  22
ENDBRANCH  17  19
ENDBRANCH   1  17
TORSDOF 4
ENDMDL
MODEL 2
REMARK minimizedAffinity -7.7080307
REMARK  4 active torsions:
REMARK  status: ('A' for Active; 'I' for Inactive)
REMARK    1  A    between atoms: O1_1  and  C1_2 
REMARK    2  A    between atoms: C4_5  and  C5_6 
REMARK    3  A    between atoms: N1_7  and  N2_9 
REMARK    4  A    between atoms: N2_9  and  C6_10 
ROOT
HETATM    1  C6  UNL     1      13.650  35.700  16.485  1.00  0.00     0.706 A 
HETATM    2  N3  UNL     1      14.435  35.946  15.463  1.00  0.00    -0.189 N 
ATOM      3  H3  UNL     1      14.062  36.432  14.648  1.00  0.00     0.184 HD
HETATM    4  C7  UNL     1      15.792  35.545  15.477  1.00  0.00     0.063 A 
HETATM    5  C8  UNL     1      16.590  35.827  14.368  1.00  0.00     0.031 A 
HETATM    6  C9  UNL     1      17.936  35.445  14.350  1.00  0.00     0.002 A 
HETATM    7  C10 UNL     1      18.491  34.777  15.443  1.00  0.00     0.001 A 
HETATM    8  C11 UNL     1      17.706  34.488  16.558  1.00  0.00     0.017 A 
HETATM    9  C12 UNL     1      16.364  34.872  16.572  1.00  0.00     0.038 A 
HETATM   10  C13 UNL     1      15.481  34.613  17.684  1.00  0.00     0.157 A 
HETATM   11  N4  UNL     1      15.690  34.017  18.839  1.00  0.00    -0.283 N 
ATOM     12  H4  UNL     1      16.570  33.613  19.159  1.00  0.00     0.188 HD
HETATM   13  N5  UNL     1      14.502  34.039  19.537  1.00  0.00    -0.293 N 
ATOM     14  H5  UNL     1      14.343  33.653  20.468  1.00  0.00     0.187 HD
HETATM   15  C14 UNL     1      13.609  34.646  18.786  1.00  0.00     0.225 A 
HETATM   16  N6  UNL     1      14.176  35.029  17.604  1.00  0.00    -0.124 N 
ENDROOT
BRANCH   1  17
HETATM   17  N2  UNL     1      12.311  36.074  16.517  1.00  0.00    -0.132 N 
HETATM   18  H5  UNL     1      11.869  36.378  15.657  1.00  0.00     0.205 HD
BRANCH  17  19
HETATM   19  N1  UNL     1      11.557  36.051  17.655  1.00  0.00    -0.297 N 
HETATM   20  C5  UNL     1      10.303  35.775  17.503  1.00  0.00     0.119 C 
ATOM     21  H1  UNL     1      11.960  36.241  18.573  1.00  0.00     0.186 HD
BRANCH  20  22
HETATM   22  C4  UNL     1       9.377  35.718  18.653  1.00  0.00    -0.019 A 
HETATM   23  C3  UNL     1       8.139  36.365  18.557  1.00  0.00     0.015 A 
HETATM   24  C2  UNL     1       7.248  36.324  19.632  1.00  0.00     0.037 A 
HETATM   25  C1  UNL     1       7.604  35.637  20.791  1.00  0.00     0.065 A 
HETATM   26  C16 UNL     1       8.832  34.992  20.892  1.00  0.00     0.037 A 
HETATM   27  C15 UNL     1       9.725  35.031  19.820  1.00  0.00     0.015 A 
BRANCH  25  28
HETATM   28  O1  UNL     1       6.765  35.572  21.863  1.00  0.00    -0.361 OA
HETATM   29  H1  UNL     1       5.951  36.060  21.659  1.00  0.00     0.217 HD
ENDBRANCH  25  28
ENDBRANCH  20  22
ENDBRANCH  17  19
ENDBRANCH   1  17
TORSDOF 4
ENDMDL
MODEL 3
REMARK minimizedAffinity -7.68119097
REMARK  4 active torsions:
REMARK  status: ('A' for Active; 'I' for Inactive)
REMARK    1  A    between atoms: O1_1  and  C1_2 
REMARK    2  A    between atoms: C4_5  and  C5_6 
REMARK    3  A    between atoms: N1_7  and  N2_9 
REMARK    4  A    between atoms: N2_9  and  C6_10 
ROOT
HETATM    1  C6  UNL     1      11.517  35.800  17.521  1.00  0.00     0.706 A 
HETATM    2  N3  UNL     1      10.252  36.141  17.487  1.00  0.00    -0.189 N 
ATOM      3  H3  UNL     1       9.895  36.675  16.695  1.00  0.00     0.184 HD
HETATM    4  C7  UNL     1       9.373  35.777  18.535  1.00  0.00     0.063 A 
HETATM    5  C8  UNL     1       8.035  36.160  18.459  1.00  0.00     0.031 A 
HETATM    6  C9  UNL     1       7.140  35.815  19.477  1.00  0.00     0.002 A 
HETATM    7  C10 UNL     1       7.582  35.084  20.582  1.00  0.00     0.001 A 
HETATM    8  C11 UNL     1       8.917  34.694  20.673  1.00  0.00     0.017 A 
HETATM    9  C12 UNL     1       9.806  35.040  19.653  1.00  0.00     0.038 A 
HETATM   10  C13 UNL     1      11.202  34.677  19.668  1.00  0.00     0.157 A 
HETATM   11  N4  UNL     1      11.917  34.004  20.544  1.00  0.00    -0.283 N 
ATOM     12  H4  UNL     1      11.576  33.600  21.418  1.00  0.00     0.188 HD
HETATM   13  N5  UNL     1      13.208  33.943  20.068  1.00  0.00    -0.293 N 
ATOM     14  H5  UNL     1      13.998  33.486  20.525  1.00  0.00     0.187 HD
HETATM   15  C14 UNL     1      13.239  34.579  18.918  1.00  0.00     0.225 A 
HETATM   16  N6  UNL     1      11.998  35.063  18.618  1.00  0.00    -0.124 N 
ENDROOT
BRANCH   1  17
HETATM   17  N2  UNL     1      12.417  36.136  16.515  1.00  0.00    -0.132 N 
HETATM   18  H5  UNL     1      12.225  36.948  15.940  1.00  0.00     0.205 HD
BRANCH  17  19
HETATM   19  N1  UNL     1      13.554  35.422  16.262  1.00  0.00    -0.297 N 
HETATM   20  C5  UNL     1      14.520  36.069  15.696  1.00  0.00     0.119 C 
ATOM     21  H1  UNL     1      13.636  34.435  16.505  1.00  0.00     0.186 HD
BRANCH  20  22
HETATM   22  C4  UNL     1      15.804  35.416  15.368  1.00  0.00    -0.019 A 
HETATM   23  C3  UNL     1      16.184  35.308  14.025  1.00  0.00     0.015 A 
HETATM   24  C2  UNL     1      17.393  34.694  13.692  1.00  0.00     0.037 A 
HETATM   25  C1  UNL     1      18.209  34.194  14.705  1.00  0.00     0.065 A 
HETATM   26  C16 UNL     1      17.837  34.298  16.041  1.00  0.00     0.037 A 
HETATM   27  C15 UNL     1      16.629  34.911  16.377  1.00  0.00     0.015 A 
BRANCH  25  28
HETATM   28  O1  UNL     1      19.397  33.587  14.424  1.00  0.00    -0.361 OA
HETATM   29  H1  UNL     1      19.531  33.582  13.462  1.00  0.00     0.217 HD
ENDBRANCH  25  28
ENDBRANCH  20  22
ENDBRANCH  17  19
ENDBRANCH   1  17
TORSDOF 4
ENDMDL
MODEL 4
REMARK minimizedAffinity -7.61261034
REMARK  4 active torsions:
REMARK  status: ('A' for Active; 'I' for Inactive)
REMARK    1  A    between atoms: O1_1  and  C1_2 
REMARK    2  A    between atoms: C4_5  and  C5_6 
REMARK    3  A    between atoms: N1_7  and  N2_9 
REMARK    4  A    between atoms: N2_9  and  C6_10 
ROOT
HETATM    1  C6  UNL     1      14.410  35.752  16.218  1.00  0.00     0.706 A 
HETATM    2  N3  UNL     1      13.126  35.940  16.400  1.00  0.00    -0.189 N 
ATOM      3  H3  UNL     1      12.596  36.486  15.720  1.00  0.00     0.184 HD
HETATM    4  C7  UNL     1      12.463  35.398  17.526  1.00  0.00     0.063 A 
HETATM    5  C8  UNL     1      11.096  35.624  17.680  1.00  0.00     0.031 A 
HETATM    6  C9  UNL     1      10.411  35.100  18.781  1.00  0.00     0.002 A 
HETATM    7  C10 UNL     1      11.093  34.347  19.739  1.00  0.00     0.001 A 
HETATM    8  C11 UNL     1      12.460  34.112  19.600  1.00  0.00     0.017 A 
HETATM    9  C12 UNL     1      13.139  34.636  18.498  1.00  0.00     0.038 A 
HETATM   10  C13 UNL     1      14.552  34.442  18.276  1.00  0.00     0.157 A 
HETATM   11  N4  UNL     1      15.460  33.795  18.975  1.00  0.00    -0.283 N 
ATOM     12  H4  UNL     1      15.304  33.291  19.848  1.00  0.00     0.188 HD
HETATM   13  N5  UNL     1      16.662  33.924  18.314  1.00  0.00    -0.293 N 
ATOM     14  H5  UNL     1      17.557  33.532  18.607  1.00  0.00     0.187 HD
HETATM   15  C14 UNL     1      16.447  34.644  17.234  1.00  0.00     0.225 A 
HETATM   16  N6  UNL     1      15.130  34.997  17.162  1.00  0.00    -0.124 N 
ENDROOT
BRANCH   1  17
HETATM   17  N2  UNL     1      15.104  36.265  15.128  1.00  0.00    -0.132 N 
HETATM   18  H5  UNL     1      15.279  37.263  15.088  1.00  0.00     0.205 HD
BRANCH  17  19
HETATM   19  N1  UNL     1      15.564  35.489  14.103  1.00  0.00    -0.297 N 
HETATM   20  C5  UNL     1      16.820  35.605  13.819  1.00  0.00     0.119 C 
ATOM     21  H1  UNL     1      14.952  34.855  13.591  1.00  0.00     0.186 HD
BRANCH  20  22
HETATM   22  C4  UNL     1      17.445  34.823  12.733  1.00  0.00    -0.019 A 
HETATM   23  C3  UNL     1      16.978  33.528  12.477  1.00  0.00     0.015 A 
HETATM   24  C2  UNL     1      17.554  32.771  11.454  1.00  0.00     0.037 A 
HETATM   25  C1  UNL     1      18.591  33.316  10.700  1.00  0.00     0.065 A 
HETATM   26  C16 UNL     1      19.059  34.601  10.949  1.00  0.00     0.037 A 
HETATM   27  C15 UNL     1      18.485  35.361  11.969  1.00  0.00     0.015 A 
BRANCH  25  28
HETATM   28  O1  UNL     1      19.181  32.611   9.693  1.00  0.00    -0.361 OA
HETATM   29  H1  UNL     1      18.762  31.738   9.628  1.00  0.00     0.217 HD
ENDBRANCH  25  28
ENDBRANCH  20  22
ENDBRANCH  17  19
ENDBRANCH   1  17
TORSDOF 4
ENDMDL
MODEL 5
REMARK minimizedAffinity -7.53742504
REMARK  4 active torsions:
REMARK  status: ('A' for Active; 'I' for Inactive)
REMARK    1  A    between atoms: O1_1  and  C1_2 
REMARK    2  A    between atoms: C4_5  and  C5_6 
REMARK    3  A    between atoms: N1_7  and  N2_9 
REMARK    4  A    between atoms: N2_9  and  C6_10 
ROOT
HETATM    1  C6  UNL     1      11.386  35.123  17.803  1.00  0.00     0.706 A 
HETATM    2  N3  UNL     1      10.264  35.742  17.523  1.00  0.00    -0.189 N 
ATOM      3  H3  UNL     1      10.144  36.176  16.608  1.00  0.00     0.184 HD
HETATM    4  C7  UNL     1       9.218  35.816  18.473  1.00  0.00     0.063 A 
HETATM    5  C8  UNL     1       8.042  36.484  18.133  1.00  0.00     0.031 A 
HETATM    6  C9  UNL     1       6.989  36.574  19.048  1.00  0.00     0.002 A 
HETATM    7  C10 UNL     1       7.107  35.996  20.314  1.00  0.00     0.001 A 
HETATM    8  C11 UNL     1       8.276  35.324  20.669  1.00  0.00     0.017 A 
HETATM    9  C12 UNL     1       9.324  35.236  19.751  1.00  0.00     0.038 A 
HETATM   10  C13 UNL     1      10.568  34.561  20.036  1.00  0.00     0.157 A 
HETATM   11  N4  UNL     1      10.986  33.927  21.111  1.00  0.00    -0.283 N 
ATOM     12  H4  UNL     1      10.464  33.800  21.978  1.00  0.00     0.188 HD
HETATM   13  N5  UNL     1      12.258  33.465  20.851  1.00  0.00    -0.293 N 
ATOM     14  H5  UNL     1      12.849  32.935  21.492  1.00  0.00     0.187 HD
HETATM   15  C14 UNL     1      12.573  33.832  19.629  1.00  0.00     0.225 A 
HETATM   16  N6  UNL     1      11.541  34.528  19.068  1.00  0.00    -0.124 N 
ENDROOT
BRANCH   1  17
HETATM   17  N2  UNL     1      12.441  35.025  16.903  1.00  0.00    -0.132 N 
HETATM   18  H5  UNL     1      12.726  34.106  16.583  1.00  0.00     0.205 HD
BRANCH  17  19
HETATM   19  N1  UNL     1      13.116  36.111  16.424  1.00  0.00    -0.297 N 
HETATM   20  C5  UNL     1      13.830  36.763  17.283  1.00  0.00     0.119 C 
ATOM     21  H1  UNL     1      13.062  36.391  15.445  1.00  0.00     0.186 HD
BRANCH  20  22
HETATM   22  C4  UNL     1      14.610  37.956  16.896  1.00  0.00    -0.019 A 
HETATM   23  C3  UNL     1      14.912  38.158  15.544  1.00  0.00     0.015 A 
HETATM   24  C2  UNL     1      15.649  39.279  15.156  1.00  0.00     0.037 A 
HETATM   25  C1  UNL     1      16.076  40.187  16.123  1.00  0.00     0.065 A 
HETATM   26  C16 UNL     1      15.779  39.992  17.468  1.00  0.00     0.037 A 
HETATM   27  C15 UNL     1      15.043  38.873  17.859  1.00  0.00     0.015 A 
BRANCH  25  28
HETATM   28  O1  UNL     1      16.797  41.294  15.788  1.00  0.00    -0.361 OA
HETATM   29  H1  UNL     1      16.932  41.306  14.826  1.00  0.00     0.217 HD
ENDBRANCH  25  28
ENDBRANCH  20  22
ENDBRANCH  17  19
ENDBRANCH   1  17
TORSDOF 4
ENDMDL
MODEL 6
REMARK minimizedAffinity -7.35127306
REMARK  4 active torsions:
REMARK  status: ('A' for Active; 'I' for Inactive)
REMARK    1  A    between atoms: O1_1  and  C1_2 
REMARK    2  A    between atoms: C4_5  and  C5_6 
REMARK    3  A    between atoms: N1_7  and  N2_9 
REMARK    4  A    between atoms: N2_9  and  C6_10 
ROOT
HETATM    1  C6  UNL     1      12.228  52.543  -2.462  1.00  0.00     0.706 A 
HETATM    2  N3  UNL     1      11.878  53.676  -1.903  1.00  0.00    -0.189 N 
ATOM      3  H3  UNL     1      10.891  53.867  -1.726  1.00  0.00     0.184 HD
HETATM    4  C7  UNL     1      12.849  54.639  -1.542  1.00  0.00     0.063 A 
HETATM    5  C8  UNL     1      12.433  55.831  -0.949  1.00  0.00     0.031 A 
HETATM    6  C9  UNL     1      13.368  56.802  -0.579  1.00  0.00     0.002 A 
HETATM    7  C10 UNL     1      14.729  56.587  -0.801  1.00  0.00     0.001 A 
HETATM    8  C11 UNL     1      15.162  55.401  -1.393  1.00  0.00     0.017 A 
HETATM    9  C12 UNL     1      14.224  54.434  -1.760  1.00  0.00     0.038 A 
HETATM   10  C13 UNL     1      14.585  53.180  -2.376  1.00  0.00     0.157 A 
HETATM   11  N4  UNL     1      15.756  52.682  -2.713  1.00  0.00    -0.283 N 
ATOM     12  H4  UNL     1      16.662  53.131  -2.584  1.00  0.00     0.188 HD
HETATM   13  N5  UNL     1      15.534  51.441  -3.271  1.00  0.00    -0.293 N 
ATOM     14  H5  UNL     1      16.246  50.806  -3.630  1.00  0.00     0.187 HD
HETATM   15  C14 UNL     1      14.237  51.224  -3.256  1.00  0.00     0.225 A 
HETATM   16  N6  UNL     1      13.591  52.291  -2.701  1.00  0.00    -0.124 N 
ENDROOT
BRANCH   1  17
HETATM   17  N2  UNL     1      11.309  51.568  -2.835  1.00  0.00    -0.132 N 
HETATM   18  H5  UNL     1      10.480  51.850  -3.346  1.00  0.00     0.205 HD
BRANCH  17  19
HETATM   19  N1  UNL     1      11.468  50.243  -2.546  1.00  0.00    -0.297 N 
HETATM   20  C5  UNL     1      10.665  49.753  -1.658  1.00  0.00     0.119 C 
ATOM     21  H1  UNL     1      12.178  49.673  -3.003  1.00  0.00     0.186 HD
BRANCH  20  22
HETATM   22  C4  UNL     1      10.731  48.333  -1.253  1.00  0.00    -0.019 A 
HETATM   23  C3  UNL     1      11.818  47.559  -1.676  1.00  0.00     0.015 A 
HETATM   24  C2  UNL     1      11.899  46.215  -1.305  1.00  0.00     0.037 A 
HETATM   25  C1  UNL     1      10.894  45.660  -0.516  1.00  0.00     0.065 A 
HETATM   26  C16 UNL     1       9.812  46.424  -0.093  1.00  0.00     0.037 A 
HETATM   27  C15 UNL     1       9.727  47.767  -0.461  1.00  0.00     0.015 A 
BRANCH  25  28
HETATM   28  O1  UNL     1      10.935  44.352  -0.132  1.00  0.00    -0.361 OA
HETATM   29  H1  UNL     1      11.736  43.940  -0.493  1.00  0.00     0.217 HD
ENDBRANCH  25  28
ENDBRANCH  20  22
ENDBRANCH  17  19
ENDBRANCH   1  17
TORSDOF 4
ENDMDL
MODEL 7
REMARK minimizedAffinity -7.31508875
REMARK  4 active torsions:
REMARK  status: ('A' for Active; 'I' for Inactive)
REMARK    1  A    between atoms: O1_1  and  C1_2 
REMARK    2  A    between atoms: C4_5  and  C5_6 
REMARK    3  A    between atoms: N1_7  and  N2_9 
REMARK    4  A    between atoms: N2_9  and  C6_10 
ROOT
HETATM    1  C6  UNL     1      14.860  35.544  15.605  1.00  0.00     0.706 A 
HETATM    2  N3  UNL     1      15.364  35.606  14.396  1.00  0.00    -0.189 N 
ATOM      3  H3  UNL     1      14.794  35.968  13.631  1.00  0.00     0.184 HD
HETATM    4  C7  UNL     1      16.688  35.179  14.137  1.00  0.00     0.063 A 
HETATM    5  C8  UNL     1      17.183  35.262  12.836  1.00  0.00     0.031 A 
HETATM    6  C9  UNL     1      18.487  34.849  12.547  1.00  0.00     0.002 A 
HETATM    7  C10 UNL     1      19.306  34.347  13.561  1.00  0.00     0.001 A 
HETATM    8  C11 UNL     1      18.826  34.257  14.867  1.00  0.00     0.017 A 
HETATM    9  C12 UNL     1      17.523  34.672  15.150  1.00  0.00     0.038 A 
HETATM   10  C13 UNL     1      16.947  34.614  16.472  1.00  0.00     0.157 A 
HETATM   11  N4  UNL     1      17.443  34.202  17.619  1.00  0.00    -0.283 N 
ATOM     12  H4  UNL     1      18.381  33.831  17.772  1.00  0.00     0.188 HD
HETATM   13  N5  UNL     1      16.465  34.363  18.576  1.00  0.00    -0.293 N 
ATOM     14  H5  UNL     1      16.547  34.133  19.567  1.00  0.00     0.187 HD
HETATM   15  C14 UNL     1      15.406  34.867  17.982  1.00  0.00     0.225 A 
HETATM   16  N6  UNL     1      15.656  35.045  16.652  1.00  0.00    -0.124 N 
ENDROOT
BRANCH   1  17
HETATM   17  N2  UNL     1      13.566  35.952  15.906  1.00  0.00    -0.132 N 
HETATM   18  H5  UNL     1      13.167  36.731  15.393  1.00  0.00     0.205 HD
BRANCH  17  19
HETATM   19  N1  UNL     1      12.799  35.353  16.864  1.00  0.00    -0.297 N 
HETATM   20  C5  UNL     1      11.848  36.072  17.367  1.00  0.00     0.119 C 
ATOM     21  H1  UNL     1      12.965  34.394  17.166  1.00  0.00     0.186 HD
BRANCH  20  22
HETATM   22  C4  UNL     1      10.945  35.545  18.410  1.00  0.00    -0.019 A 
HETATM   23  C3  UNL     1      11.440  34.602  19.319  1.00  0.00     0.015 A 
HETATM   24  C2  UNL     1      10.604  34.091  20.314  1.00  0.00     0.037 A 
HETATM   25  C1  UNL     1       9.283  34.526  20.389  1.00  0.00     0.065 A 
HETATM   26  C16 UNL     1       8.785  35.462  19.488  1.00  0.00     0.037 A 
HETATM   27  C15 UNL     1       9.618  35.976  18.494  1.00  0.00     0.015 A 
BRANCH  25  28
HETATM   28  O1  UNL     1       8.433  34.052  21.344  1.00  0.00    -0.361 OA
HETATM   29  H1  UNL     1       8.906  33.412  21.900  1.00  0.00     0.217 HD
ENDBRANCH  25  28
ENDBRANCH  20  22
ENDBRANCH  17  19
ENDBRANCH   1  17
TORSDOF 4
ENDMDL
MODEL 8
REMARK minimizedAffinity -7.30632591
REMARK  4 active torsions:
REMARK  status: ('A' for Active; 'I' for Inactive)
REMARK    1  A    between atoms: O1_1  and  C1_2 
REMARK    2  A    between atoms: C4_5  and  C5_6 
REMARK    3  A    between atoms: N1_7  and  N2_9 
REMARK    4  A    between atoms: N2_9  and  C6_10 
ROOT
HETATM    1  C6  UNL     1      16.823  51.979   5.613  1.00  0.00     0.706 A 
HETATM    2  N3  UNL     1      15.618  52.488   5.531  1.00  0.00    -0.189 N 
ATOM      3  H3  UNL     1      14.823  51.963   5.897  1.00  0.00     0.184 HD
HETATM    4  C7  UNL     1      15.404  53.757   4.942  1.00  0.00     0.063 A 
HETATM    5  C8  UNL     1      14.105  54.261   4.876  1.00  0.00     0.031 A 
HETATM    6  C9  UNL     1      13.860  55.512   4.301  1.00  0.00     0.002 A 
HETATM    7  C10 UNL     1      14.915  56.268   3.787  1.00  0.00     0.001 A 
HETATM    8  C11 UNL     1      16.219  55.778   3.846  1.00  0.00     0.017 A 
HETATM    9  C12 UNL     1      16.459  54.529   4.421  1.00  0.00     0.038 A 
HETATM   10  C13 UNL     1      17.776  53.947   4.523  1.00  0.00     0.157 A 
HETATM   11  N4  UNL     1      18.955  54.393   4.143  1.00  0.00    -0.283 N 
ATOM     12  H4  UNL     1      19.143  55.284   3.683  1.00  0.00     0.188 HD
HETATM   13  N5  UNL     1      19.888  53.436   4.480  1.00  0.00    -0.293 N 
ATOM     14  H5  UNL     1      20.893  53.491   4.315  1.00  0.00     0.187 HD
HETATM   15  C14 UNL     1      19.249  52.441   5.053  1.00  0.00     0.225 A 
HETATM   16  N6  UNL     1      17.911  52.712   5.106  1.00  0.00    -0.124 N 
ENDROOT
BRANCH   1  17
HETATM   17  N2  UNL     1      17.082  50.736   6.182  1.00  0.00    -0.132 N 
HETATM   18  H5  UNL     1      17.626  50.695   7.036  1.00  0.00     0.205 HD
BRANCH  17  19
HETATM   19  N1  UNL     1      16.638  49.562   5.644  1.00  0.00    -0.297 N 
HETATM   20  C5  UNL     1      17.257  49.148   4.587  1.00  0.00     0.119 C 
ATOM     21  H1  UNL     1      15.862  49.042   6.053  1.00  0.00     0.186 HD
BRANCH  20  22
HETATM   22  C4  UNL     1      16.877  47.892   3.908  1.00  0.00    -0.019 A 
HETATM   23  C3  UNL     1      17.856  47.181   3.204  1.00  0.00     0.015 A 
HETATM   24  C2  UNL     1      17.518  45.992   2.554  1.00  0.00     0.037 A 
HETATM   25  C1  UNL     1      16.206  45.527   2.615  1.00  0.00     0.065 A 
HETATM   26  C16 UNL     1      15.229  46.229   3.313  1.00  0.00     0.037 A 
HETATM   27  C15 UNL     1      15.563  47.417   3.964  1.00  0.00     0.015 A 
BRANCH  25  28
HETATM   28  O1  UNL     1      15.833  44.371   1.995  1.00  0.00    -0.361 OA
HETATM   29  H1  UNL     1      16.606  43.987   1.549  1.00  0.00     0.217 HD
ENDBRANCH  25  28
ENDBRANCH  20  22
ENDBRANCH  17  19
ENDBRANCH   1  17
TORSDOF 4
ENDMDL
MODEL 9
REMARK minimizedAffinity -7.30514526
REMARK  4 active torsions:
REMARK  status: ('A' for Active; 'I' for Inactive)
REMARK    1  A    between atoms: O1_1  and  C1_2 
REMARK    2  A    between atoms: C4_5  and  C5_6 
REMARK    3  A    between atoms: N1_7  and  N2_9 
REMARK    4  A    between atoms: N2_9  and  C6_10 
ROOT
HETATM    1  C6  UNL     1      17.107  47.383   4.867  1.00  0.00     0.706 A 
HETATM    2  N3  UNL     1      18.359  46.996   4.806  1.00  0.00    -0.189 N 
ATOM      3  H3  UNL     1      18.984  47.420   4.120  1.00  0.00     0.184 HD
HETATM    4  C7  UNL     1      18.855  46.000   5.680  1.00  0.00     0.063 A 
HETATM    5  C8  UNL     1      20.193  45.619   5.581  1.00  0.00     0.031 A 
HETATM    6  C9  UNL     1      20.714  44.638   6.430  1.00  0.00     0.002 A 
HETATM    7  C10 UNL     1      19.898  44.029   7.385  1.00  0.00     0.001 A 
HETATM    8  C11 UNL     1      18.558  44.398   7.497  1.00  0.00     0.017 A 
HETATM    9  C12 UNL     1      18.042  45.380   6.647  1.00  0.00     0.038 A 
HETATM   10  C13 UNL     1      16.669  45.821   6.694  1.00  0.00     0.157 A 
HETATM   11  N4  UNL     1      15.664  45.456   7.462  1.00  0.00    -0.283 N 
ATOM     12  H4  UNL     1      15.694  44.752   8.200  1.00  0.00     0.188 HD
HETATM   13  N5  UNL     1      14.565  46.197   7.087  1.00  0.00    -0.293 N 
ATOM     14  H5  UNL     1      13.633  46.142   7.497  1.00  0.00     0.187 HD
HETATM   15  C14 UNL     1      14.935  46.989   6.105  1.00  0.00     0.225 A 
HETATM   16  N6  UNL     1      16.255  46.792   5.817  1.00  0.00    -0.124 N 
ENDROOT
BRANCH   1  17
HETATM   17  N2  UNL     1      16.576  48.357   4.029  1.00  0.00    -0.132 N 
HETATM   18  H5  UNL     1      16.138  48.068   3.161  1.00  0.00     0.205 HD
BRANCH  17  19
HETATM   19  N1  UNL     1      16.613  49.691   4.319  1.00  0.00    -0.297 N 
HETATM   20  C5  UNL     1      17.468  50.057   5.218  1.00  0.00     0.119 C 
ATOM     21  H1  UNL     1      16.002  50.361   3.853  1.00  0.00     0.186 HD
BRANCH  20  22
HETATM   22  C4  UNL     1      17.610  51.470   5.624  1.00  0.00    -0.019 A 
HETATM   23  C3  UNL     1      16.726  52.418   5.094  1.00  0.00     0.015 A 
HETATM   24  C2  UNL     1      16.843  53.759   5.465  1.00  0.00     0.037 A 
HETATM   25  C1  UNL     1      17.841  54.139   6.359  1.00  0.00     0.065 A 
HETATM   26  C16 UNL     1      18.722  53.202   6.889  1.00  0.00     0.037 A 
HETATM   27  C15 UNL     1      18.608  51.860   6.522  1.00  0.00     0.015 A 
BRANCH  25  28
HETATM   28  O1  UNL     1      17.990  55.437   6.747  1.00  0.00    -0.361 OA
HETATM   29  H1  UNL     1      17.316  55.980   6.305  1.00  0.00     0.217 HD
ENDBRANCH  25  28
ENDBRANCH  20  22
ENDBRANCH  17  19
ENDBRANCH   1  17
TORSDOF 4
ENDMDL
