MODEL 1
REMARK minimizedAffinity -7.8866291
REMARK  5 active torsions:
REMARK  status: ('A' for Active; 'I' for Inactive)
REMARK    1  A    between atoms: C3_4  and  N1_5 
REMARK    2  A    between atoms: N1_5  and  C4_6 
REMARK    3  A    between atoms: C15_24  and  O1_25 
REMARK    4  A    between atoms: O1_25  and  C16_26 
REMARK    5  A    between atoms: C16_26  and  C17_27 
ROOT
HETATM    1  N1  UNL     1      12.366  35.820  17.941  1.00  0.00    -0.342 N 
HETATM    2  H2  UNL     1      11.716  36.582  17.821  1.00  0.00     0.167 HD
ENDROOT
BRANCH   1   3
HETATM    3  C3  UNL     1      13.593  35.999  17.279  1.00  0.00     0.035 A 
HETATM    4  C2  UNL     1      14.666  35.111  17.386  1.00  0.00     0.056 A 
HETATM    5  C1  UNL     1      15.860  35.334  16.687  1.00  0.00     0.069 A 
HETATM    6 CL1  UNL     1      17.137  34.180  16.884  1.00  0.00    -0.081 Cl
HETATM    7  C15 UNL     1      16.012  36.450  15.853  1.00  0.00     0.091 A 
HETATM    8  C14 UNL     1      14.940  37.333  15.729  1.00  0.00     0.041 A 
HETATM    9  C13 UNL     1      13.747  37.104  16.429  1.00  0.00     0.032 A 
BRANCH   7  10
HETATM   10  O1  UNL     1      17.214  36.586  15.212  1.00  0.00    -0.345 OA
BRANCH  10  11
HETATM   11  C16 UNL     1      17.214  36.612  13.788  1.00  0.00     0.214 C 
BRANCH  11  12
HETATM   12  C17 UNL     1      17.335  35.193  13.291  1.00  0.00    -0.034 A 
HETATM   13  C18 UNL     1      18.478  34.434  13.580  1.00  0.00     0.009 A 
HETATM   14  C19 UNL     1      18.595  33.124  13.108  1.00  0.00     0.001 A 
HETATM   15  C20 UNL     1      17.578  32.567  12.336  1.00  0.00     0.000 A 
HETATM   16  C21 UNL     1      16.444  33.318  12.030  1.00  0.00     0.001 A 
HETATM   17  C22 UNL     1      16.325  34.627  12.500  1.00  0.00     0.009 A 
ENDBRANCH  11  12
ENDBRANCH  10  11
ENDBRANCH   7  10
ENDBRANCH   1   3
BRANCH   1  18
HETATM   18  C4  UNL     1      11.999  34.968  18.990  1.00  0.00     0.123 A 
HETATM   19  N2  UNL     1      12.896  34.141  19.606  1.00  0.00    -0.338 N 
HETATM   20  C5  UNL     1      12.518  33.383  20.680  1.00  0.00     0.183 A 
ATOM     21  H2  UNL     1      13.856  34.088  19.262  1.00  0.00     0.168 HD
HETATM   22  N3  UNL     1      11.320  33.294  21.300  1.00  0.00    -0.337 N 
HETATM   23  C6  UNL     1      10.406  34.090  20.700  1.00  0.00     0.137 A 
ATOM     24  H3  UNL     1      11.132  32.707  22.113  1.00  0.00     0.168 HD
HETATM   25  N4  UNL     1       9.136  34.224  21.071  1.00  0.00    -0.278 N 
HETATM   26  C12 UNL     1      10.725  34.897  19.576  1.00  0.00     0.082 A 
HETATM   27  N5  UNL     1       8.605  35.093  20.179  1.00  0.00    -0.265 N 
ATOM     28  H4  UNL     1       8.665  33.772  21.855  1.00  0.00     0.189 HD
HETATM   29  C7  UNL     1       7.286  35.553  20.171  1.00  0.00     0.116 A 
HETATM   30  C11 UNL     1       9.546  35.509  19.217  1.00  0.00     0.073 A 
HETATM   31  C8  UNL     1       6.866  36.399  19.218  1.00  0.00     0.019 A 
HETATM   32  C9  UNL     1       7.802  36.802  18.186  1.00  0.00     0.004 A 
HETATM   33  C10 UNL     1       9.078  36.375  18.181  1.00  0.00     0.032 A 
ENDBRANCH   1  18
TORSDOF 5
ENDMDL
MODEL 2
REMARK minimizedAffinity -7.82932615
REMARK  5 active torsions:
REMARK  status: ('A' for Active; 'I' for Inactive)
REMARK    1  A    between atoms: C3_4  and  N1_5 
REMARK    2  A    between atoms: N1_5  and  C4_6 
REMARK    3  A    between atoms: C15_24  and  O1_25 
REMARK    4  A    between atoms: O1_25  and  C16_26 
REMARK    5  A    between atoms: C16_26  and  C17_27 
ROOT
HETATM    1  N1  UNL     1      13.403  35.143  16.899  1.00  0.00    -0.342 N 
HETATM    2  H2  UNL     1      12.600  34.929  16.327  1.00  0.00     0.167 HD
ENDROOT
BRANCH   1   3
HETATM    3  C3  UNL     1      14.294  36.065  16.322  1.00  0.00     0.035 A 
HETATM    4  C2  UNL     1      15.489  35.701  15.699  1.00  0.00     0.056 A 
HETATM    5  C1  UNL     1      16.328  36.665  15.126  1.00  0.00     0.069 A 
HETATM    6 CL1  UNL     1      17.792  36.119  14.378  1.00  0.00    -0.081 Cl
HETATM    7  C15 UNL     1      15.990  38.025  15.152  1.00  0.00     0.091 A 
HETATM    8  C14 UNL     1      14.790  38.397  15.759  1.00  0.00     0.041 A 
HETATM    9  C13 UNL     1      13.954  37.426  16.329  1.00  0.00     0.032 A 
BRANCH   7  10
HETATM   10  O1  UNL     1      16.872  38.896  14.568  1.00  0.00    -0.345 OA
BRANCH  10  11
HETATM   11  C16 UNL     1      16.355  39.863  13.660  1.00  0.00     0.214 C 
BRANCH  11  12
HETATM   12  C17 UNL     1      16.710  41.234  14.179  1.00  0.00    -0.034 A 
HETATM   13  C18 UNL     1      16.512  41.557  15.530  1.00  0.00     0.009 A 
HETATM   14  C19 UNL     1      16.830  42.830  16.006  1.00  0.00     0.001 A 
HETATM   15  C20 UNL     1      17.336  43.795  15.137  1.00  0.00     0.000 A 
HETATM   16  C21 UNL     1      17.522  43.489  13.789  1.00  0.00     0.001 A 
HETATM   17  C22 UNL     1      17.206  42.217  13.311  1.00  0.00     0.009 A 
ENDBRANCH  11  12
ENDBRANCH  10  11
ENDBRANCH   7  10
ENDBRANCH   1   3
BRANCH   1  18
HETATM   18  C4  UNL     1      13.238  34.728  18.226  1.00  0.00     0.123 A 
HETATM   19  N2  UNL     1      14.266  34.211  18.963  1.00  0.00    -0.338 N 
HETATM   20  C5  UNL     1      14.085  33.892  20.281  1.00  0.00     0.183 A 
ATOM     21  H2  UNL     1      15.177  34.062  18.526  1.00  0.00     0.168 HD
HETATM   22  N3  UNL     1      12.985  34.007  21.057  1.00  0.00    -0.337 N 
HETATM   23  C6  UNL     1      11.943  34.499  20.349  1.00  0.00     0.137 A 
ATOM     24  H3  UNL     1      12.945  33.755  22.045  1.00  0.00     0.168 HD
HETATM   25  N4  UNL     1      10.723  34.727  20.826  1.00  0.00    -0.278 N 
HETATM   26  C12 UNL     1      12.056  34.844  18.976  1.00  0.00     0.082 A 
HETATM   27  N5  UNL     1      10.019  35.191  19.767  1.00  0.00    -0.265 N 
ATOM     28  H4  UNL     1      10.390  34.583  21.779  1.00  0.00     0.189 HD
HETATM   29  C7  UNL     1       8.677  35.579  19.784  1.00  0.00     0.116 A 
HETATM   30  C11 UNL     1      10.797  35.248  18.594  1.00  0.00     0.073 A 
HETATM   31  C8  UNL     1       8.077  36.003  18.661  1.00  0.00     0.019 A 
HETATM   32  C9  UNL     1       8.842  36.023  17.429  1.00  0.00     0.004 A 
HETATM   33  C10 UNL     1      10.138  35.658  17.394  1.00  0.00     0.032 A 
ENDBRANCH   1  18
TORSDOF 5
ENDMDL
MODEL 3
REMARK minimizedAffinity -7.75296783
REMARK  5 active torsions:
REMARK  status: ('A' for Active; 'I' for Inactive)
REMARK    1  A    between atoms: C3_4  and  N1_5 
REMARK    2  A    between atoms: N1_5  and  C4_6 
REMARK    3  A    between atoms: C15_24  and  O1_25 
REMARK    4  A    between atoms: O1_25  and  C16_26 
REMARK    5  A    between atoms: C16_26  and  C17_27 
ROOT
HETATM    1  N1  UNL     1      12.523  36.883  19.534  1.00  0.00    -0.342 N 
HETATM    2  H2  UNL     1      12.231  37.811  19.266  1.00  0.00     0.167 HD
ENDROOT
BRANCH   1   3
HETATM    3  C3  UNL     1      13.622  36.390  18.810  1.00  0.00     0.035 A 
HETATM    4  C2  UNL     1      14.866  36.117  19.381  1.00  0.00     0.056 A 
HETATM    5  C1  UNL     1      15.920  35.610  18.610  1.00  0.00     0.069 A 
HETATM    6 CL1  UNL     1      17.428  35.305  19.406  1.00  0.00    -0.081 Cl
HETATM    7  C15 UNL     1      15.755  35.352  17.243  1.00  0.00     0.091 A 
HETATM    8  C14 UNL     1      14.511  35.606  16.666  1.00  0.00     0.041 A 
HETATM    9  C13 UNL     1      13.460  36.113  17.444  1.00  0.00     0.032 A 
BRANCH   7  10
HETATM   10  O1  UNL     1      16.841  34.858  16.569  1.00  0.00    -0.345 OA
BRANCH  10  11
HETATM   11  C16 UNL     1      17.342  35.606  15.467  1.00  0.00     0.214 C 
BRANCH  11  12
HETATM   12  C17 UNL     1      17.235  34.752  14.229  1.00  0.00    -0.034 A 
HETATM   13  C18 UNL     1      18.179  33.746  13.974  1.00  0.00     0.009 A 
HETATM   14  C19 UNL     1      18.085  32.964  12.822  1.00  0.00     0.001 A 
HETATM   15  C20 UNL     1      17.056  33.185  11.909  1.00  0.00     0.000 A 
HETATM   16  C21 UNL     1      16.121  34.192  12.144  1.00  0.00     0.001 A 
HETATM   17  C22 UNL     1      16.212  34.975  13.295  1.00  0.00     0.009 A 
ENDBRANCH  11  12
ENDBRANCH  10  11
ENDBRANCH   7  10
ENDBRANCH   1   3
BRANCH   1  18
HETATM   18  C4  UNL     1      11.975  36.488  20.761  1.00  0.00     0.123 A 
HETATM   19  N2  UNL     1      12.735  36.342  21.887  1.00  0.00    -0.338 N 
HETATM   20  C5  UNL     1      12.151  36.034  23.085  1.00  0.00     0.183 A 
ATOM     21  H2  UNL     1      13.747  36.464  21.835  1.00  0.00     0.168 HD
HETATM   22  N3  UNL     1      10.848  35.833  23.388  1.00  0.00    -0.337 N 
HETATM   23  C6  UNL     1      10.072  35.953  22.288  1.00  0.00     0.137 A 
ATOM     24  H3  UNL     1      10.499  35.619  24.323  1.00  0.00     0.168 HD
HETATM   25  N4  UNL     1       8.751  35.811  22.255  1.00  0.00    -0.278 N 
HETATM   26  C12 UNL     1      10.611  36.262  21.010  1.00  0.00     0.082 A 
HETATM   27  N5  UNL     1       8.415  35.994  20.956  1.00  0.00    -0.265 N 
ATOM     28  H4  UNL     1       8.126  35.608  23.036  1.00  0.00     0.189 HD
HETATM   29  C7  UNL     1       7.121  35.950  20.431  1.00  0.00     0.116 A 
HETATM   30  C11 UNL     1       9.540  36.244  20.146  1.00  0.00     0.073 A 
HETATM   31  C8  UNL     1       6.914  36.124  19.118  1.00  0.00     0.019 A 
HETATM   32  C9  UNL     1       8.060  36.332  18.254  1.00  0.00     0.004 A 
HETATM   33  C10 UNL     1       9.314  36.384  18.742  1.00  0.00     0.032 A 
ENDBRANCH   1  18
TORSDOF 5
ENDMDL
MODEL 4
REMARK minimizedAffinity -7.68909407
REMARK  5 active torsions:
REMARK  status: ('A' for Active; 'I' for Inactive)
REMARK    1  A    between atoms: C3_4  and  N1_5 
REMARK    2  A    between atoms: N1_5  and  C4_6 
REMARK    3  A    between atoms: C15_24  and  O1_25 
REMARK    4  A    between atoms: O1_25  and  C16_26 
REMARK    5  A    between atoms: C16_26  and  C17_27 
ROOT
HETATM    1  N1  UNL     1      11.718  34.700  19.003  1.00  0.00    -0.342 N 
HETATM    2  H2  UNL     1      11.699  33.795  19.447  1.00  0.00     0.167 HD
ENDROOT
BRANCH   1   3
HETATM    3  C3  UNL     1      12.940  35.015  18.383  1.00  0.00     0.035 A 
HETATM    4  C2  UNL     1      13.243  36.276  17.865  1.00  0.00     0.056 A 
HETATM    5  C1  UNL     1      14.486  36.535  17.274  1.00  0.00     0.069 A 
HETATM    6 CL1  UNL     1      14.770  38.128  16.656  1.00  0.00    -0.081 Cl
HETATM    7  C15 UNL     1      15.469  35.538  17.192  1.00  0.00     0.091 A 
HETATM    8  C14 UNL     1      15.181  34.280  17.721  1.00  0.00     0.041 A 
HETATM    9  C13 UNL     1      13.935  34.029  18.313  1.00  0.00     0.032 A 
BRANCH   7  10
HETATM   10  O1  UNL     1      16.653  35.882  16.596  1.00  0.00    -0.345 OA
BRANCH  10  11
HETATM   11  C16 UNL     1      16.614  36.360  15.256  1.00  0.00     0.214 C 
BRANCH  11  12
HETATM   12  C17 UNL     1      17.046  35.240  14.343  1.00  0.00    -0.034 A 
HETATM   13  C18 UNL     1      18.199  34.494  14.629  1.00  0.00     0.009 A 
HETATM   14  C19 UNL     1      18.605  33.465  13.776  1.00  0.00     0.001 A 
HETATM   15  C20 UNL     1      17.871  33.180  12.626  1.00  0.00     0.000 A 
HETATM   16  C21 UNL     1      16.732  33.925  12.324  1.00  0.00     0.001 A 
HETATM   17  C22 UNL     1      16.324  34.954  13.175  1.00  0.00     0.009 A 
ENDBRANCH  11  12
ENDBRANCH  10  11
ENDBRANCH   7  10
ENDBRANCH   1   3
BRANCH   1  18
HETATM   18  C4  UNL     1      10.436  35.240  18.840  1.00  0.00     0.123 A 
HETATM   19  N2  UNL     1       9.934  35.573  17.614  1.00  0.00    -0.338 N 
HETATM   20  C5  UNL     1       8.648  36.021  17.487  1.00  0.00     0.183 A 
ATOM     21  H2  UNL     1      10.524  35.487  16.785  1.00  0.00     0.168 HD
HETATM   22  N3  UNL     1       7.698  36.208  18.431  1.00  0.00    -0.337 N 
HETATM   23  C6  UNL     1       8.172  35.903  19.660  1.00  0.00     0.137 A 
ATOM     24  H3  UNL     1       6.751  36.535  18.241  1.00  0.00     0.168 HD
HETATM   25  N4  UNL     1       7.485  35.984  20.796  1.00  0.00    -0.278 N 
HETATM   26  C12 UNL     1       9.499  35.441  19.868  1.00  0.00     0.082 A 
HETATM   27  N5  UNL     1       8.361  35.607  21.757  1.00  0.00    -0.265 N 
ATOM     28  H4  UNL     1       6.513  36.267  20.916  1.00  0.00     0.189 HD
HETATM   29  C7  UNL     1       8.087  35.523  23.125  1.00  0.00     0.116 A 
HETATM   30  C11 UNL     1       9.629  35.294  21.230  1.00  0.00     0.073 A 
HETATM   31  C8  UNL     1       9.046  35.158  23.989  1.00  0.00     0.019 A 
HETATM   32  C9  UNL     1      10.374  34.880  23.477  1.00  0.00     0.004 A 
HETATM   33  C10 UNL     1      10.655  34.949  22.162  1.00  0.00     0.032 A 
ENDBRANCH   1  18
TORSDOF 5
ENDMDL
MODEL 5
REMARK minimizedAffinity -7.57804918
REMARK  5 active torsions:
REMARK  status: ('A' for Active; 'I' for Inactive)
REMARK    1  A    between atoms: C3_4  and  N1_5 
REMARK    2  A    between atoms: N1_5  and  C4_6 
REMARK    3  A    between atoms: C15_24  and  O1_25 
REMARK    4  A    between atoms: O1_25  and  C16_26 
REMARK    5  A    between atoms: C16_26  and  C17_27 
ROOT
HETATM    1  N1  UNL     1      16.819  35.249  16.975  1.00  0.00    -0.342 N 
HETATM    2  H2  UNL     1      17.347  35.851  17.589  1.00  0.00     0.167 HD
ENDROOT
BRANCH   1   3
HETATM    3  C3  UNL     1      15.494  35.022  17.386  1.00  0.00     0.035 A 
HETATM    4  C2  UNL     1      14.386  35.636  16.800  1.00  0.00     0.056 A 
HETATM    5  C1  UNL     1      13.086  35.355  17.242  1.00  0.00     0.069 A 
HETATM    6 CL1  UNL     1      11.774  36.168  16.456  1.00  0.00    -0.081 Cl
HETATM    7  C15 UNL     1      12.858  34.444  18.281  1.00  0.00     0.091 A 
HETATM    8  C14 UNL     1      13.958  33.814  18.863  1.00  0.00     0.041 A 
HETATM    9  C13 UNL     1      15.256  34.098  18.414  1.00  0.00     0.032 A 
BRANCH   7  10
HETATM   10  O1  UNL     1      11.555  34.233  18.647  1.00  0.00    -0.345 OA
BRANCH  10  11
HETATM   11  C16 UNL     1      11.114  34.772  19.890  1.00  0.00     0.214 C 
BRANCH  11  12
HETATM   12  C17 UNL     1       9.679  35.210  19.731  1.00  0.00    -0.034 A 
HETATM   13  C18 UNL     1       8.663  34.602  20.482  1.00  0.00     0.009 A 
HETATM   14  C19 UNL     1       7.334  35.001  20.326  1.00  0.00     0.001 A 
HETATM   15  C20 UNL     1       7.007  36.000  19.411  1.00  0.00     0.000 A 
HETATM   16  C21 UNL     1       8.008  36.600  18.648  1.00  0.00     0.001 A 
HETATM   17  C22 UNL     1       9.337  36.204  18.803  1.00  0.00     0.009 A 
ENDBRANCH  11  12
ENDBRANCH  10  11
ENDBRANCH   7  10
ENDBRANCH   1   3
BRANCH   1  18
HETATM   18  C4  UNL     1      17.440  35.083  15.730  1.00  0.00     0.123 A 
HETATM   19  N2  UNL     1      18.048  33.914  15.368  1.00  0.00    -0.338 N 
HETATM   20  C5  UNL     1      18.572  33.763  14.113  1.00  0.00     0.183 A 
ATOM     21  H2  UNL     1      18.112  33.148  16.038  1.00  0.00     0.168 HD
HETATM   22  N3  UNL     1      18.598  34.629  13.075  1.00  0.00    -0.337 N 
HETATM   23  C6  UNL     1      18.018  35.803  13.410  1.00  0.00     0.137 A 
ATOM     24  H3  UNL     1      19.002  34.423  12.161  1.00  0.00     0.168 HD
HETATM   25  N4  UNL     1      17.888  36.858  12.610  1.00  0.00    -0.278 N 
HETATM   26  C12 UNL     1      17.462  36.034  14.697  1.00  0.00     0.082 A 
HETATM   27  N5  UNL     1      17.276  37.796  13.371  1.00  0.00    -0.265 N 
ATOM     28  H4  UNL     1      18.184  36.942  11.638  1.00  0.00     0.189 HD
HETATM   29  C7  UNL     1      16.917  39.080  12.954  1.00  0.00     0.116 A 
HETATM   30  C11 UNL     1      17.023  37.339  14.679  1.00  0.00     0.073 A 
HETATM   31  C8  UNL     1      16.333  39.934  13.808  1.00  0.00     0.019 A 
HETATM   32  C9  UNL     1      16.109  39.505  15.175  1.00  0.00     0.004 A 
HETATM   33  C10 UNL     1      16.442  38.270  15.594  1.00  0.00     0.032 A 
ENDBRANCH   1  18
TORSDOF 5
ENDMDL
MODEL 6
REMARK minimizedAffinity -7.56259966
REMARK  5 active torsions:
REMARK  status: ('A' for Active; 'I' for Inactive)
REMARK    1  A    between atoms: C3_4  and  N1_5 
REMARK    2  A    between atoms: N1_5  and  C4_6 
REMARK    3  A    between atoms: C15_24  and  O1_25 
REMARK    4  A    between atoms: O1_25  and  C16_26 
REMARK    5  A    between atoms: C16_26  and  C17_27 
ROOT
HETATM    1  N1  UNL     1      16.411  51.545   5.547  1.00  0.00    -0.342 N 
HETATM    2  H2  UNL     1      15.611  50.933   5.488  1.00  0.00     0.167 HD
ENDROOT
BRANCH   1   3
HETATM    3  C3  UNL     1      16.140  52.883   5.209  1.00  0.00     0.035 A 
HETATM    4  C2  UNL     1      17.112  53.779   4.760  1.00  0.00     0.056 A 
HETATM    5  C1  UNL     1      16.779  55.097   4.421  1.00  0.00     0.069 A 
HETATM    6 CL1  UNL     1      18.052  56.138   3.877  1.00  0.00    -0.081 Cl
HETATM    7  C15 UNL     1      15.457  55.554   4.514  1.00  0.00     0.091 A 
HETATM    8  C14 UNL     1      14.477  54.661   4.947  1.00  0.00     0.041 A 
HETATM    9  C13 UNL     1      14.818  53.343   5.283  1.00  0.00     0.032 A 
BRANCH   7  10
HETATM   10  O1  UNL     1      15.225  56.858   4.163  1.00  0.00    -0.345 OA
BRANCH  10  11
HETATM   11  C16 UNL     1      13.873  57.286   4.036  1.00  0.00     0.214 C 
BRANCH  11  12
HETATM   12  C17 UNL     1      13.578  57.487   2.571  1.00  0.00    -0.034 A 
HETATM   13  C18 UNL     1      13.572  56.396   1.690  1.00  0.00     0.009 A 
HETATM   14  C19 UNL     1      13.310  56.586   0.332  1.00  0.00     0.001 A 
HETATM   15  C20 UNL     1      13.063  57.866  -0.160  1.00  0.00     0.000 A 
HETATM   16  C21 UNL     1      13.082  58.960   0.704  1.00  0.00     0.001 A 
HETATM   17  C22 UNL     1      13.343  58.773   2.062  1.00  0.00     0.009 A 
ENDBRANCH  11  12
ENDBRANCH  10  11
ENDBRANCH   7  10
ENDBRANCH   1   3
BRANCH   1  18
HETATM   18  C4  UNL     1      17.470  50.970   6.260  1.00  0.00     0.123 A 
HETATM   19  N2  UNL     1      18.267  51.700   7.097  1.00  0.00    -0.338 N 
HETATM   20  C5  UNL     1      19.240  51.087   7.839  1.00  0.00     0.183 A 
ATOM     21  H2  UNL     1      18.137  52.709   7.168  1.00  0.00     0.168 HD
HETATM   22  N3  UNL     1      19.586  49.782   7.906  1.00  0.00    -0.337 N 
HETATM   23  C6  UNL     1      18.824  49.037   7.074  1.00  0.00     0.137 A 
ATOM     24  H3  UNL     1      20.323  49.410   8.505  1.00  0.00     0.168 HD
HETATM   25  N4  UNL     1      18.919  47.721   6.910  1.00  0.00    -0.278 N 
HETATM   26  C12 UNL     1      17.802  49.606   6.268  1.00  0.00     0.082 A 
HETATM   27  N5  UNL     1      17.986  47.420   5.976  1.00  0.00    -0.265 N 
ATOM     28  H4  UNL     1      19.554  47.078   7.384  1.00  0.00     0.189 HD
HETATM   29  C7  UNL     1      17.705  46.144   5.482  1.00  0.00     0.116 A 
HETATM   30  C11 UNL     1      17.294  48.563   5.528  1.00  0.00     0.073 A 
HETATM   31  C8  UNL     1      16.769  45.972   4.536  1.00  0.00     0.019 A 
HETATM   32  C9  UNL     1      16.079  47.139   4.021  1.00  0.00     0.004 A 
HETATM   33  C10 UNL     1      16.331  48.375   4.489  1.00  0.00     0.032 A 
ENDBRANCH   1  18
TORSDOF 5
ENDMDL
MODEL 7
REMARK minimizedAffinity -7.47661781
REMARK  5 active torsions:
REMARK  status: ('A' for Active; 'I' for Inactive)
REMARK    1  A    between atoms: C3_4  and  N1_5 
REMARK    2  A    between atoms: N1_5  and  C4_6 
REMARK    3  A    between atoms: C15_24  and  O1_25 
REMARK    4  A    between atoms: O1_25  and  C16_26 
REMARK    5  A    between atoms: C16_26  and  C17_27 
ROOT
HETATM    1  N1  UNL     1      12.165  34.704  17.699  1.00  0.00    -0.342 N 
HETATM    2  H2  UNL     1      12.100  33.699  17.652  1.00  0.00     0.167 HD
ENDROOT
BRANCH   1   3
HETATM    3  C3  UNL     1      13.369  35.229  17.196  1.00  0.00     0.035 A 
HETATM    4  C2  UNL     1      14.624  34.675  17.457  1.00  0.00     0.056 A 
HETATM    5  C1  UNL     1      15.788  35.233  16.913  1.00  0.00     0.069 A 
HETATM    6 CL1  UNL     1      17.300  34.479  17.295  1.00  0.00    -0.081 Cl
HETATM    7  C15 UNL     1      15.728  36.361  16.083  1.00  0.00     0.091 A 
HETATM    8  C14 UNL     1      14.478  36.912  15.804  1.00  0.00     0.041 A 
HETATM    9  C13 UNL     1      13.317  36.347  16.351  1.00  0.00     0.032 A 
BRANCH   7  10
HETATM   10  O1  UNL     1      16.917  36.838  15.599  1.00  0.00    -0.345 OA
BRANCH  10  11
HETATM   11  C16 UNL     1      17.066  36.952  14.187  1.00  0.00     0.214 C 
BRANCH  11  12
HETATM   12  C17 UNL     1      17.313  35.574  13.627  1.00  0.00    -0.034 A 
HETATM   13  C18 UNL     1      16.376  34.975  12.772  1.00  0.00     0.009 A 
HETATM   14  C19 UNL     1      16.600  33.694  12.263  1.00  0.00     0.001 A 
HETATM   15  C20 UNL     1      17.754  32.996  12.611  1.00  0.00     0.000 A 
HETATM   16  C21 UNL     1      18.685  33.575  13.472  1.00  0.00     0.001 A 
HETATM   17  C22 UNL     1      18.464  34.856  13.982  1.00  0.00     0.009 A 
ENDBRANCH  11  12
ENDBRANCH  10  11
ENDBRANCH   7  10
ENDBRANCH   1   3
BRANCH   1  18
HETATM   18  C4  UNL     1      10.924  35.308  17.936  1.00  0.00     0.123 A 
HETATM   19  N2  UNL     1      10.021  35.536  16.936  1.00  0.00    -0.338 N 
HETATM   20  C5  UNL     1       8.786  36.053  17.219  1.00  0.00     0.183 A 
ATOM     21  H2  UNL     1      10.269  35.319  15.970  1.00  0.00     0.168 HD
HETATM   22  N3  UNL     1       8.247  36.407  18.407  1.00  0.00    -0.337 N 
HETATM   23  C6  UNL     1       9.126  36.209  19.415  1.00  0.00     0.137 A 
ATOM     24  H3  UNL     1       7.302  36.774  18.527  1.00  0.00     0.168 HD
HETATM   25  N4  UNL     1       8.897  36.461  20.701  1.00  0.00    -0.278 N 
HETATM   26  C12 UNL     1      10.427  35.684  19.194  1.00  0.00     0.082 A 
HETATM   27  N5  UNL     1      10.052  36.135  21.328  1.00  0.00    -0.265 N 
ATOM     28  H4  UNL     1       8.041  36.821  21.122  1.00  0.00     0.189 HD
HETATM   29  C7  UNL     1      10.290  36.222  22.702  1.00  0.00     0.116 A 
HETATM   30  C11 UNL     1      11.037  35.680  20.428  1.00  0.00     0.073 A 
HETATM   31  C8  UNL     1      11.488  35.891  23.207  1.00  0.00     0.019 A 
HETATM   32  C9  UNL     1      12.534  35.469  22.296  1.00  0.00     0.004 A 
HETATM   33  C10 UNL     1      12.322  35.372  20.970  1.00  0.00     0.032 A 
ENDBRANCH   1  18
TORSDOF 5
ENDMDL
MODEL 8
REMARK minimizedAffinity -7.46717644
REMARK  5 active torsions:
REMARK  status: ('A' for Active; 'I' for Inactive)
REMARK    1  A    between atoms: C3_4  and  N1_5 
REMARK    2  A    between atoms: N1_5  and  C4_6 
REMARK    3  A    between atoms: C15_24  and  O1_25 
REMARK    4  A    between atoms: O1_25  and  C16_26 
REMARK    5  A    between atoms: C16_26  and  C17_27 
ROOT
HETATM    1  N1  UNL     1      16.076  35.784  16.496  1.00  0.00    -0.342 N 
HETATM    2  H2  UNL     1      16.934  35.284  16.674  1.00  0.00     0.167 HD
ENDROOT
BRANCH   1   3
HETATM    3  C3  UNL     1      14.990  35.366  17.284  1.00  0.00     0.035 A 
HETATM    4  C2  UNL     1      15.121  34.859  18.578  1.00  0.00     0.056 A 
HETATM    5  C1  UNL     1      13.998  34.475  19.322  1.00  0.00     0.069 A 
HETATM    6 CL1  UNL     1      14.260  33.853  20.917  1.00  0.00    -0.081 Cl
HETATM    7  C15 UNL     1      12.705  34.597  18.793  1.00  0.00     0.091 A 
HETATM    8  C14 UNL     1      12.563  35.118  17.507  1.00  0.00     0.041 A 
HETATM    9  C13 UNL     1      13.692  35.501  16.769  1.00  0.00     0.032 A 
BRANCH   7  10
HETATM   10  O1  UNL     1      11.668  34.196  19.592  1.00  0.00    -0.345 OA
BRANCH  10  11
HETATM   11  C16 UNL     1      11.068  35.165  20.445  1.00  0.00     0.214 C 
BRANCH  11  12
HETATM   12  C17 UNL     1       9.648  35.384  19.986  1.00  0.00    -0.034 A 
HETATM   13  C18 UNL     1       8.597  34.645  20.546  1.00  0.00     0.009 A 
HETATM   14  C19 UNL     1       7.284  34.840  20.111  1.00  0.00     0.001 A 
HETATM   15  C20 UNL     1       7.012  35.766  19.106  1.00  0.00     0.000 A 
HETATM   16  C21 UNL     1       8.052  36.495  18.531  1.00  0.00     0.001 A 
HETATM   17  C22 UNL     1       9.364  36.302  18.964  1.00  0.00     0.009 A 
ENDBRANCH  11  12
ENDBRANCH  10  11
ENDBRANCH   7  10
ENDBRANCH   1   3
BRANCH   1  18
HETATM   18  C4  UNL     1      16.289  36.960  15.766  1.00  0.00     0.123 A 
HETATM   19  N2  UNL     1      16.110  38.200  16.312  1.00  0.00    -0.338 N 
HETATM   20  C5  UNL     1      16.406  39.325  15.592  1.00  0.00     0.183 A 
ATOM     21  H2  UNL     1      15.753  38.287  17.264  1.00  0.00     0.168 HD
HETATM   22  N3  UNL     1      16.886  39.449  14.335  1.00  0.00    -0.337 N 
HETATM   23  C6  UNL     1      17.057  38.236  13.762  1.00  0.00     0.137 A 
ATOM     24  H3  UNL     1      17.093  40.338  13.880  1.00  0.00     0.168 HD
HETATM   25  N4  UNL     1      17.512  38.020  12.531  1.00  0.00    -0.278 N 
HETATM   26  C12 UNL     1      16.762  37.026  14.445  1.00  0.00     0.082 A 
HETATM   27  N5  UNL     1      17.492  36.674  12.386  1.00  0.00    -0.265 N 
ATOM     28  H4  UNL     1      17.812  38.715  11.847  1.00  0.00     0.189 HD
HETATM   29  C7  UNL     1      17.895  35.967  11.251  1.00  0.00     0.116 A 
HETATM   30  C11 UNL     1      17.003  36.022  13.536  1.00  0.00     0.073 A 
HETATM   31  C8  UNL     1      17.807  34.629  11.215  1.00  0.00     0.019 A 
HETATM   32  C9  UNL     1      17.259  33.938  12.366  1.00  0.00     0.004 A 
HETATM   33  C10 UNL     1      16.871  34.600  13.472  1.00  0.00     0.032 A 
ENDBRANCH   1  18
TORSDOF 5
ENDMDL
MODEL 9
REMARK minimizedAffinity -7.43448305
REMARK  5 active torsions:
REMARK  status: ('A' for Active; 'I' for Inactive)
REMARK    1  A    between atoms: C3_4  and  N1_5 
REMARK    2  A    between atoms: N1_5  and  C4_6 
REMARK    3  A    between atoms: C15_24  and  O1_25 
REMARK    4  A    between atoms: O1_25  and  C16_26 
REMARK    5  A    between atoms: C16_26  and  C17_27 
ROOT
HETATM    1  N1  UNL     1      13.463  57.328   0.035  1.00  0.00    -0.342 N 
HETATM    2  H2  UNL     1      14.045  57.994  -0.450  1.00  0.00     0.167 HD
ENDROOT
BRANCH   1   3
HETATM    3  C3  UNL     1      13.514  57.428   1.436  1.00  0.00     0.035 A 
HETATM    4  C2  UNL     1      13.732  56.339   2.282  1.00  0.00     0.056 A 
HETATM    5  C1  UNL     1      13.790  56.504   3.672  1.00  0.00     0.069 A 
HETATM    6 CL1  UNL     1      14.061  55.094   4.642  1.00  0.00    -0.081 Cl
HETATM    7  C15 UNL     1      13.640  57.769   4.256  1.00  0.00     0.091 A 
HETATM    8  C14 UNL     1      13.438  58.865   3.418  1.00  0.00     0.041 A 
HETATM    9  C13 UNL     1      13.382  58.693   2.027  1.00  0.00     0.032 A 
BRANCH   7  10
HETATM   10  O1  UNL     1      13.711  57.834   5.623  1.00  0.00    -0.345 OA
BRANCH  10  11
HETATM   11  C16 UNL     1      13.910  59.110   6.222  1.00  0.00     0.214 C 
BRANCH  11  12
HETATM   12  C17 UNL     1      12.793  59.348   7.206  1.00  0.00    -0.034 A 
HETATM   13  C18 UNL     1      12.836  58.774   8.485  1.00  0.00     0.009 A 
HETATM   14  C19 UNL     1      11.794  58.986   9.391  1.00  0.00     0.001 A 
HETATM   15  C20 UNL     1      10.697  59.763   9.025  1.00  0.00     0.000 A 
HETATM   16  C21 UNL     1      10.637  60.326   7.751  1.00  0.00     0.001 A 
HETATM   17  C22 UNL     1      11.676  60.116   6.844  1.00  0.00     0.009 A 
ENDBRANCH  11  12
ENDBRANCH  10  11
ENDBRANCH   7  10
ENDBRANCH   1   3
BRANCH   1  18
HETATM   18  C4  UNL     1      12.525  56.725  -0.813  1.00  0.00     0.123 A 
HETATM   19  N2  UNL     1      11.214  57.111  -0.844  1.00  0.00    -0.338 N 
HETATM   20  C5  UNL     1      10.347  56.554  -1.743  1.00  0.00     0.183 A 
ATOM     21  H2  UNL     1      10.880  57.820  -0.191  1.00  0.00     0.168 HD
HETATM   22  N3  UNL     1      10.565  55.615  -2.691  1.00  0.00    -0.337 N 
HETATM   23  C6  UNL     1      11.852  55.200  -2.672  1.00  0.00     0.137 A 
ATOM     24  H3  UNL     1       9.854  55.266  -3.333  1.00  0.00     0.168 HD
HETATM   25  N4  UNL     1      12.380  54.283  -3.478  1.00  0.00    -0.278 N 
HETATM   26  C12 UNL     1      12.805  55.727  -1.761  1.00  0.00     0.082 A 
HETATM   27  N5  UNL     1      13.672  54.179  -3.083  1.00  0.00    -0.265 N 
ATOM     28  H4  UNL     1      11.916  53.772  -4.228  1.00  0.00     0.189 HD
HETATM   29  C7  UNL     1      14.634  53.340  -3.650  1.00  0.00     0.116 A 
HETATM   30  C11 UNL     1      13.968  55.032  -2.002  1.00  0.00     0.073 A 
HETATM   31  C8  UNL     1      15.881  53.306  -3.156  1.00  0.00     0.019 A 
HETATM   32  C9  UNL     1      16.199  54.137  -2.011  1.00  0.00     0.004 A 
HETATM   33  C10 UNL     1      15.286  54.956  -1.455  1.00  0.00     0.032 A 
ENDBRANCH   1  18
TORSDOF 5
ENDMDL
