MODEL 1
REMARK minimizedAffinity -8.41599083
REMARK CNNscore 0.869211376
REMARK CNNaffinity 8.1156683
REMARK  10 active torsions:
REMARK  status: ('A' for Active; 'I' for Inactive)
REMARK       I    between atoms: C1_2  and  N1_3 
REMARK    1  A    between atoms: C1_2  and  C5_10 
REMARK    2  A    between atoms: N1_3  and  C2_4 
REMARK    3  A    between atoms: C5_10  and  C6_11 
REMARK    4  A    between atoms: C5_10  and  N5_20 
REMARK    5  A    between atoms: C16_26  and  C17_27 
REMARK    6  A    between atoms: C18_28  and  C19_29 
REMARK    7  A    between atoms: C22_32  and  C23_33 
REMARK    8  A    between atoms: C23_33  and  N6_34 
REMARK    9  A    between atoms: C26_37  and  C27_38 
REMARK   10  A    between atoms: C27_38  and  O2_39 
ROOT
HETATM    1  N5  UNL     1      -6.902   6.442  14.507  1.00  0.00    -0.325 N 
HETATM    2  C12 UNL     1      -6.288   7.092  13.361  1.00  0.00     0.170 C 
HETATM    3  C13 UNL     1      -5.230   7.920  13.995  1.00  0.00     0.014 A 
HETATM    4  C14 UNL     1      -4.267   8.714  13.419  1.00  0.00     0.126 A 
HETATM    5  F1  UNL     1      -4.160   8.794  12.087  1.00  0.00    -0.205 F 
HETATM    6  C15 UNL     1      -3.399   9.440  14.234  1.00  0.00     0.063 A 
HETATM    7  C16 UNL     1      -3.512   9.364  15.636  1.00  0.00     0.022 A 
HETATM    8  C32 UNL     1      -4.489   8.557  16.227  1.00  0.00     0.038 A 
HETATM    9  C33 UNL     1      -5.324   7.850  15.381  1.00  0.00     0.044 A 
HETATM   10  C34 UNL     1      -6.431   6.946  15.710  1.00  0.00     0.255 C 
HETATM   11  O3  UNL     1      -6.822   6.726  16.839  1.00  0.00    -0.267 OA
ENDROOT
BRANCH   1  12
HETATM   12  C5  UNL     1      -8.187   5.750  14.383  1.00  0.00     0.232 C 
BRANCH  12  13
HETATM   13  C1  UNL     1      -8.026   4.505  13.464  1.00  0.00     0.252 C 
HETATM   14  O1  UNL     1      -9.007   4.058  12.860  1.00  0.00    -0.270 OA
HETATM   15  N1  UNL     1      -6.739   4.043  13.325  1.00  0.00    -0.305 N 
HETATM   16  H1  UNL     1      -6.003   4.459  13.894  1.00  0.00     0.171 HD
BRANCH  15  17
HETATM   17  C2  UNL     1      -6.395   2.987  12.535  1.00  0.00     0.150 A 
HETATM   18  N2  UNL     1      -7.105   1.955  12.161  1.00  0.00    -0.346 N 
HETATM   19  C3  UNL     1      -6.334   1.136  11.361  1.00  0.00     0.097 A 
ATOM     20  H2  UNL     1      -8.077   1.782  12.420  1.00  0.00     0.167 HD
HETATM   21  C4  UNL     1      -5.046   1.572  11.129  1.00  0.00     0.070 A 
HETATM   22  S1  UNL     1      -4.789   3.054  11.953  1.00  0.00    -0.064 SA
ENDBRANCH  15  17
ENDBRANCH  12  13
BRANCH  12  23
HETATM   23  C6  UNL     1      -9.310   6.703  14.052  1.00  0.00     0.065 A 
HETATM   24  N3  UNL     1     -10.355   6.333  13.186  1.00  0.00    -0.352 N 
HETATM   25  C7  UNL     1     -11.184   7.361  13.125  1.00  0.00     0.183 A 
ATOM     26  H3  UNL     1     -10.454   5.442  12.699  1.00  0.00     0.166 HD
HETATM   27  N4  UNL     1     -10.737   8.348  13.915  1.00  0.00    -0.345 N 
HETATM   28  C8  UNL     1      -9.592   7.960  14.535  1.00  0.00     0.037 A 
HETATM   29  C11 UNL     1     -11.181   9.672  14.292  1.00  0.00     0.130 C 
HETATM   30  C9  UNL     1      -9.097   9.011  15.441  1.00  0.00     0.061 C 
HETATM   31  C10 UNL     1     -10.340   9.934  15.555  1.00  0.00     0.026 C 
ENDBRANCH  12  23
ENDBRANCH   1  12
BRANCH   7  32
HETATM   32  C17 UNL     1      -2.630  10.133  16.457  1.00  0.00    -0.061 C 
HETATM   33  C18 UNL     1      -1.876  10.762  17.150  1.00  0.00    -0.061 C 
BRANCH  33  34
HETATM   34  C19 UNL     1      -0.965  11.492  17.976  1.00  0.00     0.018 A 
HETATM   35  C20 UNL     1       0.397  11.185  17.963  1.00  0.00     0.021 A 
HETATM   36  C21 UNL     1       1.282  11.907  18.766  1.00  0.00     0.010 A 
HETATM   37  C22 UNL     1       0.821  12.947  19.586  1.00  0.00    -0.030 A 
HETATM   38  C30 UNL     1      -0.551  13.238  19.601  1.00  0.00     0.010 A 
HETATM   39  C31 UNL     1      -1.438  12.516  18.797  1.00  0.00     0.021 A 
BRANCH  37  40
HETATM   40  C23 UNL     1       1.778  13.716  20.476  1.00  0.00     0.311 C 
BRANCH  40  41
HETATM   41  N6  UNL     1       2.888  12.898  20.990  1.00  0.00     0.092 N 
HETATM   42  C24 UNL     1       3.384  13.353  22.297  1.00  0.00     0.273 C 
HETATM   43  C25 UNL     1       3.046  12.407  23.450  1.00  0.00     0.037 C 
HETATM   44  C26 UNL     1       3.620  11.002  23.206  1.00  0.00     0.012 C 
HETATM   45  C28 UNL     1       3.548  10.622  21.715  1.00  0.00     0.037 C 
HETATM   46  C29 UNL     1       2.533  11.472  20.955  1.00  0.00     0.273 C 
BRANCH  44  47
HETATM   47  C27 UNL     1       2.947   9.954  24.100  1.00  0.00     0.168 C 
BRANCH  47  48
HETATM   48  O2  UNL     1       2.841   8.694  23.450  1.00  0.00    -0.400 OA
HETATM   49  H26 UNL     1       2.108   8.749  22.815  1.00  0.00     0.209 HD
ENDBRANCH  47  48
ENDBRANCH  44  47
ENDBRANCH  40  41
ENDBRANCH  37  40
ENDBRANCH  33  34
ENDBRANCH   7  32
TORSDOF 10
ENDMDL
MODEL 2
REMARK minimizedAffinity -8.15177631
REMARK CNNscore 0.234847084
REMARK CNNaffinity 7.20658112
REMARK  10 active torsions:
REMARK  status: ('A' for Active; 'I' for Inactive)
REMARK       I    between atoms: C1_2  and  N1_3 
REMARK    1  A    between atoms: C1_2  and  C5_10 
REMARK    2  A    between atoms: N1_3  and  C2_4 
REMARK    3  A    between atoms: C5_10  and  C6_11 
REMARK    4  A    between atoms: C5_10  and  N5_20 
REMARK    5  A    between atoms: C16_26  and  C17_27 
REMARK    6  A    between atoms: C18_28  and  C19_29 
REMARK    7  A    between atoms: C22_32  and  C23_33 
REMARK    8  A    between atoms: C23_33  and  N6_34 
REMARK    9  A    between atoms: C26_37  and  C27_38 
REMARK   10  A    between atoms: C27_38  and  O2_39 
ROOT
HETATM    1  N5  UNL     1      -6.098   7.265  14.788  1.00  0.00    -0.325 N 
HETATM    2  C12 UNL     1      -6.205   8.625  15.287  1.00  0.00     0.170 C 
HETATM    3  C13 UNL     1      -4.792   9.082  15.270  1.00  0.00     0.014 A 
HETATM    4  C14 UNL     1      -4.259  10.313  15.569  1.00  0.00     0.126 A 
HETATM    5  F1  UNL     1      -5.055  11.334  15.907  1.00  0.00    -0.205 F 
HETATM    6  C15 UNL     1      -2.876  10.492  15.521  1.00  0.00     0.063 A 
HETATM    7  C16 UNL     1      -2.034   9.418  15.174  1.00  0.00     0.022 A 
HETATM    8  C32 UNL     1      -2.571   8.164  14.866  1.00  0.00     0.038 A 
HETATM    9  C33 UNL     1      -3.947   8.034  14.921  1.00  0.00     0.044 A 
HETATM   10  C34 UNL     1      -4.779   6.853  14.665  1.00  0.00     0.255 C 
HETATM   11  O3  UNL     1      -4.340   5.750  14.408  1.00  0.00    -0.267 OA
ENDROOT
BRANCH   1  12
HETATM   12  C5  UNL     1      -7.215   6.326  14.908  1.00  0.00     0.232 C 
BRANCH  12  13
HETATM   13  C1  UNL     1      -7.225   5.361  13.687  1.00  0.00     0.252 C 
HETATM   14  O1  UNL     1      -7.497   5.796  12.563  1.00  0.00    -0.270 OA
HETATM   15  N1  UNL     1      -6.825   4.073  13.957  1.00  0.00    -0.305 N 
HETATM   16  H1  UNL     1      -6.655   3.804  14.924  1.00  0.00     0.171 HD
BRANCH  15  17
HETATM   17  C2  UNL     1      -6.735   3.096  13.012  1.00  0.00     0.150 A 
HETATM   18  N2  UNL     1      -7.523   2.078  12.781  1.00  0.00    -0.346 N 
HETATM   19  C3  UNL     1      -7.029   1.349  11.718  1.00  0.00     0.097 A 
ATOM     20  H2  UNL     1      -8.371   1.858  13.305  1.00  0.00     0.167 HD
HETATM   21  C4  UNL     1      -5.873   1.839  11.147  1.00  0.00     0.070 A 
HETATM   22  S1  UNL     1      -5.380   3.255  11.981  1.00  0.00    -0.064 SA
ENDBRANCH  15  17
ENDBRANCH  12  13
BRANCH  12  23
HETATM   23  C6  UNL     1      -8.511   7.030  15.232  1.00  0.00     0.065 A 
HETATM   24  N3  UNL     1      -8.666   7.775  16.415  1.00  0.00    -0.352 N 
HETATM   25  C7  UNL     1      -9.886   8.284  16.389  1.00  0.00     0.183 A 
ATOM     26  H3  UNL     1      -7.972   7.897  17.151  1.00  0.00     0.166 HD
HETATM   27  N4  UNL     1     -10.501   7.925  15.253  1.00  0.00    -0.345 N 
HETATM   28  C8  UNL     1      -9.662   7.173  14.493  1.00  0.00     0.037 A 
HETATM   29  C11 UNL     1     -11.786   8.165  14.635  1.00  0.00     0.130 C 
HETATM   30  C9  UNL     1     -10.298   6.795  13.218  1.00  0.00     0.061 C 
HETATM   31  C10 UNL     1     -11.508   7.766  13.174  1.00  0.00     0.026 C 
ENDBRANCH  12  23
ENDBRANCH   1  12
BRANCH   7  32
HETATM   32  C17 UNL     1      -0.617   9.612  15.152  1.00  0.00    -0.061 C 
HETATM   33  C18 UNL     1       0.574   9.767  15.154  1.00  0.00    -0.061 C 
BRANCH  33  34
HETATM   34  C19 UNL     1       1.993   9.942  15.178  1.00  0.00     0.018 A 
HETATM   35  C20 UNL     1       2.836   8.837  15.314  1.00  0.00     0.021 A 
HETATM   36  C21 UNL     1       4.221   9.014  15.328  1.00  0.00     0.010 A 
HETATM   37  C22 UNL     1       4.782  10.294  15.199  1.00  0.00    -0.030 A 
HETATM   38  C30 UNL     1       3.925  11.397  15.075  1.00  0.00     0.010 A 
HETATM   39  C31 UNL     1       2.539  11.221  15.061  1.00  0.00     0.021 A 
BRANCH  37  40
HETATM   40  C23 UNL     1       6.285  10.490  15.238  1.00  0.00     0.311 C 
BRANCH  40  41
HETATM   41  N6  UNL     1       6.987   9.880  14.099  1.00  0.00     0.092 N 
HETATM   42  C24 UNL     1       7.669   8.625  14.446  1.00  0.00     0.273 C 
HETATM   43  C25 UNL     1       7.018   7.379  13.843  1.00  0.00     0.037 C 
HETATM   44  C26 UNL     1       6.967   7.464  12.309  1.00  0.00     0.012 C 
HETATM   45  C28 UNL     1       6.697   8.905  11.839  1.00  0.00     0.037 C 
HETATM   46  C29 UNL     1       6.085   9.764  12.944  1.00  0.00     0.273 C 
BRANCH  44  47
HETATM   47  C27 UNL     1       5.960   6.469  11.722  1.00  0.00     0.168 C 
BRANCH  47  48
HETATM   48  O2  UNL     1       6.478   5.808  10.574  1.00  0.00    -0.400 OA
HETATM   49  H26 UNL     1       6.430   6.429   9.829  1.00  0.00     0.209 HD
ENDBRANCH  47  48
ENDBRANCH  44  47
ENDBRANCH  40  41
ENDBRANCH  37  40
ENDBRANCH  33  34
ENDBRANCH   7  32
TORSDOF 10
ENDMDL
MODEL 3
REMARK minimizedAffinity -8.24322033
REMARK CNNscore 0.170914978
REMARK CNNaffinity 7.22344542
REMARK  10 active torsions:
REMARK  status: ('A' for Active; 'I' for Inactive)
REMARK       I    between atoms: C1_2  and  N1_3 
REMARK    1  A    between atoms: C1_2  and  C5_10 
REMARK    2  A    between atoms: N1_3  and  C2_4 
REMARK    3  A    between atoms: C5_10  and  C6_11 
REMARK    4  A    between atoms: C5_10  and  N5_20 
REMARK    5  A    between atoms: C16_26  and  C17_27 
REMARK    6  A    between atoms: C18_28  and  C19_29 
REMARK    7  A    between atoms: C22_32  and  C23_33 
REMARK    8  A    between atoms: C23_33  and  N6_34 
REMARK    9  A    between atoms: C26_37  and  C27_38 
REMARK   10  A    between atoms: C27_38  and  O2_39 
ROOT
HETATM    1  N5  UNL     1      -5.746   7.522  14.754  1.00  0.00    -0.325 N 
HETATM    2  C12 UNL     1      -5.422   8.578  15.698  1.00  0.00     0.170 C 
HETATM    3  C13 UNL     1      -3.954   8.724  15.519  1.00  0.00     0.014 A 
HETATM    4  C14 UNL     1      -3.080   9.617  16.092  1.00  0.00     0.126 A 
HETATM    5  F1  UNL     1      -3.526  10.562  16.929  1.00  0.00    -0.205 F 
HETATM    6  C15 UNL     1      -1.719   9.530  15.797  1.00  0.00     0.063 A 
HETATM    7  C16 UNL     1      -1.246   8.533  14.923  1.00  0.00     0.022 A 
HETATM    8  C32 UNL     1      -2.131   7.623  14.336  1.00  0.00     0.038 A 
HETATM    9  C33 UNL     1      -3.471   7.750  14.652  1.00  0.00     0.044 A 
HETATM   10  C34 UNL     1      -4.612   6.944  14.204  1.00  0.00     0.255 C 
HETATM   11  O3  UNL     1      -4.519   5.963  13.493  1.00  0.00    -0.267 OA
ENDROOT
BRANCH   1  12
HETATM   12  C5  UNL     1      -7.043   6.845  14.795  1.00  0.00     0.232 C 
BRANCH  12  13
HETATM   13  C1  UNL     1      -7.120   5.786  13.657  1.00  0.00     0.252 C 
HETATM   14  O1  UNL     1      -7.388   6.142  12.505  1.00  0.00    -0.270 OA
HETATM   15  N1  UNL     1      -6.779   4.506  14.026  1.00  0.00    -0.305 N 
HETATM   16  H1  UNL     1      -6.606   4.307  15.011  1.00  0.00     0.171 HD
BRANCH  15  17
HETATM   17  C2  UNL     1      -6.751   3.452  13.163  1.00  0.00     0.150 A 
HETATM   18  N2  UNL     1      -7.621   2.492  12.986  1.00  0.00    -0.346 N 
HETATM   19  C3  UNL     1      -7.166   1.640  12.000  1.00  0.00     0.097 A 
ATOM     20  H2  UNL     1      -8.498   2.389  13.496  1.00  0.00     0.167 HD
HETATM   21  C4  UNL     1      -5.955   1.979  11.432  1.00  0.00     0.070 A 
HETATM   22  S1  UNL     1      -5.360   3.409  12.169  1.00  0.00    -0.064 SA
ENDBRANCH  15  17
ENDBRANCH  12  13
BRANCH  12  23
HETATM   23  C6  UNL     1      -8.188   7.824  14.894  1.00  0.00     0.065 A 
HETATM   24  N3  UNL     1      -7.966   9.192  15.135  1.00  0.00    -0.352 N 
HETATM   25  C7  UNL     1      -9.150   9.778  15.135  1.00  0.00     0.183 A 
ATOM     26  H3  UNL     1      -7.064   9.644  15.282  1.00  0.00     0.166 HD
HETATM   27  N4  UNL     1     -10.104   8.868  14.888  1.00  0.00    -0.345 N 
HETATM   28  C8  UNL     1      -9.538   7.648  14.698  1.00  0.00     0.037 A 
HETATM   29  C11 UNL     1     -11.542   8.871  14.738  1.00  0.00     0.130 C 
HETATM   30  C9  UNL     1     -10.560   6.633  14.385  1.00  0.00     0.061 C 
HETATM   31  C10 UNL     1     -11.785   7.521  14.038  1.00  0.00     0.026 C 
ENDBRANCH  12  23
ENDBRANCH   1  12
BRANCH   7  32
HETATM   32  C17 UNL     1       0.155   8.442  14.650  1.00  0.00    -0.061 C 
HETATM   33  C18 UNL     1       1.327   8.354  14.402  1.00  0.00    -0.061 C 
BRANCH  33  34
HETATM   34  C19 UNL     1       2.718   8.236  14.089  1.00  0.00     0.018 A 
HETATM   35  C20 UNL     1       3.126   8.016  12.772  1.00  0.00     0.021 A 
HETATM   36  C21 UNL     1       4.486   7.910  12.472  1.00  0.00     0.010 A 
HETATM   37  C22 UNL     1       5.454   8.029  13.481  1.00  0.00    -0.030 A 
HETATM   38  C30 UNL     1       5.031   8.237  14.801  1.00  0.00     0.010 A 
HETATM   39  C31 UNL     1       3.671   8.343  15.103  1.00  0.00     0.021 A 
BRANCH  37  40
HETATM   40  C23 UNL     1       6.929   7.890  13.159  1.00  0.00     0.311 C 
BRANCH  40  41
HETATM   41  N6  UNL     1       7.805   8.607  14.099  1.00  0.00     0.092 N 
HETATM   42  C24 UNL     1       8.887   7.768  14.635  1.00  0.00     0.273 C 
HETATM   43  C25 UNL     1      10.275   8.140  14.111  1.00  0.00     0.037 C 
HETATM   44  C26 UNL     1      10.622   9.601  14.441  1.00  0.00     0.012 C 
HETATM   45  C28 UNL     1       9.380  10.505  14.340  1.00  0.00     0.037 C 
HETATM   46  C29 UNL     1       8.272   9.867  13.505  1.00  0.00     0.273 C 
BRANCH  44  47
HETATM   47  C27 UNL     1      11.779  10.115  13.577  1.00  0.00     0.168 C 
BRANCH  47  48
HETATM   48  O2  UNL     1      11.362  10.399  12.248  1.00  0.00    -0.400 OA
HETATM   49  H26 UNL     1      11.272   9.552  11.779  1.00  0.00     0.209 HD
ENDBRANCH  47  48
ENDBRANCH  44  47
ENDBRANCH  40  41
ENDBRANCH  37  40
ENDBRANCH  33  34
ENDBRANCH   7  32
TORSDOF 10
ENDMDL
MODEL 4
REMARK minimizedAffinity -8.07374382
REMARK CNNscore 0.163034037
REMARK CNNaffinity 6.24073172
REMARK  10 active torsions:
REMARK  status: ('A' for Active; 'I' for Inactive)
REMARK       I    between atoms: C1_2  and  N1_3 
REMARK    1  A    between atoms: C1_2  and  C5_10 
REMARK    2  A    between atoms: N1_3  and  C2_4 
REMARK    3  A    between atoms: C5_10  and  C6_11 
REMARK    4  A    between atoms: C5_10  and  N5_20 
REMARK    5  A    between atoms: C16_26  and  C17_27 
REMARK    6  A    between atoms: C18_28  and  C19_29 
REMARK    7  A    between atoms: C22_32  and  C23_33 
REMARK    8  A    between atoms: C23_33  and  N6_34 
REMARK    9  A    between atoms: C26_37  and  C27_38 
REMARK   10  A    between atoms: C27_38  and  O2_39 
ROOT
HETATM    1  N5  UNL     1      -2.667   9.227  15.054  1.00  0.00    -0.325 N 
HETATM    2  C12 UNL     1      -3.484   9.363  16.248  1.00  0.00     0.170 C 
HETATM    3  C13 UNL     1      -2.564  10.057  17.185  1.00  0.00     0.014 A 
HETATM    4  C14 UNL     1      -2.787  10.523  18.459  1.00  0.00     0.126 A 
HETATM    5  F1  UNL     1      -3.997  10.411  19.020  1.00  0.00    -0.205 F 
HETATM    6  C15 UNL     1      -1.740  11.113  19.167  1.00  0.00     0.063 A 
HETATM    7  C16 UNL     1      -0.464  11.225  18.584  1.00  0.00     0.022 A 
HETATM    8  C32 UNL     1      -0.231  10.755  17.288  1.00  0.00     0.038 A 
HETATM    9  C33 UNL     1      -1.299  10.183  16.620  1.00  0.00     0.044 A 
HETATM   10  C34 UNL     1      -1.350   9.601  15.274  1.00  0.00     0.255 C 
HETATM   11  O3  UNL     1      -0.387   9.488  14.542  1.00  0.00    -0.267 OA
ENDROOT
BRANCH   1  12
HETATM   12  C5  UNL     1      -3.068   8.339  13.962  1.00  0.00     0.232 C 
BRANCH  12  13
HETATM   13  C1  UNL     1      -4.619   8.210  13.932  1.00  0.00     0.252 C 
HETATM   14  O1  UNL     1      -5.237   8.467  12.893  1.00  0.00    -0.270 OA
HETATM   15  N1  UNL     1      -5.186   7.713  15.082  1.00  0.00    -0.305 N 
HETATM   16  H1  UNL     1      -4.594   7.564  15.898  1.00  0.00     0.171 HD
BRANCH  15  17
HETATM   17  C2  UNL     1      -6.523   7.495  15.233  1.00  0.00     0.150 A 
HETATM   18  N2  UNL     1      -7.537   8.249  14.897  1.00  0.00    -0.346 N 
HETATM   19  C3  UNL     1      -8.712   7.617  15.250  1.00  0.00     0.097 A 
ATOM     20  H2  UNL     1      -7.470   9.161  14.444  1.00  0.00     0.167 HD
HETATM   21  C4  UNL     1      -8.568   6.379  15.841  1.00  0.00     0.070 A 
HETATM   22  S1  UNL     1      -6.900   5.999  15.970  1.00  0.00    -0.064 SA
ENDBRANCH  15  17
ENDBRANCH  12  13
BRANCH  12  23
HETATM   23  C6  UNL     1      -2.277   7.053  13.961  1.00  0.00     0.065 A 
HETATM   24  N3  UNL     1      -2.437   6.091  14.975  1.00  0.00    -0.352 N 
HETATM   25  C7  UNL     1      -1.637   5.083  14.676  1.00  0.00     0.183 A 
ATOM     26  H3  UNL     1      -3.053   6.159  15.785  1.00  0.00     0.166 HD
HETATM   27  N4  UNL     1      -0.997   5.340  13.525  1.00  0.00    -0.345 N 
HETATM   28  C8  UNL     1      -1.398   6.541  13.034  1.00  0.00     0.037 A 
HETATM   29  C11 UNL     1      -0.044   4.656  12.681  1.00  0.00     0.130 C 
HETATM   30  C9  UNL     1      -0.741   6.834  11.749  1.00  0.00     0.061 C 
HETATM   31  C10 UNL     1      -0.178   5.440  11.362  1.00  0.00     0.026 C 
ENDBRANCH  12  23
ENDBRANCH   1  12
BRANCH   7  32
HETATM   32  C17 UNL     1       0.605  11.810  19.332  1.00  0.00    -0.061 C 
HETATM   33  C18 UNL     1       1.501  12.286  19.975  1.00  0.00    -0.061 C 
BRANCH  33  34
HETATM   34  C19 UNL     1       2.567  12.834  20.755  1.00  0.00     0.018 A 
HETATM   35  C20 UNL     1       3.491  13.703  20.172  1.00  0.00     0.021 A 
HETATM   36  C21 UNL     1       4.525  14.241  20.942  1.00  0.00     0.010 A 
HETATM   37  C22 UNL     1       4.645  13.924  22.303  1.00  0.00    -0.030 A 
HETATM   38  C30 UNL     1       3.718  13.040  22.875  1.00  0.00     0.010 A 
HETATM   39  C31 UNL     1       2.684  12.501  22.105  1.00  0.00     0.021 A 
BRANCH  37  40
HETATM   40  C23 UNL     1       5.781  14.488  23.134  1.00  0.00     0.311 C 
BRANCH  40  41
HETATM   41  N6  UNL     1       6.879  13.534  23.352  1.00  0.00     0.092 N 
HETATM   42  C24 UNL     1       6.749  12.309  22.549  1.00  0.00     0.273 C 
HETATM   43  C25 UNL     1       7.777  12.196  21.423  1.00  0.00     0.037 C 
HETATM   44  C26 UNL     1       9.212  12.234  21.972  1.00  0.00     0.012 C 
HETATM   45  C28 UNL     1       9.328  13.199  23.166  1.00  0.00     0.037 C 
HETATM   46  C29 UNL     1       8.178  14.204  23.204  1.00  0.00     0.273 C 
BRANCH  44  47
HETATM   47  C27 UNL     1      10.230  12.555  20.872  1.00  0.00     0.168 C 
BRANCH  47  48
HETATM   48  O2  UNL     1      10.997  11.413  20.511  1.00  0.00    -0.400 OA
HETATM   49  H26 UNL     1      11.661  11.272  21.205  1.00  0.00     0.209 HD
ENDBRANCH  47  48
ENDBRANCH  44  47
ENDBRANCH  40  41
ENDBRANCH  37  40
ENDBRANCH  33  34
ENDBRANCH   7  32
TORSDOF 10
ENDMDL
MODEL 5
REMARK minimizedAffinity -8.4826479
REMARK CNNscore 0.140915304
REMARK CNNaffinity 5.72414923
REMARK  10 active torsions:
REMARK  status: ('A' for Active; 'I' for Inactive)
REMARK       I    between atoms: C1_2  and  N1_3 
REMARK    1  A    between atoms: C1_2  and  C5_10 
REMARK    2  A    between atoms: N1_3  and  C2_4 
REMARK    3  A    between atoms: C5_10  and  C6_11 
REMARK    4  A    between atoms: C5_10  and  N5_20 
REMARK    5  A    between atoms: C16_26  and  C17_27 
REMARK    6  A    between atoms: C18_28  and  C19_29 
REMARK    7  A    between atoms: C22_32  and  C23_33 
REMARK    8  A    between atoms: C23_33  and  N6_34 
REMARK    9  A    between atoms: C26_37  and  C27_38 
REMARK   10  A    between atoms: C27_38  and  O2_39 
ROOT
HETATM    1  N5  UNL     1      -1.877   8.636  14.711  1.00  0.00    -0.325 N 
HETATM    2  C12 UNL     1      -2.811   8.953  15.778  1.00  0.00     0.170 C 
HETATM    3  C13 UNL     1      -1.936   9.610  16.783  1.00  0.00     0.014 A 
HETATM    4  C14 UNL     1      -2.256  10.194  17.985  1.00  0.00     0.126 A 
HETATM    5  F1  UNL     1      -3.530  10.261  18.389  1.00  0.00    -0.205 F 
HETATM    6  C15 UNL     1      -1.240  10.716  18.786  1.00  0.00     0.063 A 
HETATM    7  C16 UNL     1       0.102  10.640  18.368  1.00  0.00     0.022 A 
HETATM    8  C32 UNL     1       0.434  10.050  17.144  1.00  0.00     0.038 A 
HETATM    9  C33 UNL     1      -0.606   9.550  16.380  1.00  0.00     0.044 A 
HETATM   10  C34 UNL     1      -0.561   8.877  15.078  1.00  0.00     0.255 C 
HETATM   11  O3  UNL     1       0.463   8.601  14.485  1.00  0.00    -0.267 OA
ENDROOT
BRANCH   1  12
HETATM   12  C5  UNL     1      -2.246   7.716  13.633  1.00  0.00     0.232 C 
BRANCH  12  13
HETATM   13  C1  UNL     1      -1.560   8.159  12.308  1.00  0.00     0.252 C 
HETATM   14  O1  UNL     1      -1.809   9.271  11.830  1.00  0.00    -0.270 OA
HETATM   15  N1  UNL     1      -0.630   7.278  11.809  1.00  0.00    -0.305 N 
HETATM   16  H1  UNL     1      -0.523   6.369  12.258  1.00  0.00     0.171 HD
BRANCH  15  17
HETATM   17  C2  UNL     1       0.098   7.506  10.680  1.00  0.00     0.150 A 
HETATM   18  N2  UNL     1      -0.007   8.462   9.795  1.00  0.00    -0.346 N 
HETATM   19  C3  UNL     1       0.948   8.284   8.814  1.00  0.00     0.097 A 
ATOM     20  H2  UNL     1      -0.688   9.221   9.824  1.00  0.00     0.167 HD
HETATM   21  C4  UNL     1       1.777   7.194   8.982  1.00  0.00     0.070 A 
HETATM   22  S1  UNL     1       1.335   6.356  10.412  1.00  0.00    -0.064 SA
ENDBRANCH  15  17
ENDBRANCH  12  13
BRANCH  12  23
HETATM   23  C6  UNL     1      -3.735   7.475  13.584  1.00  0.00     0.065 A 
HETATM   24  N3  UNL     1      -4.651   8.542  13.544  1.00  0.00    -0.352 N 
HETATM   25  C7  UNL     1      -5.858   8.007  13.476  1.00  0.00     0.183 A 
ATOM     26  H3  UNL     1      -4.427   9.536  13.565  1.00  0.00     0.166 HD
HETATM   27  N4  UNL     1      -5.759   6.670  13.448  1.00  0.00    -0.345 N 
HETATM   28  C8  UNL     1      -4.451   6.305  13.478  1.00  0.00     0.037 A 
HETATM   29  C11 UNL     1      -6.672   5.553  13.356  1.00  0.00     0.130 C 
HETATM   30  C9  UNL     1      -4.308   4.840  13.409  1.00  0.00     0.061 C 
HETATM   31  C10 UNL     1      -5.726   4.410  12.944  1.00  0.00     0.026 C 
ENDBRANCH  12  23
ENDBRANCH   1  12
BRANCH   7  32
HETATM   32  C17 UNL     1       1.134  11.159  19.211  1.00  0.00    -0.061 C 
HETATM   33  C18 UNL     1       2.014  11.580  19.912  1.00  0.00    -0.061 C 
BRANCH  33  34
HETATM   34  C19 UNL     1       3.078  12.066  20.736  1.00  0.00     0.018 A 
HETATM   35  C20 UNL     1       3.496  13.393  20.634  1.00  0.00     0.021 A 
HETATM   36  C21 UNL     1       4.530  13.863  21.448  1.00  0.00     0.010 A 
HETATM   37  C22 UNL     1       5.152  13.016  22.377  1.00  0.00    -0.030 A 
HETATM   38  C30 UNL     1       4.731  11.682  22.462  1.00  0.00     0.010 A 
HETATM   39  C31 UNL     1       3.697  11.210  21.648  1.00  0.00     0.021 A 
BRANCH  37  40
HETATM   40  C23 UNL     1       6.290  13.519  23.244  1.00  0.00     0.311 C 
BRANCH  40  41
HETATM   41  N6  UNL     1       6.853  14.800  22.790  1.00  0.00     0.092 N 
HETATM   42  C24 UNL     1       6.349  15.954  23.550  1.00  0.00     0.273 C 
HETATM   43  C25 UNL     1       7.393  16.593  24.466  1.00  0.00     0.037 C 
HETATM   44  C26 UNL     1       8.619  17.069  23.670  1.00  0.00     0.012 C 
HETATM   45  C28 UNL     1       8.945  16.101  22.517  1.00  0.00     0.037 C 
HETATM   46  C29 UNL     1       8.319  14.724  22.731  1.00  0.00     0.273 C 
BRANCH  44  47
HETATM   47  C27 UNL     1       9.828  17.306  24.582  1.00  0.00     0.168 C 
BRANCH  47  48
HETATM   48  O2  UNL     1      11.021  17.510  23.836  1.00  0.00    -0.400 OA
HETATM   49  H26 UNL     1      11.322  16.643  23.516  1.00  0.00     0.209 HD
ENDBRANCH  47  48
ENDBRANCH  44  47
ENDBRANCH  40  41
ENDBRANCH  37  40
ENDBRANCH  33  34
ENDBRANCH   7  32
TORSDOF 10
ENDMDL
MODEL 6
REMARK minimizedAffinity -9.05226421
REMARK CNNscore 0.137116835
REMARK CNNaffinity 6.87201548
REMARK  10 active torsions:
REMARK  status: ('A' for Active; 'I' for Inactive)
REMARK       I    between atoms: C1_2  and  N1_3 
REMARK    1  A    between atoms: C1_2  and  C5_10 
REMARK    2  A    between atoms: N1_3  and  C2_4 
REMARK    3  A    between atoms: C5_10  and  C6_11 
REMARK    4  A    between atoms: C5_10  and  N5_20 
REMARK    5  A    between atoms: C16_26  and  C17_27 
REMARK    6  A    between atoms: C18_28  and  C19_29 
REMARK    7  A    between atoms: C22_32  and  C23_33 
REMARK    8  A    between atoms: C23_33  and  N6_34 
REMARK    9  A    between atoms: C26_37  and  C27_38 
REMARK   10  A    between atoms: C27_38  and  O2_39 
ROOT
HETATM    1  N5  UNL     1      -5.061   6.233  14.627  1.00  0.00    -0.325 N 
HETATM    2  C12 UNL     1      -3.949   5.473  14.083  1.00  0.00     0.170 C 
HETATM    3  C13 UNL     1      -2.772   6.191  14.636  1.00  0.00     0.014 A 
HETATM    4  C14 UNL     1      -1.432   5.903  14.531  1.00  0.00     0.126 A 
HETATM    5  F1  UNL     1      -1.023   4.809  13.877  1.00  0.00    -0.205 F 
HETATM    6  C15 UNL     1      -0.498   6.762  15.110  1.00  0.00     0.063 A 
HETATM    7  C16 UNL     1      -0.925   7.917  15.792  1.00  0.00     0.022 A 
HETATM    8  C32 UNL     1      -2.287   8.215  15.904  1.00  0.00     0.038 A 
HETATM    9  C33 UNL     1      -3.178   7.332  15.320  1.00  0.00     0.044 A 
HETATM   10  C34 UNL     1      -4.642   7.390  15.267  1.00  0.00     0.255 C 
HETATM   11  O3  UNL     1      -5.308   8.305  15.710  1.00  0.00    -0.267 OA
ENDROOT
BRANCH   1  12
HETATM   12  C5  UNL     1      -6.420   6.059  14.108  1.00  0.00     0.232 C 
BRANCH  12  13
HETATM   13  C1  UNL     1      -7.451   6.562  15.160  1.00  0.00     0.252 C 
HETATM   14  O1  UNL     1      -7.595   5.947  16.222  1.00  0.00    -0.270 OA
HETATM   15  N1  UNL     1      -8.075   7.746  14.846  1.00  0.00    -0.305 N 
HETATM   16  H1  UNL     1      -7.914   8.159  13.928  1.00  0.00     0.171 HD
BRANCH  15  17
HETATM   17  C2  UNL     1      -8.981   8.362  15.656  1.00  0.00     0.150 A 
HETATM   18  N2  UNL     1      -9.638   7.894  16.686  1.00  0.00    -0.346 N 
HETATM   19  C3  UNL     1     -10.452   8.884  17.197  1.00  0.00     0.097 A 
ATOM     20  H2  UNL     1      -9.560   6.945  17.053  1.00  0.00     0.167 HD
HETATM   21  C4  UNL     1     -10.388  10.101  16.549  1.00  0.00     0.070 A 
HETATM   22  S1  UNL     1      -9.277   9.995  15.246  1.00  0.00    -0.064 SA
ENDBRANCH  15  17
ENDBRANCH  12  13
BRANCH  12  23
HETATM   23  C6  UNL     1      -6.636   4.674  13.548  1.00  0.00     0.065 A 
HETATM   24  N3  UNL     1      -7.688   3.856  13.998  1.00  0.00    -0.352 N 
HETATM   25  C7  UNL     1      -7.626   2.735  13.302  1.00  0.00     0.183 A 
ATOM     26  H3  UNL     1      -8.368   4.085  14.723  1.00  0.00     0.166 HD
HETATM   27  N4  UNL     1      -6.613   2.803  12.425  1.00  0.00    -0.345 N 
HETATM   28  C8  UNL     1      -5.997   4.010  12.527  1.00  0.00     0.037 A 
HETATM   29  C11 UNL     1      -6.054   1.951  11.400  1.00  0.00     0.130 C 
HETATM   30  C9  UNL     1      -4.902   4.130  11.548  1.00  0.00     0.061 C 
HETATM   31  C10 UNL     1      -5.214   2.952  10.586  1.00  0.00     0.026 C 
ENDBRANCH  12  23
ENDBRANCH   1  12
BRANCH   7  32
HETATM   32  C17 UNL     1       0.046   8.800  16.360  1.00  0.00    -0.061 C 
HETATM   33  C18 UNL     1       0.851   9.542  16.855  1.00  0.00    -0.061 C 
BRANCH  33  34
HETATM   34  C19 UNL     1       1.797  10.424  17.465  1.00  0.00     0.018 A 
HETATM   35  C20 UNL     1       1.700  10.729  18.824  1.00  0.00     0.021 A 
HETATM   36  C21 UNL     1       2.633  11.584  19.415  1.00  0.00     0.010 A 
HETATM   37  C22 UNL     1       3.676  12.141  18.659  1.00  0.00    -0.030 A 
HETATM   38  C30 UNL     1       3.755  11.837  17.293  1.00  0.00     0.010 A 
HETATM   39  C31 UNL     1       2.822  10.981  16.700  1.00  0.00     0.021 A 
BRANCH  37  40
HETATM   40  C23 UNL     1       4.674  13.088  19.295  1.00  0.00     0.311 C 
BRANCH  40  41
HETATM   41  N6  UNL     1       4.856  12.868  20.737  1.00  0.00     0.092 N 
HETATM   42  C24 UNL     1       5.881  11.859  21.043  1.00  0.00     0.273 C 
HETATM   43  C25 UNL     1       7.157  12.439  21.656  1.00  0.00     0.037 C 
HETATM   44  C26 UNL     1       6.855  13.194  22.961  1.00  0.00     0.012 C 
HETATM   45  C28 UNL     1       5.510  13.940  22.875  1.00  0.00     0.037 C 
HETATM   46  C29 UNL     1       5.062  14.149  21.430  1.00  0.00     0.273 C 
BRANCH  44  47
HETATM   47  C27 UNL     1       8.006  14.127  23.352  1.00  0.00     0.168 C 
BRANCH  47  48
HETATM   48  O2  UNL     1       9.165  13.402  23.741  1.00  0.00    -0.400 OA
HETATM   49  H26 UNL     1       9.016  13.066  24.641  1.00  0.00     0.209 HD
ENDBRANCH  47  48
ENDBRANCH  44  47
ENDBRANCH  40  41
ENDBRANCH  37  40
ENDBRANCH  33  34
ENDBRANCH   7  32
TORSDOF 10
ENDMDL
MODEL 7
REMARK minimizedAffinity -8.41000748
REMARK CNNscore 0.133499041
REMARK CNNaffinity 6.12475586
REMARK  10 active torsions:
REMARK  status: ('A' for Active; 'I' for Inactive)
REMARK       I    between atoms: C1_2  and  N1_3 
REMARK    1  A    between atoms: C1_2  and  C5_10 
REMARK    2  A    between atoms: N1_3  and  C2_4 
REMARK    3  A    between atoms: C5_10  and  C6_11 
REMARK    4  A    between atoms: C5_10  and  N5_20 
REMARK    5  A    between atoms: C16_26  and  C17_27 
REMARK    6  A    between atoms: C18_28  and  C19_29 
REMARK    7  A    between atoms: C22_32  and  C23_33 
REMARK    8  A    between atoms: C23_33  and  N6_34 
REMARK    9  A    between atoms: C26_37  and  C27_38 
REMARK   10  A    between atoms: C27_38  and  O2_39 
ROOT
HETATM    1  N5  UNL     1      -3.903   7.972  15.591  1.00  0.00    -0.325 N 
HETATM    2  C12 UNL     1      -4.624   9.221  15.769  1.00  0.00     0.170 C 
HETATM    3  C13 UNL     1      -3.671  10.024  16.578  1.00  0.00     0.014 A 
HETATM    4  C14 UNL     1      -3.759  11.327  17.009  1.00  0.00     0.126 A 
HETATM    5  F1  UNL     1      -4.810  12.084  16.672  1.00  0.00    -0.205 F 
HETATM    6  C15 UNL     1      -2.743  11.856  17.804  1.00  0.00     0.063 A 
HETATM    7  C16 UNL     1      -1.639  11.061  18.167  1.00  0.00     0.022 A 
HETATM    8  C32 UNL     1      -1.544   9.736  17.730  1.00  0.00     0.038 A 
HETATM    9  C33 UNL     1      -2.571   9.254  16.939  1.00  0.00     0.044 A 
HETATM   10  C34 UNL     1      -2.745   7.921  16.352  1.00  0.00     0.255 C 
HETATM   11  O3  UNL     1      -1.991   6.987  16.540  1.00  0.00    -0.267 OA
ENDROOT
BRANCH   1  12
HETATM   12  C5  UNL     1      -4.582   6.773  15.096  1.00  0.00     0.232 C 
BRANCH  12  13
HETATM   13  C1  UNL     1      -3.986   6.361  13.719  1.00  0.00     0.252 C 
HETATM   14  O1  UNL     1      -3.910   7.194  12.809  1.00  0.00    -0.270 OA
HETATM   15  N1  UNL     1      -3.490   5.080  13.657  1.00  0.00    -0.305 N 
HETATM   16  H1  UNL     1      -3.632   4.458  14.451  1.00  0.00     0.171 HD
BRANCH  15  17
HETATM   17  C2  UNL     1      -2.898   4.551  12.549  1.00  0.00     0.150 A 
HETATM   18  N2  UNL     1      -1.639   4.551  12.192  1.00  0.00    -0.346 N 
HETATM   19  C3  UNL     1      -1.508   3.896  10.984  1.00  0.00     0.097 A 
ATOM     20  H2  UNL     1      -0.875   4.969  12.723  1.00  0.00     0.167 HD
HETATM   21  C4  UNL     1      -2.676   3.395  10.448  1.00  0.00     0.070 A 
HETATM   22  S1  UNL     1      -3.987   3.769  11.489  1.00  0.00    -0.064 SA
ENDBRANCH  15  17
ENDBRANCH  12  13
BRANCH  12  23
HETATM   23  C6  UNL     1      -6.084   6.901  15.178  1.00  0.00     0.065 A 
HETATM   24  N3  UNL     1      -6.704   7.615  16.220  1.00  0.00    -0.352 N 
HETATM   25  C7  UNL     1      -8.006   7.568  15.994  1.00  0.00     0.183 A 
ATOM     26  H3  UNL     1      -6.239   8.080  16.999  1.00  0.00     0.166 HD
HETATM   27  N4  UNL     1      -8.243   6.887  14.863  1.00  0.00    -0.345 N 
HETATM   28  C8  UNL     1      -7.068   6.488  14.311  1.00  0.00     0.037 A 
HETATM   29  C11 UNL     1      -9.405   6.517  14.087  1.00  0.00     0.130 C 
HETATM   30  C9  UNL     1      -7.296   5.769  13.044  1.00  0.00     0.061 C 
HETATM   31  C10 UNL     1      -8.770   6.142  12.735  1.00  0.00     0.026 C 
ENDBRANCH  12  23
ENDBRANCH   1  12
BRANCH   7  32
HETATM   32  C17 UNL     1      -0.618  11.611  19.003  1.00  0.00    -0.061 C 
HETATM   33  C18 UNL     1       0.255  12.060  19.695  1.00  0.00    -0.061 C 
BRANCH  33  34
HETATM   34  C19 UNL     1       1.310  12.582  20.508  1.00  0.00     0.018 A 
HETATM   35  C20 UNL     1       1.972  11.755  21.417  1.00  0.00     0.021 A 
HETATM   36  C21 UNL     1       3.007  12.270  22.201  1.00  0.00     0.010 A 
HETATM   37  C22 UNL     1       3.397  13.612  22.084  1.00  0.00    -0.030 A 
HETATM   38  C30 UNL     1       2.716  14.436  21.176  1.00  0.00     0.010 A 
HETATM   39  C31 UNL     1       1.680  13.922  20.391  1.00  0.00     0.021 A 
BRANCH  37  40
HETATM   40  C23 UNL     1       4.504  14.177  22.952  1.00  0.00     0.311 C 
BRANCH  40  41
HETATM   41  N6  UNL     1       5.755  14.430  22.219  1.00  0.00     0.092 N 
HETATM   42  C24 UNL     1       6.793  15.059  23.048  1.00  0.00     0.273 C 
HETATM   43  C25 UNL     1       7.965  14.135  23.379  1.00  0.00     0.037 C 
HETATM   44  C26 UNL     1       8.648  13.622  22.101  1.00  0.00     0.012 C 
HETATM   45  C28 UNL     1       7.620  13.362  20.985  1.00  0.00     0.037 C 
HETATM   46  C29 UNL     1       6.203  13.209  21.534  1.00  0.00     0.273 C 
BRANCH  44  47
HETATM   47  C27 UNL     1       9.517  12.390  22.381  1.00  0.00     0.168 C 
BRANCH  47  48
HETATM   48  O2  UNL     1       8.859  11.462  23.234  1.00  0.00    -0.400 OA
HETATM   49  H26 UNL     1       8.906  11.809  24.140  1.00  0.00     0.209 HD
ENDBRANCH  47  48
ENDBRANCH  44  47
ENDBRANCH  40  41
ENDBRANCH  37  40
ENDBRANCH  33  34
ENDBRANCH   7  32
TORSDOF 10
ENDMDL
MODEL 8
REMARK minimizedAffinity -8.54541397
REMARK CNNscore 0.129933789
REMARK CNNaffinity 6.81640482
REMARK  10 active torsions:
REMARK  status: ('A' for Active; 'I' for Inactive)
REMARK       I    between atoms: C1_2  and  N1_3 
REMARK    1  A    between atoms: C1_2  and  C5_10 
REMARK    2  A    between atoms: N1_3  and  C2_4 
REMARK    3  A    between atoms: C5_10  and  C6_11 
REMARK    4  A    between atoms: C5_10  and  N5_20 
REMARK    5  A    between atoms: C16_26  and  C17_27 
REMARK    6  A    between atoms: C18_28  and  C19_29 
REMARK    7  A    between atoms: C22_32  and  C23_33 
REMARK    8  A    between atoms: C23_33  and  N6_34 
REMARK    9  A    between atoms: C26_37  and  C27_38 
REMARK   10  A    between atoms: C27_38  and  O2_39 
ROOT
HETATM    1  N5  UNL     1      -1.286   6.482  13.693  1.00  0.00    -0.325 N 
HETATM    2  C12 UNL     1      -2.465   7.058  14.318  1.00  0.00     0.170 C 
HETATM    3  C13 UNL     1      -1.876   8.052  15.252  1.00  0.00     0.014 A 
HETATM    4  C14 UNL     1      -2.494   8.963  16.076  1.00  0.00     0.126 A 
HETATM    5  F1  UNL     1      -3.828   9.071  16.088  1.00  0.00    -0.205 F 
HETATM    6  C15 UNL     1      -1.719   9.774  16.904  1.00  0.00     0.063 A 
HETATM    7  C16 UNL     1      -0.316   9.658  16.900  1.00  0.00     0.022 A 
HETATM    8  C32 UNL     1       0.318   8.735  16.062  1.00  0.00     0.038 A 
HETATM    9  C33 UNL     1      -0.489   7.955  15.253  1.00  0.00     0.044 A 
HETATM   10  C34 UNL     1      -0.112   6.911  14.295  1.00  0.00     0.255 C 
HETATM   11  O3  UNL     1       1.027   6.529  14.112  1.00  0.00    -0.267 OA
ENDROOT
BRANCH   1  12
HETATM   12  C5  UNL     1      -1.373   5.249  12.909  1.00  0.00     0.232 C 
BRANCH  12  13
HETATM   13  C1  UNL     1      -0.594   5.420  11.572  1.00  0.00     0.252 C 
HETATM   14  O1  UNL     1      -0.536   4.481  10.771  1.00  0.00    -0.270 OA
HETATM   15  N1  UNL     1      -0.094   6.681  11.345  1.00  0.00    -0.305 N 
HETATM   16  H1  UNL     1      -0.164   7.378  12.084  1.00  0.00     0.171 HD
BRANCH  15  17
HETATM   17  C2  UNL     1       0.584   7.033  10.217  1.00  0.00     0.150 A 
HETATM   18  N2  UNL     1       1.619   6.468   9.651  1.00  0.00    -0.346 N 
HETATM   19  C3  UNL     1       1.967   7.181   8.521  1.00  0.00     0.097 A 
ATOM     20  H2  UNL     1       2.094   5.632   9.991  1.00  0.00     0.167 HD
HETATM   21  C4  UNL     1       1.176   8.275   8.240  1.00  0.00     0.070 A 
HETATM   22  S1  UNL     1      -0.040   8.423   9.441  1.00  0.00    -0.064 SA
ENDBRANCH  15  17
ENDBRANCH  12  13
BRANCH  12  23
HETATM   23  C6  UNL     1      -2.792   4.742  12.812  1.00  0.00     0.065 A 
HETATM   24  N3  UNL     1      -3.075   3.369  12.693  1.00  0.00    -0.352 N 
HETATM   25  C7  UNL     1      -4.391   3.251  12.660  1.00  0.00     0.183 A 
ATOM     26  H3  UNL     1      -2.395   2.611  12.641  1.00  0.00     0.166 HD
HETATM   27  N4  UNL     1      -4.956   4.462  12.773  1.00  0.00    -0.345 N 
HETATM   28  C8  UNL     1      -3.991   5.410  12.905  1.00  0.00     0.037 A 
HETATM   29  C11 UNL     1      -6.300   4.991  12.829  1.00  0.00     0.130 C 
HETATM   30  C9  UNL     1      -4.583   6.749  13.070  1.00  0.00     0.061 C 
HETATM   31  C10 UNL     1      -6.058   6.398  13.404  1.00  0.00     0.026 C 
ENDBRANCH  12  23
ENDBRANCH   1  12
BRANCH   7  32
HETATM   32  C17 UNL     1       0.463  10.480  17.772  1.00  0.00    -0.061 C 
HETATM   33  C18 UNL     1       1.105  11.188  18.500  1.00  0.00    -0.061 C 
BRANCH  33  34
HETATM   34  C19 UNL     1       1.855  12.049  19.362  1.00  0.00     0.018 A 
HETATM   35  C20 UNL     1       1.507  12.175  20.707  1.00  0.00     0.021 A 
HETATM   36  C21 UNL     1       2.248  13.011  21.545  1.00  0.00     0.010 A 
HETATM   37  C22 UNL     1       3.350  13.726  21.051  1.00  0.00    -0.030 A 
HETATM   38  C30 UNL     1       3.683  13.601  19.694  1.00  0.00     0.010 A 
HETATM   39  C31 UNL     1       2.941  12.765  18.856  1.00  0.00     0.021 A 
BRANCH  37  40
HETATM   40  C23 UNL     1       4.141  14.652  21.953  1.00  0.00     0.311 C 
BRANCH  40  41
HETATM   41  N6  UNL     1       5.157  13.959  22.760  1.00  0.00     0.092 N 
HETATM   42  C24 UNL     1       5.172  12.505  22.546  1.00  0.00     0.273 C 
HETATM   43  C25 UNL     1       6.404  12.003  21.791  1.00  0.00     0.037 C 
HETATM   44  C26 UNL     1       7.700  12.370  22.533  1.00  0.00     0.012 C 
HETATM   45  C28 UNL     1       7.588  13.753  23.200  1.00  0.00     0.037 C 
HETATM   46  C29 UNL     1       6.471  14.596  22.588  1.00  0.00     0.273 C 
BRANCH  44  47
HETATM   47  C27 UNL     1       8.923  12.271  21.614  1.00  0.00     0.168 C 
BRANCH  47  48
HETATM   48  O2  UNL     1      10.018  13.032  22.108  1.00  0.00    -0.400 OA
HETATM   49  H26 UNL     1       9.839  13.968  21.914  1.00  0.00     0.209 HD
ENDBRANCH  47  48
ENDBRANCH  44  47
ENDBRANCH  40  41
ENDBRANCH  37  40
ENDBRANCH  33  34
ENDBRANCH   7  32
TORSDOF 10
ENDMDL
MODEL 9
REMARK minimizedAffinity -7.76157808
REMARK CNNscore 0.121331923
REMARK CNNaffinity 5.89461708
REMARK  10 active torsions:
REMARK  status: ('A' for Active; 'I' for Inactive)
REMARK       I    between atoms: C1_2  and  N1_3 
REMARK    1  A    between atoms: C1_2  and  C5_10 
REMARK    2  A    between atoms: N1_3  and  C2_4 
REMARK    3  A    between atoms: C5_10  and  C6_11 
REMARK    4  A    between atoms: C5_10  and  N5_20 
REMARK    5  A    between atoms: C16_26  and  C17_27 
REMARK    6  A    between atoms: C18_28  and  C19_29 
REMARK    7  A    between atoms: C22_32  and  C23_33 
REMARK    8  A    between atoms: C23_33  and  N6_34 
REMARK    9  A    between atoms: C26_37  and  C27_38 
REMARK   10  A    between atoms: C27_38  and  O2_39 
ROOT
HETATM    1  N5  UNL     1      -5.074   8.595  14.509  1.00  0.00    -0.325 N 
HETATM    2  C12 UNL     1      -4.720   8.733  15.911  1.00  0.00     0.170 C 
HETATM    3  C13 UNL     1      -3.315   9.211  15.838  1.00  0.00     0.014 A 
HETATM    4  C14 UNL     1      -2.457   9.587  16.844  1.00  0.00     0.126 A 
HETATM    5  F1  UNL     1      -2.865   9.589  18.119  1.00  0.00    -0.205 F 
HETATM    6  C15 UNL     1      -1.152   9.965  16.527  1.00  0.00     0.063 A 
HETATM    7  C16 UNL     1      -0.716   9.956  15.189  1.00  0.00     0.022 A 
HETATM    8  C32 UNL     1      -1.585   9.577  14.161  1.00  0.00     0.038 A 
HETATM    9  C33 UNL     1      -2.871   9.215  14.520  1.00  0.00     0.044 A 
HETATM   10  C34 UNL     1      -3.982   8.768  13.672  1.00  0.00     0.255 C 
HETATM   11  O3  UNL     1      -3.899   8.592  12.473  1.00  0.00    -0.267 OA
ENDROOT
BRANCH   1  12
HETATM   12  C5  UNL     1      -6.279   7.870  14.102  1.00  0.00     0.232 C 
BRANCH  12  13
HETATM   13  C1  UNL     1      -7.391   8.054  15.177  1.00  0.00     0.252 C 
HETATM   14  O1  UNL     1      -7.391   7.342  16.187  1.00  0.00    -0.270 OA
HETATM   15  N1  UNL     1      -8.260   9.094  14.946  1.00  0.00    -0.305 N 
HETATM   16  H1  UNL     1      -8.198   9.600  14.064  1.00  0.00     0.171 HD
BRANCH  15  17
HETATM   17  C2  UNL     1      -9.274   9.433  15.790  1.00  0.00     0.150 A 
HETATM   18  N2  UNL     1      -9.927   8.698  16.653  1.00  0.00    -0.346 N 
HETATM   19  C3  UNL     1     -10.877   9.473  17.286  1.00  0.00     0.097 A 
ATOM     20  H2  UNL     1      -9.759   7.707  16.830  1.00  0.00     0.167 HD
HETATM   21  C4  UNL     1     -10.921  10.796  16.899  1.00  0.00     0.070 A 
HETATM   22  S1  UNL     1      -9.736  11.076  15.690  1.00  0.00    -0.064 SA
ENDBRANCH  15  17
ENDBRANCH  12  13
BRANCH  12  23
HETATM   23  C6  UNL     1      -5.969   6.455  13.676  1.00  0.00     0.065 A 
HETATM   24  N3  UNL     1      -4.664   5.935  13.752  1.00  0.00    -0.352 N 
HETATM   25  C7  UNL     1      -4.728   4.681  13.341  1.00  0.00     0.183 A 
ATOM     26  H3  UNL     1      -3.829   6.431  14.063  1.00  0.00     0.166 HD
HETATM   27  N4  UNL     1      -5.995   4.371  13.031  1.00  0.00    -0.345 N 
HETATM   28  C8  UNL     1      -6.800   5.441  13.262  1.00  0.00     0.037 A 
HETATM   29  C11 UNL     1      -6.704   3.200  12.565  1.00  0.00     0.130 C 
HETATM   30  C9  UNL     1      -8.208   5.118  12.968  1.00  0.00     0.061 C 
HETATM   31  C10 UNL     1      -8.163   3.568  12.895  1.00  0.00     0.026 C 
ENDBRANCH  12  23
ENDBRANCH   1  12
BRANCH   7  32
HETATM   32  C17 UNL     1       0.631  10.323  14.883  1.00  0.00    -0.061 C 
HETATM   33  C18 UNL     1       1.759  10.652  14.631  1.00  0.00    -0.061 C 
BRANCH  33  34
HETATM   34  C19 UNL     1       3.096  11.067  14.337  1.00  0.00     0.018 A 
HETATM   35  C20 UNL     1       3.848  11.748  15.296  1.00  0.00     0.021 A 
HETATM   36  C21 UNL     1       5.156  12.142  15.005  1.00  0.00     0.010 A 
HETATM   37  C22 UNL     1       5.731  11.855  13.757  1.00  0.00    -0.030 A 
HETATM   38  C30 UNL     1       4.961  11.181  12.799  1.00  0.00     0.010 A 
HETATM   39  C31 UNL     1       3.652  10.787  13.089  1.00  0.00     0.021 A 
BRANCH  37  40
HETATM   40  C23 UNL     1       7.142  12.304  13.432  1.00  0.00     0.311 C 
BRANCH  40  41
HETATM   41  N6  UNL     1       8.143  11.233  13.561  1.00  0.00     0.092 N 
HETATM   42  C24 UNL     1       9.392  11.683  14.191  1.00  0.00     0.273 C 
HETATM   43  C25 UNL     1       9.608  11.129  15.600  1.00  0.00     0.037 C 
HETATM   44  C26 UNL     1       9.624   9.592  15.599  1.00  0.00     0.012 C 
HETATM   45  C28 UNL     1       8.615   9.025  14.583  1.00  0.00     0.037 C 
HETATM   46  C29 UNL     1       7.549  10.050  14.200  1.00  0.00     0.273 C 
BRANCH  44  47
HETATM   47  C27 UNL     1       9.405   9.024  17.005  1.00  0.00     0.168 C 
BRANCH  47  48
HETATM   48  O2  UNL     1       8.861   7.711  16.967  1.00  0.00    -0.400 OA
HETATM   49  H26 UNL     1       7.916   7.789  16.756  1.00  0.00     0.209 HD
ENDBRANCH  47  48
ENDBRANCH  44  47
ENDBRANCH  40  41
ENDBRANCH  37  40
ENDBRANCH  33  34
ENDBRANCH   7  32
TORSDOF 10
ENDMDL
