MODEL 1
REMARK minimizedAffinity -10.2262573
REMARK  4 active torsions:
REMARK  status: ('A' for Active; 'I' for Inactive)
REMARK    1  A    between atoms: O1_2  and  C2_3 
REMARK    2  A    between atoms: C6_7  and  N1_8 
REMARK    3  A    between atoms: N1_8  and  C7_9 
REMARK    4  A    between atoms: C11_15  and  C12_16 
ROOT
HETATM    1  C7  UNL     1       4.897  -5.016  29.169  1.00  0.00     0.684 A 
HETATM    2  N2  UNL     1       4.581  -3.949  29.916  1.00  0.00    -0.201 N 
ATOM      3  H2  UNL     1       3.678  -3.485  29.820  1.00  0.00     0.183 HD
HETATM    4  C8  UNL     1       5.501  -3.512  30.796  1.00  0.00     0.121 A 
HETATM    5  C9  UNL     1       6.732  -4.098  30.967  1.00  0.00     0.026 A 
HETATM    6  C10 UNL     1       7.720  -3.621  31.920  1.00  0.00     0.034 A 
HETATM    7  C11 UNL     1       8.899  -4.254  32.022  1.00  0.00     0.047 A 
HETATM    8  C18 UNL     1       9.206  -5.448  31.162  1.00  0.00     0.260 A 
HETATM    9  O2  UNL     1      10.295  -6.007  31.279  1.00  0.00    -0.267 OA
HETATM   10  N3  UNL     1       8.224  -5.855  30.273  1.00  0.00    -0.303 N 
HETATM   11  C19 UNL     1       8.456  -7.002  29.413  1.00  0.00     0.161 C 
HETATM   12  C20 UNL     1       6.976  -5.192  30.159  1.00  0.00     0.137 A 
HETATM   13  N4  UNL     1       6.075  -5.654  29.267  1.00  0.00    -0.175 N 
ATOM     14  H4  UNL     1       6.282  -6.465  28.684  1.00  0.00     0.186 HD
ENDROOT
BRANCH   1  15
HETATM   15  N1  UNL     1       4.020  -5.548  28.230  1.00  0.00    -0.192 N 
HETATM   16  H7  UNL     1       3.728  -4.816  27.600  1.00  0.00     0.184 HD
BRANCH  15  17
HETATM   17  C6  UNL     1       3.491  -6.822  27.999  1.00  0.00     0.051 A 
HETATM   18  C5  UNL     1       4.251  -7.923  27.600  1.00  0.00     0.030 A 
HETATM   19  C4  UNL     1       3.658  -9.172  27.385  1.00  0.00     0.005 A 
HETATM   20  C3  UNL     1       2.286  -9.343  27.568  1.00  0.00     0.037 A 
HETATM   21  C2  UNL     1       1.504  -8.263  27.966  1.00  0.00     0.070 A 
HETATM   22  C21 UNL     1       2.111  -7.018  28.177  1.00  0.00     0.066 A 
BRANCH  21  23
HETATM   23  O1  UNL     1       0.153  -8.284  28.183  1.00  0.00    -0.356 OA
HETATM   24  C1  UNL     1      -0.530  -9.488  27.862  1.00  0.00     0.210 C 
ENDBRANCH  21  23
ENDBRANCH  15  17
ENDBRANCH   1  15
BRANCH   7  25
HETATM   25  C12 UNL     1       9.906  -3.774  32.987  1.00  0.00     0.023 A 
HETATM   26  C13 UNL     1      10.943  -2.913  32.584  1.00  0.00     0.046 A 
HETATM   27 CL1  UNL     1      11.075  -2.344  30.953  1.00  0.00    -0.083 Cl
HETATM   28  C14 UNL     1      11.907  -2.473  33.497  1.00  0.00     0.025 A 
HETATM   29  C15 UNL     1      11.854  -2.885  34.827  1.00  0.00     0.003 A 
HETATM   30  C16 UNL     1      10.835  -3.738  35.245  1.00  0.00     0.025 A 
HETATM   31  C17 UNL     1       9.868  -4.181  34.334  1.00  0.00     0.046 A 
HETATM   32 CL2  UNL     1       8.629  -5.230  34.938  1.00  0.00    -0.083 Cl
ENDBRANCH   7  25
TORSDOF 4
ENDMDL
MODEL 2
REMARK minimizedAffinity -10.0454473
REMARK  4 active torsions:
REMARK  status: ('A' for Active; 'I' for Inactive)
REMARK    1  A    between atoms: O1_2  and  C2_3 
REMARK    2  A    between atoms: C6_7  and  N1_8 
REMARK    3  A    between atoms: N1_8  and  C7_9 
REMARK    4  A    between atoms: C11_15  and  C12_16 
ROOT
HETATM    1  C7  UNL     1       4.810  -5.027  29.204  1.00  0.00     0.684 A 
HETATM    2  N2  UNL     1       4.525  -3.944  29.941  1.00  0.00    -0.201 N 
ATOM      3  H2  UNL     1       3.628  -3.465  29.853  1.00  0.00     0.183 HD
HETATM    4  C8  UNL     1       5.467  -3.511  30.799  1.00  0.00     0.121 A 
HETATM    5  C9  UNL     1       6.690  -4.116  30.959  1.00  0.00     0.026 A 
HETATM    6  C10 UNL     1       7.701  -3.642  31.888  1.00  0.00     0.034 A 
HETATM    7  C11 UNL     1       8.871  -4.295  31.979  1.00  0.00     0.047 A 
HETATM    8  C18 UNL     1       9.144  -5.505  31.132  1.00  0.00     0.260 A 
HETATM    9  O2  UNL     1      10.225  -6.081  31.239  1.00  0.00    -0.267 OA
HETATM   10  N3  UNL     1       8.140  -5.907  30.265  1.00  0.00    -0.303 N 
HETATM   11  C19 UNL     1       8.338  -7.070  29.417  1.00  0.00     0.161 C 
HETATM   12  C20 UNL     1       6.902  -5.224  30.162  1.00  0.00     0.137 A 
HETATM   13  N4  UNL     1       5.978  -5.683  29.291  1.00  0.00    -0.175 N 
ATOM     14  H4  UNL     1       6.162  -6.505  28.716  1.00  0.00     0.186 HD
ENDROOT
BRANCH   1  15
HETATM   15  N1  UNL     1       3.908  -5.556  28.288  1.00  0.00    -0.192 N 
HETATM   16  H7  UNL     1       3.547  -4.810  27.711  1.00  0.00     0.184 HD
BRANCH  15  17
HETATM   17  C6  UNL     1       3.428  -6.842  28.021  1.00  0.00     0.051 A 
HETATM   18  C5  UNL     1       2.082  -7.207  28.102  1.00  0.00     0.030 A 
HETATM   19  C4  UNL     1       1.669  -8.513  27.822  1.00  0.00     0.005 A 
HETATM   20  C3  UNL     1       2.599  -9.484  27.452  1.00  0.00     0.037 A 
HETATM   21  C2  UNL     1       3.946  -9.149  27.362  1.00  0.00     0.070 A 
HETATM   22  C21 UNL     1       4.346  -7.837  27.646  1.00  0.00     0.066 A 
BRANCH  21  23
HETATM   23  O1  UNL     1       4.965  -9.994  27.013  1.00  0.00    -0.356 OA
HETATM   24  C1  UNL     1       6.276  -9.618  27.411  1.00  0.00     0.210 C 
ENDBRANCH  21  23
ENDBRANCH  15  17
ENDBRANCH   1  15
BRANCH   7  25
HETATM   25  C12 UNL     1       9.903  -3.819  32.921  1.00  0.00     0.023 A 
HETATM   26  C13 UNL     1       9.872  -4.191  34.277  1.00  0.00     0.046 A 
HETATM   27 CL1  UNL     1       8.653  -5.249  34.907  1.00  0.00    -0.083 Cl
HETATM   28  C14 UNL     1      10.841  -3.726  35.172  1.00  0.00     0.025 A 
HETATM   29  C15 UNL     1      11.856  -2.879  34.730  1.00  0.00     0.003 A 
HETATM   30  C16 UNL     1      11.902  -2.499  33.391  1.00  0.00     0.025 A 
HETATM   31  C17 UNL     1      10.934  -2.963  32.491  1.00  0.00     0.046 A 
HETATM   32 CL2  UNL     1      11.071  -2.452  30.842  1.00  0.00    -0.083 Cl
ENDBRANCH   7  25
TORSDOF 4
ENDMDL
MODEL 3
REMARK minimizedAffinity -9.93393326
REMARK  4 active torsions:
REMARK  status: ('A' for Active; 'I' for Inactive)
REMARK    1  A    between atoms: O1_2  and  C2_3 
REMARK    2  A    between atoms: C6_7  and  N1_8 
REMARK    3  A    between atoms: N1_8  and  C7_9 
REMARK    4  A    between atoms: C11_15  and  C12_16 
ROOT
HETATM    1  C7  UNL     1       4.567  -5.420  29.151  1.00  0.00     0.684 A 
HETATM    2  N2  UNL     1       4.275  -4.324  29.867  1.00  0.00    -0.201 N 
ATOM      3  H2  UNL     1       3.360  -3.878  29.802  1.00  0.00     0.183 HD
HETATM    4  C8  UNL     1       5.236  -3.836  30.673  1.00  0.00     0.121 A 
HETATM    5  C9  UNL     1       6.484  -4.396  30.799  1.00  0.00     0.026 A 
HETATM    6  C10 UNL     1       7.516  -3.862  31.671  1.00  0.00     0.034 A 
HETATM    7  C11 UNL     1       8.709  -4.473  31.733  1.00  0.00     0.047 A 
HETATM    8  C18 UNL     1       8.988  -5.700  30.911  1.00  0.00     0.260 A 
HETATM    9  O2  UNL     1      10.091  -6.238  30.990  1.00  0.00    -0.267 OA
HETATM   10  N3  UNL     1       7.964  -6.160  30.098  1.00  0.00    -0.303 N 
HETATM   11  C19 UNL     1       8.166  -7.342  29.278  1.00  0.00     0.161 C 
HETATM   12  C20 UNL     1       6.701  -5.521  30.027  1.00  0.00     0.137 A 
HETATM   13  N4  UNL     1       5.758  -6.036  29.209  1.00  0.00    -0.175 N 
ATOM     14  H4  UNL     1       5.946  -6.869  28.652  1.00  0.00     0.186 HD
ENDROOT
BRANCH   1  15
HETATM   15  N1  UNL     1       3.646  -6.006  28.288  1.00  0.00    -0.192 N 
HETATM   16  H7  UNL     1       3.070  -5.283  27.881  1.00  0.00     0.184 HD
BRANCH  15  17
HETATM   17  C6  UNL     1       3.375  -7.320  27.896  1.00  0.00     0.051 A 
HETATM   18  C5  UNL     1       4.349  -8.226  27.472  1.00  0.00     0.030 A 
HETATM   19  C4  UNL     1       4.008  -9.529  27.092  1.00  0.00     0.005 A 
HETATM   20  C3  UNL     1       2.680  -9.951  27.131  1.00  0.00     0.037 A 
HETATM   21  C2  UNL     1       1.688  -9.070  27.549  1.00  0.00     0.070 A 
HETATM   22  C21 UNL     1       2.043  -7.768  27.927  1.00  0.00     0.066 A 
BRANCH  21  23
HETATM   23  O1  UNL     1       0.350  -9.345  27.637  1.00  0.00    -0.356 OA
HETATM   24  C1  UNL     1      -0.254  -9.961  26.507  1.00  0.00     0.210 C 
ENDBRANCH  21  23
ENDBRANCH  15  17
ENDBRANCH   1  15
BRANCH   7  25
HETATM   25  C12 UNL     1       9.762  -3.936  32.618  1.00  0.00     0.023 A 
HETATM   26  C13 UNL     1       9.810  -4.283  33.980  1.00  0.00     0.046 A 
HETATM   27 CL1  UNL     1       8.668  -5.378  34.684  1.00  0.00    -0.083 Cl
HETATM   28  C14 UNL     1      10.798  -3.759  34.820  1.00  0.00     0.025 A 
HETATM   29  C15 UNL     1      11.754  -2.880  34.316  1.00  0.00     0.003 A 
HETATM   30  C16 UNL     1      11.722  -2.524  32.969  1.00  0.00     0.025 A 
HETATM   31  C17 UNL     1      10.735  -3.046  32.125  1.00  0.00     0.046 A 
HETATM   32 CL2  UNL     1      10.774  -2.563  30.462  1.00  0.00    -0.083 Cl
ENDBRANCH   7  25
TORSDOF 4
ENDMDL
MODEL 4
REMARK minimizedAffinity -9.93174744
REMARK  4 active torsions:
REMARK  status: ('A' for Active; 'I' for Inactive)
REMARK    1  A    between atoms: O1_2  and  C2_3 
REMARK    2  A    between atoms: C6_7  and  N1_8 
REMARK    3  A    between atoms: N1_8  and  C7_9 
REMARK    4  A    between atoms: C11_15  and  C12_16 
ROOT
HETATM    1  C7  UNL     1       6.533  -7.092  28.493  1.00  0.00     0.684 A 
HETATM    2  N2  UNL     1       7.699  -7.734  28.654  1.00  0.00    -0.201 N 
ATOM      3  H2  UNL     1       7.911  -8.584  28.132  1.00  0.00     0.183 HD
HETATM    4  C8  UNL     1       8.577  -7.215  29.532  1.00  0.00     0.121 A 
HETATM    5  C9  UNL     1       8.344  -6.075  30.261  1.00  0.00     0.026 A 
HETATM    6  C10 UNL     1       9.298  -5.521  31.207  1.00  0.00     0.034 A 
HETATM    7  C11 UNL     1       8.987  -4.400  31.878  1.00  0.00     0.047 A 
HETATM    8  C18 UNL     1       7.667  -3.717  31.662  1.00  0.00     0.260 A 
HETATM    9  O2  UNL     1       7.412  -2.691  32.292  1.00  0.00    -0.267 OA
HETATM   10  N3  UNL     1       6.800  -4.293  30.747  1.00  0.00    -0.303 N 
HETATM   11  C19 UNL     1       5.507  -3.682  30.490  1.00  0.00     0.161 C 
HETATM   12  C20 UNL     1       7.120  -5.476  30.034  1.00  0.00     0.137 A 
HETATM   13  N4  UNL     1       6.217  -5.971  29.161  1.00  0.00    -0.175 N 
ATOM     14  H4  UNL     1       5.321  -5.507  29.013  1.00  0.00     0.186 HD
ENDROOT
BRANCH   1  15
HETATM   15  N1  UNL     1       5.556  -7.543  27.612  1.00  0.00    -0.192 N 
HETATM   16  H7  UNL     1       5.989  -7.769  26.727  1.00  0.00     0.184 HD
BRANCH  15  17
HETATM   17  C6  UNL     1       4.174  -7.736  27.701  1.00  0.00     0.051 A 
HETATM   18  C5  UNL     1       3.282  -6.782  28.195  1.00  0.00     0.030 A 
HETATM   19  C4  UNL     1       1.909  -7.040  28.257  1.00  0.00     0.005 A 
HETATM   20  C3  UNL     1       1.399  -8.263  27.822  1.00  0.00     0.037 A 
HETATM   21  C2  UNL     1       2.265  -9.232  27.324  1.00  0.00     0.070 A 
HETATM   22  C21 UNL     1       3.638  -8.961  27.268  1.00  0.00     0.066 A 
BRANCH  21  23
HETATM   23  O1  UNL     1       1.908 -10.471  26.864  1.00  0.00    -0.356 OA
HETATM   24  C1  UNL     1       2.873 -11.507  26.995  1.00  0.00     0.210 C 
ENDBRANCH  21  23
ENDBRANCH  15  17
ENDBRANCH   1  15
BRANCH   7  25
HETATM   25  C12 UNL     1       9.952  -3.833  32.840  1.00  0.00     0.023 A 
HETATM   26  C13 UNL     1      10.956  -2.943  32.419  1.00  0.00     0.046 A 
HETATM   27 CL1  UNL     1      11.097  -2.440  30.767  1.00  0.00    -0.083 Cl
HETATM   28  C14 UNL     1      11.880  -2.420  33.330  1.00  0.00     0.025 A 
HETATM   29  C15 UNL     1      11.818  -2.776  34.675  1.00  0.00     0.003 A 
HETATM   30  C16 UNL     1      10.830  -3.656  35.111  1.00  0.00     0.025 A 
HETATM   31  C17 UNL     1       9.904  -4.182  34.203  1.00  0.00     0.046 A 
HETATM   32 CL2  UNL     1       8.701  -5.260  34.829  1.00  0.00    -0.083 Cl
ENDBRANCH   7  25
TORSDOF 4
ENDMDL
MODEL 5
REMARK minimizedAffinity -9.76491833
REMARK  4 active torsions:
REMARK  status: ('A' for Active; 'I' for Inactive)
REMARK    1  A    between atoms: O1_2  and  C2_3 
REMARK    2  A    between atoms: C6_7  and  N1_8 
REMARK    3  A    between atoms: N1_8  and  C7_9 
REMARK    4  A    between atoms: C11_15  and  C12_16 
ROOT
HETATM    1  C7  UNL     1       6.439  -6.952  28.419  1.00  0.00     0.684 A 
HETATM    2  N2  UNL     1       7.588  -7.626  28.567  1.00  0.00    -0.201 N 
ATOM      3  H2  UNL     1       7.780  -8.470  28.027  1.00  0.00     0.183 HD
HETATM    4  C8  UNL     1       8.479  -7.146  29.454  1.00  0.00     0.121 A 
HETATM    5  C9  UNL     1       8.274  -6.015  30.206  1.00  0.00     0.026 A 
HETATM    6  C10 UNL     1       9.241  -5.503  31.162  1.00  0.00     0.034 A 
HETATM    7  C11 UNL     1       8.958  -4.389  31.855  1.00  0.00     0.047 A 
HETATM    8  C18 UNL     1       7.655  -3.669  31.654  1.00  0.00     0.260 A 
HETATM    9  O2  UNL     1       7.425  -2.651  32.304  1.00  0.00    -0.267 OA
HETATM   10  N3  UNL     1       6.774  -4.206  30.728  1.00  0.00    -0.303 N 
HETATM   11  C19 UNL     1       5.497  -3.559  30.485  1.00  0.00     0.161 C 
HETATM   12  C20 UNL     1       7.065  -5.382  29.992  1.00  0.00     0.137 A 
HETATM   13  N4  UNL     1       6.151  -5.838  29.109  1.00  0.00    -0.175 N 
ATOM     14  H4  UNL     1       5.266  -5.349  28.971  1.00  0.00     0.186 HD
ENDROOT
BRANCH   1  15
HETATM   15  N1  UNL     1       5.451  -7.362  27.529  1.00  0.00    -0.192 N 
HETATM   16  H7  UNL     1       5.846  -7.419  26.601  1.00  0.00     0.184 HD
BRANCH  15  17
HETATM   17  C6  UNL     1       4.098  -7.691  27.656  1.00  0.00     0.051 A 
HETATM   18  C5  UNL     1       3.116  -6.806  28.106  1.00  0.00     0.030 A 
HETATM   19  C4  UNL     1       1.779  -7.201  28.209  1.00  0.00     0.005 A 
HETATM   20  C3  UNL     1       1.396  -8.496  27.863  1.00  0.00     0.037 A 
HETATM   21  C2  UNL     1       2.353  -9.400  27.411  1.00  0.00     0.070 A 
HETATM   22  C21 UNL     1       3.689  -8.991  27.313  1.00  0.00     0.066 A 
BRANCH  21  23
HETATM   23  O1  UNL     1       2.123 -10.697  27.038  1.00  0.00    -0.356 OA
HETATM   24  C1  UNL     1       3.249 -11.451  26.611  1.00  0.00     0.210 C 
ENDBRANCH  21  23
ENDBRANCH  15  17
ENDBRANCH   1  15
BRANCH   7  25
HETATM   25  C12 UNL     1       9.937  -3.864  32.828  1.00  0.00     0.023 A 
HETATM   26  C13 UNL     1       9.864  -4.214  34.188  1.00  0.00     0.046 A 
HETATM   27 CL1  UNL     1       8.654  -5.298  34.790  1.00  0.00    -0.083 Cl
HETATM   28  C14 UNL     1      10.782  -3.702  35.111  1.00  0.00     0.025 A 
HETATM   29  C15 UNL     1      11.786  -2.832  34.693  1.00  0.00     0.003 A 
HETATM   30  C16 UNL     1      11.874  -2.474  33.350  1.00  0.00     0.025 A 
HETATM   31  C17 UNL     1      10.958  -2.984  32.423  1.00  0.00     0.046 A 
HETATM   32 CL2  UNL     1      11.145  -2.498  30.771  1.00  0.00    -0.083 Cl
ENDBRANCH   7  25
TORSDOF 4
ENDMDL
MODEL 6
REMARK minimizedAffinity -9.23810291
REMARK  4 active torsions:
REMARK  status: ('A' for Active; 'I' for Inactive)
REMARK    1  A    between atoms: O1_2  and  C2_3 
REMARK    2  A    between atoms: C6_7  and  N1_8 
REMARK    3  A    between atoms: N1_8  and  C7_9 
REMARK    4  A    between atoms: C11_15  and  C12_16 
ROOT
HETATM    1  C7  UNL     1       5.652  -6.020  28.826  1.00  0.00     0.684 A 
HETATM    2  N2  UNL     1       5.141  -4.968  29.483  1.00  0.00    -0.201 N 
ATOM      3  H2  UNL     1       4.200  -4.627  29.285  1.00  0.00     0.183 HD
HETATM    4  C8  UNL     1       5.917  -4.380  30.412  1.00  0.00     0.121 A 
HETATM    5  C9  UNL     1       7.189  -4.798  30.720  1.00  0.00     0.026 A 
HETATM    6  C10 UNL     1       8.020  -4.158  31.725  1.00  0.00     0.034 A 
HETATM    7  C11 UNL     1       9.253  -4.632  31.961  1.00  0.00     0.047 A 
HETATM    8  C18 UNL     1       9.781  -5.814  31.199  1.00  0.00     0.260 A 
HETATM    9  O2  UNL     1      10.915  -6.226  31.439  1.00  0.00    -0.267 OA
HETATM   10  N3  UNL     1       8.941  -6.382  30.253  1.00  0.00    -0.303 N 
HETATM   11  C19 UNL     1       9.389  -7.528  29.482  1.00  0.00     0.161 C 
HETATM   12  C20 UNL     1       7.637  -5.887  29.997  1.00  0.00     0.137 A 
HETATM   13  N4  UNL     1       6.884  -6.499  29.059  1.00  0.00    -0.175 N 
ATOM     14  H4  UNL     1       7.241  -7.302  28.542  1.00  0.00     0.186 HD
ENDROOT
BRANCH   1  15
HETATM   15  N1  UNL     1       4.935  -6.699  27.847  1.00  0.00    -0.192 N 
HETATM   16  H7  UNL     1       5.487  -6.741  27.003  1.00  0.00     0.184 HD
BRANCH  15  17
HETATM   17  C6  UNL     1       3.673  -7.301  27.802  1.00  0.00     0.051 A 
HETATM   18  C5  UNL     1       2.519  -6.741  28.352  1.00  0.00     0.030 A 
HETATM   19  C4  UNL     1       1.286  -7.397  28.270  1.00  0.00     0.005 A 
HETATM   20  C3  UNL     1       1.185  -8.633  27.633  1.00  0.00     0.037 A 
HETATM   21  C2  UNL     1       2.319  -9.216  27.076  1.00  0.00     0.070 A 
HETATM   22  C21 UNL     1       3.547  -8.548  27.164  1.00  0.00     0.066 A 
BRANCH  21  23
HETATM   23  O1  UNL     1       2.369 -10.419  26.424  1.00  0.00    -0.356 OA
HETATM   24  C1  UNL     1       3.308 -11.371  26.905  1.00  0.00     0.210 C 
ENDBRANCH  21  23
ENDBRANCH  15  17
ENDBRANCH   1  15
BRANCH   7  25
HETATM   25  C12 UNL     1      10.103  -3.986  32.981  1.00  0.00     0.023 A 
HETATM   26  C13 UNL     1      11.130  -3.099  32.611  1.00  0.00     0.046 A 
HETATM   27 CL1  UNL     1      11.432  -2.690  30.955  1.00  0.00    -0.083 Cl
HETATM   28  C14 UNL     1      11.944  -2.501  33.578  1.00  0.00     0.025 A 
HETATM   29  C15 UNL     1      11.750  -2.779  34.930  1.00  0.00     0.003 A 
HETATM   30  C16 UNL     1      10.738  -3.655  35.315  1.00  0.00     0.025 A 
HETATM   31  C17 UNL     1       9.920  -4.256  34.350  1.00  0.00     0.046 A 
HETATM   32 CL2  UNL     1       8.678  -5.323  34.915  1.00  0.00    -0.083 Cl
ENDBRANCH   7  25
TORSDOF 4
ENDMDL
MODEL 7
REMARK minimizedAffinity -8.77605915
REMARK  4 active torsions:
REMARK  status: ('A' for Active; 'I' for Inactive)
REMARK    1  A    between atoms: O1_2  and  C2_3 
REMARK    2  A    between atoms: C6_7  and  N1_8 
REMARK    3  A    between atoms: N1_8  and  C7_9 
REMARK    4  A    between atoms: C11_15  and  C12_16 
ROOT
HETATM    1  C7  UNL     1       5.958  -7.143  28.664  1.00  0.00     0.684 A 
HETATM    2  N2  UNL     1       7.102  -7.832  28.778  1.00  0.00    -0.201 N 
ATOM      3  H2  UNL     1       7.240  -8.714  28.283  1.00  0.00     0.183 HD
HETATM    4  C8  UNL     1       8.060  -7.319  29.571  1.00  0.00     0.121 A 
HETATM    5  C9  UNL     1       7.928  -6.138  30.260  1.00  0.00     0.026 A 
HETATM    6  C10 UNL     1       8.968  -5.590  31.114  1.00  0.00     0.034 A 
HETATM    7  C11 UNL     1       8.754  -4.428  31.752  1.00  0.00     0.047 A 
HETATM    8  C18 UNL     1       7.455  -3.691  31.592  1.00  0.00     0.260 A 
HETATM    9  O2  UNL     1       7.289  -2.629  32.188  1.00  0.00    -0.267 OA
HETATM   10  N3  UNL     1       6.502  -4.265  30.763  1.00  0.00    -0.303 N 
HETATM   11  C19 UNL     1       5.224  -3.605  30.564  1.00  0.00     0.161 C 
HETATM   12  C20 UNL     1       6.720  -5.492  30.087  1.00  0.00     0.137 A 
HETATM   13  N4  UNL     1       5.739  -5.980  29.298  1.00  0.00    -0.175 N 
ATOM     14  H4  UNL     1       4.857  -5.481  29.188  1.00  0.00     0.186 HD
ENDROOT
BRANCH   1  15
HETATM   15  N1  UNL     1       4.905  -7.584  27.870  1.00  0.00    -0.192 N 
HETATM   16  H7  UNL     1       4.094  -7.008  28.047  1.00  0.00     0.184 HD
BRANCH  15  17
HETATM   17  C6  UNL     1       4.752  -8.609  26.930  1.00  0.00     0.051 A 
HETATM   18  C5  UNL     1       3.612  -8.785  26.144  1.00  0.00     0.030 A 
HETATM   19  C4  UNL     1       3.525  -9.833  25.221  1.00  0.00     0.005 A 
HETATM   20  C3  UNL     1       4.583 -10.727  25.066  1.00  0.00     0.037 A 
HETATM   21  C2  UNL     1       5.732 -10.576  25.836  1.00  0.00     0.070 A 
HETATM   22  C21 UNL     1       5.806  -9.522  26.757  1.00  0.00     0.066 A 
BRANCH  21  23
HETATM   23  O1  UNL     1       6.843 -11.374  25.791  1.00  0.00    -0.356 OA
HETATM   24  C1  UNL     1       8.078 -10.776  26.161  1.00  0.00     0.210 C 
ENDBRANCH  21  23
ENDBRANCH  15  17
ENDBRANCH   1  15
BRANCH   7  25
HETATM   25  C12 UNL     1       9.806  -3.866  32.621  1.00  0.00     0.023 A 
HETATM   26  C13 UNL     1      10.798  -3.015  32.101  1.00  0.00     0.046 A 
HETATM   27 CL1  UNL     1      10.822  -2.554  30.431  1.00  0.00    -0.083 Cl
HETATM   28  C14 UNL     1      11.804  -2.498  32.923  1.00  0.00     0.025 A 
HETATM   29  C15 UNL     1      11.839  -2.821  34.278  1.00  0.00     0.003 A 
HETATM   30  C16 UNL     1      10.865  -3.662  34.811  1.00  0.00     0.025 A 
HETATM   31  C17 UNL     1       9.856  -4.182  33.992  1.00  0.00     0.046 A 
HETATM   32 CL2  UNL     1       8.678  -5.210  34.737  1.00  0.00    -0.083 Cl
ENDBRANCH   7  25
TORSDOF 4
ENDMDL
MODEL 8
REMARK minimizedAffinity -8.76960182
REMARK  4 active torsions:
REMARK  status: ('A' for Active; 'I' for Inactive)
REMARK    1  A    between atoms: O1_2  and  C2_3 
REMARK    2  A    between atoms: C6_7  and  N1_8 
REMARK    3  A    between atoms: N1_8  and  C7_9 
REMARK    4  A    between atoms: C11_15  and  C12_16 
ROOT
HETATM    1  C7  UNL     1       6.358  -6.439  28.183  1.00  0.00     0.684 A 
HETATM    2  N2  UNL     1       5.752  -5.377  28.733  1.00  0.00    -0.201 N 
ATOM      3  H2  UNL     1       4.841  -5.058  28.403  1.00  0.00     0.183 HD
HETATM    4  C8  UNL     1       6.393  -4.747  29.736  1.00  0.00     0.121 A 
HETATM    5  C9  UNL     1       7.619  -5.134  30.219  1.00  0.00     0.026 A 
HETATM    6  C10 UNL     1       8.303  -4.449  31.303  1.00  0.00     0.034 A 
HETATM    7  C11 UNL     1       9.501  -4.895  31.713  1.00  0.00     0.047 A 
HETATM    8  C18 UNL     1      10.139  -6.090  31.065  1.00  0.00     0.260 A 
HETATM    9  O2  UNL     1      11.237  -6.475  31.463  1.00  0.00    -0.267 OA
HETATM   10  N3  UNL     1       9.437  -6.701  30.037  1.00  0.00    -0.303 N 
HETATM   11  C19 UNL     1       9.996  -7.862  29.368  1.00  0.00     0.161 C 
HETATM   12  C20 UNL     1       8.172  -6.236  29.598  1.00  0.00     0.137 A 
HETATM   13  N4  UNL     1       7.555  -6.890  28.590  1.00  0.00    -0.175 N 
ATOM     14  H4  UNL     1       7.987  -7.702  28.150  1.00  0.00     0.186 HD
ENDROOT
BRANCH   1  15
HETATM   15  N1  UNL     1       5.783  -7.160  27.142  1.00  0.00    -0.192 N 
HETATM   16  H7  UNL     1       6.157  -6.828  26.264  1.00  0.00     0.184 HD
BRANCH  15  17
HETATM   17  C6  UNL     1       4.845  -8.195  27.072  1.00  0.00     0.051 A 
HETATM   18  C5  UNL     1       3.554  -8.117  27.598  1.00  0.00     0.030 A 
HETATM   19  C4  UNL     1       2.665  -9.192  27.493  1.00  0.00     0.005 A 
HETATM   20  C3  UNL     1       3.052 -10.370  26.855  1.00  0.00     0.037 A 
HETATM   21  C2  UNL     1       4.332 -10.476  26.321  1.00  0.00     0.070 A 
HETATM   22  C21 UNL     1       5.213  -9.392  26.434  1.00  0.00     0.066 A 
BRANCH  21  23
HETATM   23  O1  UNL     1       4.847 -11.565  25.672  1.00  0.00    -0.356 OA
HETATM   24  C1  UNL     1       4.286 -11.880  24.404  1.00  0.00     0.210 C 
ENDBRANCH  21  23
ENDBRANCH  15  17
ENDBRANCH   1  15
BRANCH   7  25
HETATM   25  C12 UNL     1      10.202  -4.203  32.813  1.00  0.00     0.023 A 
HETATM   26  C13 UNL     1      11.219  -3.269  32.549  1.00  0.00     0.046 A 
HETATM   27 CL1  UNL     1      11.681  -2.853  30.931  1.00  0.00    -0.083 Cl
HETATM   28  C14 UNL     1      11.893  -2.627  33.593  1.00  0.00     0.025 A 
HETATM   29  C15 UNL     1      11.565  -2.908  34.917  1.00  0.00     0.003 A 
HETATM   30  C16 UNL     1      10.561  -3.830  35.198  1.00  0.00     0.025 A 
HETATM   31  C17 UNL     1       9.883  -4.475  34.157  1.00  0.00     0.046 A 
HETATM   32 CL2  UNL     1       8.640  -5.599  34.592  1.00  0.00    -0.083 Cl
ENDBRANCH   7  25
TORSDOF 4
ENDMDL
MODEL 9
REMARK minimizedAffinity -8.35966492
REMARK  4 active torsions:
REMARK  status: ('A' for Active; 'I' for Inactive)
REMARK    1  A    between atoms: O1_2  and  C2_3 
REMARK    2  A    between atoms: C6_7  and  N1_8 
REMARK    3  A    between atoms: N1_8  and  C7_9 
REMARK    4  A    between atoms: C11_15  and  C12_16 
ROOT
HETATM    1  C7  UNL     1       7.047  -8.863  28.231  1.00  0.00     0.684 A 
HETATM    2  N2  UNL     1       8.322  -9.246  28.390  1.00  0.00    -0.201 N 
ATOM      3  H2  UNL     1       8.668 -10.115  27.983  1.00  0.00     0.183 HD
HETATM    4  C8  UNL     1       9.128  -8.440  29.107  1.00  0.00     0.121 A 
HETATM    5  C9  UNL     1       8.716  -7.260  29.676  1.00  0.00     0.026 A 
HETATM    6  C10 UNL     1       9.592  -6.396  30.449  1.00  0.00     0.034 A 
HETATM    7  C11 UNL     1       9.106  -5.259  30.970  1.00  0.00     0.047 A 
HETATM    8  C18 UNL     1       7.668  -4.873  30.765  1.00  0.00     0.260 A 
HETATM    9  O2  UNL     1       7.252  -3.825  31.255  1.00  0.00    -0.267 OA
HETATM   10  N3  UNL     1       6.883  -5.738  30.019  1.00  0.00    -0.303 N 
HETATM   11  C19 UNL     1       5.485  -5.425  29.782  1.00  0.00     0.161 C 
HETATM   12  C20 UNL     1       7.389  -6.941  29.465  1.00  0.00     0.137 A 
HETATM   13  N4  UNL     1       6.555  -7.727  28.750  1.00  0.00    -0.175 N 
ATOM     14  H4  UNL     1       5.580  -7.465  28.610  1.00  0.00     0.186 HD
ENDROOT
BRANCH   1  15
HETATM   15  N1  UNL     1       6.132  -9.621  27.509  1.00  0.00    -0.192 N 
HETATM   16  H7  UNL     1       6.389 -10.596  27.572  1.00  0.00     0.184 HD
BRANCH  15  17
HETATM   17  C6  UNL     1       4.993  -9.321  26.756  1.00  0.00     0.051 A 
HETATM   18  C5  UNL     1       4.880  -9.549  25.384  1.00  0.00     0.030 A 
HETATM   19  C4  UNL     1       3.709  -9.224  24.690  1.00  0.00     0.005 A 
HETATM   20  C3  UNL     1       2.624  -8.662  25.361  1.00  0.00     0.037 A 
HETATM   21  C2  UNL     1       2.708  -8.423  26.729  1.00  0.00     0.070 A 
HETATM   22  C21 UNL     1       3.886  -8.753  27.411  1.00  0.00     0.066 A 
BRANCH  21  23
HETATM   23  O1  UNL     1       1.727  -7.879  27.514  1.00  0.00    -0.356 OA
HETATM   24  C1  UNL     1       2.099  -6.782  28.338  1.00  0.00     0.210 C 
ENDBRANCH  21  23
ENDBRANCH  15  17
ENDBRANCH   1  15
BRANCH   7  25
HETATM   25  C12 UNL     1       9.991  -4.377  31.756  1.00  0.00     0.023 A 
HETATM   26  C13 UNL     1      10.842  -3.454  31.122  1.00  0.00     0.046 A 
HETATM   27 CL1  UNL     1      10.875  -3.277  29.399  1.00  0.00    -0.083 Cl
HETATM   28  C14 UNL     1      11.692  -2.631  31.868  1.00  0.00     0.025 A 
HETATM   29  C15 UNL     1      11.708  -2.716  33.258  1.00  0.00     0.003 A 
HETATM   30  C16 UNL     1      10.873  -3.624  33.904  1.00  0.00     0.025 A 
HETATM   31  C17 UNL     1      10.020  -4.450  33.162  1.00  0.00     0.046 A 
HETATM   32 CL2  UNL     1       9.005  -5.542  34.043  1.00  0.00    -0.083 Cl
ENDBRANCH   7  25
TORSDOF 4
ENDMDL
