MODEL 1
REMARK minimizedAffinity -8.81670666
REMARK  3 active torsions:
REMARK  status: ('A' for Active; 'I' for Inactive)
REMARK    1  A    between atoms: C2_2  and  N1_3 
REMARK    2  A    between atoms: N1_3  and  C3_4 
REMARK    3  A    between atoms: C7_10  and  C8_11 
ROOT
HETATM    1  C3  UNL     1       4.919  -5.001  29.084  1.00  0.00     0.158 A 
HETATM    2  N2  UNL     1       4.610  -3.919  29.808  1.00  0.00    -0.342 N 
ATOM      3  H2  UNL     1       3.715  -3.442  29.696  1.00  0.00     0.167 HD
HETATM    4  C4  UNL     1       5.530  -3.489  30.690  1.00  0.00     0.106 A 
HETATM    5  C5  UNL     1       6.745  -4.103  30.884  1.00  0.00     0.025 A 
HETATM    6  C6  UNL     1       7.734  -3.634  31.840  1.00  0.00     0.034 A 
HETATM    7  C7  UNL     1       8.894  -4.296  31.969  1.00  0.00     0.047 A 
HETATM    8  C14 UNL     1       9.181  -5.513  31.135  1.00  0.00     0.260 A 
HETATM    9  O1  UNL     1      10.254  -6.099  31.277  1.00  0.00    -0.267 OA
HETATM   10  N3  UNL     1       8.201  -5.909  30.240  1.00  0.00    -0.303 N 
HETATM   11  C15 UNL     1       8.416  -7.073  29.398  1.00  0.00     0.161 C 
HETATM   12  C16 UNL     1       6.971  -5.217  30.099  1.00  0.00     0.124 A 
HETATM   13  N4  UNL     1       6.068  -5.673  29.205  1.00  0.00    -0.318 N 
ATOM     14  H4  UNL     1       6.257  -6.502  28.641  1.00  0.00     0.170 HD
ENDROOT
BRANCH   7  15
HETATM   15  C8  UNL     1       9.902  -3.826  32.939  1.00  0.00     0.023 A 
HETATM   16  C9  UNL     1       9.833  -4.200  34.294  1.00  0.00     0.046 A 
HETATM   17 CL1  UNL     1       8.593  -5.251  34.889  1.00  0.00    -0.083 Cl
HETATM   18  C10 UNL     1      10.782  -3.740  35.214  1.00  0.00     0.025 A 
HETATM   19  C11 UNL     1      11.812  -2.899  34.799  1.00  0.00     0.003 A 
HETATM   20  C12 UNL     1      11.896  -2.519  33.462  1.00  0.00     0.025 A 
HETATM   21  C13 UNL     1      10.950  -2.976  32.538  1.00  0.00     0.046 A 
HETATM   22 CL2  UNL     1      11.134  -2.464  30.893  1.00  0.00    -0.083 Cl
ENDBRANCH   7  15
BRANCH   1  23
HETATM   23  N1  UNL     1       4.035  -5.501  28.141  1.00  0.00    -0.264 NA
HETATM   24  H6  UNL     1       4.460  -5.327  27.238  1.00  0.00     0.130 HD
BRANCH  23  25
HETATM   25  C2  UNL     1       3.561  -6.857  28.354  1.00  0.00     0.091 C 
HETATM   26  C1  UNL     1       2.051  -6.936  28.197  1.00  0.00     0.021 C 
ENDBRANCH  23  25
ENDBRANCH   1  23
TORSDOF 3
ENDMDL
MODEL 2
REMARK minimizedAffinity -8.7891655
REMARK  3 active torsions:
REMARK  status: ('A' for Active; 'I' for Inactive)
REMARK    1  A    between atoms: C2_2  and  N1_3 
REMARK    2  A    between atoms: N1_3  and  C3_4 
REMARK    3  A    between atoms: C7_10  and  C8_11 
ROOT
HETATM    1  C3  UNL     1       4.859  -5.042  29.133  1.00  0.00     0.158 A 
HETATM    2  N2  UNL     1       4.551  -3.956  29.852  1.00  0.00    -0.342 N 
ATOM      3  H2  UNL     1       3.651  -3.487  29.748  1.00  0.00     0.167 HD
HETATM    4  C4  UNL     1       5.479  -3.510  30.717  1.00  0.00     0.106 A 
HETATM    5  C5  UNL     1       6.702  -4.113  30.899  1.00  0.00     0.025 A 
HETATM    6  C6  UNL     1       7.700  -3.627  31.837  1.00  0.00     0.034 A 
HETATM    7  C7  UNL     1       8.868  -4.278  31.956  1.00  0.00     0.047 A 
HETATM    8  C14 UNL     1       9.153  -5.500  31.129  1.00  0.00     0.260 A 
HETATM    9  O1  UNL     1      10.233  -6.076  31.262  1.00  0.00    -0.267 OA
HETATM   10  N3  UNL     1       8.164  -5.913  30.251  1.00  0.00    -0.303 N 
HETATM   11  C15 UNL     1       8.377  -7.082  29.417  1.00  0.00     0.161 C 
HETATM   12  C16 UNL     1       6.926  -5.232  30.121  1.00  0.00     0.124 A 
HETATM   13  N4  UNL     1       6.015  -5.704  29.244  1.00  0.00    -0.318 N 
ATOM     14  H4  UNL     1       6.203  -6.536  28.685  1.00  0.00     0.170 HD
ENDROOT
BRANCH   7  15
HETATM   15  C8  UNL     1       9.885  -3.791  32.907  1.00  0.00     0.023 A 
HETATM   16  C9  UNL     1      10.917  -2.931  32.486  1.00  0.00     0.046 A 
HETATM   17 CL1  UNL     1      11.032  -2.374  30.850  1.00  0.00    -0.083 Cl
HETATM   18  C10 UNL     1      11.890  -2.483  33.387  1.00  0.00     0.025 A 
HETATM   19  C11 UNL     1      11.851  -2.886  34.720  1.00  0.00     0.003 A 
HETATM   20  C12 UNL     1      10.836  -3.736  35.154  1.00  0.00     0.025 A 
HETATM   21  C13 UNL     1       9.861  -4.187  34.257  1.00  0.00     0.046 A 
HETATM   22 CL2  UNL     1       8.629  -5.232  34.882  1.00  0.00    -0.083 Cl
ENDBRANCH   7  15
BRANCH   1  23
HETATM   23  N1  UNL     1       3.966  -5.558  28.207  1.00  0.00    -0.264 NA
HETATM   24  H6  UNL     1       4.241  -5.176  27.309  1.00  0.00     0.130 HD
BRANCH  23  25
HETATM   25  C2  UNL     1       3.763  -6.995  28.236  1.00  0.00     0.091 C 
HETATM   26  C1  UNL     1       2.300  -7.342  28.005  1.00  0.00     0.021 C 
ENDBRANCH  23  25
ENDBRANCH   1  23
TORSDOF 3
ENDMDL
MODEL 3
REMARK minimizedAffinity -8.55681801
REMARK  3 active torsions:
REMARK  status: ('A' for Active; 'I' for Inactive)
REMARK    1  A    between atoms: C2_2  and  N1_3 
REMARK    2  A    between atoms: N1_3  and  C3_4 
REMARK    3  A    between atoms: C7_10  and  C8_11 
ROOT
HETATM    1  C3  UNL     1       5.961  -6.998  28.587  1.00  0.00     0.158 A 
HETATM    2  N2  UNL     1       7.098  -7.698  28.677  1.00  0.00    -0.342 N 
ATOM      3  H2  UNL     1       7.235  -8.561  28.151  1.00  0.00     0.167 HD
HETATM    4  C4  UNL     1       8.052  -7.213  29.493  1.00  0.00     0.106 A 
HETATM    5  C5  UNL     1       7.918  -6.052  30.216  1.00  0.00     0.025 A 
HETATM    6  C6  UNL     1       8.954  -5.533  31.094  1.00  0.00     0.034 A 
HETATM    7  C7  UNL     1       8.742  -4.388  31.760  1.00  0.00     0.047 A 
HETATM    8  C14 UNL     1       7.447  -3.639  31.610  1.00  0.00     0.260 A 
HETATM    9  O1  UNL     1       7.284  -2.591  32.234  1.00  0.00    -0.267 OA
HETATM   10  N3  UNL     1       6.499  -4.184  30.760  1.00  0.00    -0.303 N 
HETATM   11  C15 UNL     1       5.223  -3.516  30.574  1.00  0.00     0.161 C 
HETATM   12  C16 UNL     1       6.715  -5.393  30.050  1.00  0.00     0.124 A 
HETATM   13  N4  UNL     1       5.738  -5.853  29.240  1.00  0.00    -0.318 N 
ATOM     14  H4  UNL     1       4.861  -5.345  29.130  1.00  0.00     0.170 HD
ENDROOT
BRANCH   7  15
HETATM   15  C8  UNL     1       9.789  -3.855  32.653  1.00  0.00     0.023 A 
HETATM   16  C9  UNL     1      10.785  -2.988  32.164  1.00  0.00     0.046 A 
HETATM   17 CL1  UNL     1      10.819  -2.475  30.511  1.00  0.00    -0.083 Cl
HETATM   18  C10 UNL     1      11.786  -2.497  33.010  1.00  0.00     0.025 A 
HETATM   19  C11 UNL     1      11.812  -2.862  34.354  1.00  0.00     0.003 A 
HETATM   20  C12 UNL     1      10.834  -3.719  34.855  1.00  0.00     0.025 A 
HETATM   21  C13 UNL     1       9.831  -4.213  34.014  1.00  0.00     0.046 A 
HETATM   22 CL2  UNL     1       8.648  -5.263  34.719  1.00  0.00    -0.083 Cl
ENDBRANCH   7  15
BRANCH   1  23
HETATM   23  N1  UNL     1       4.921  -7.435  27.781  1.00  0.00    -0.264 NA
HETATM   24  H6  UNL     1       5.019  -8.442  27.719  1.00  0.00     0.130 HD
BRANCH  23  25
HETATM   25  C2  UNL     1       3.593  -6.960  28.125  1.00  0.00     0.091 C 
HETATM   26  C1  UNL     1       2.530  -7.956  27.691  1.00  0.00     0.021 C 
ENDBRANCH  23  25
ENDBRANCH   1  23
TORSDOF 3
ENDMDL
MODEL 4
REMARK minimizedAffinity -8.27426529
REMARK  3 active torsions:
REMARK  status: ('A' for Active; 'I' for Inactive)
REMARK    1  A    between atoms: C2_2  and  N1_3 
REMARK    2  A    between atoms: N1_3  and  C3_4 
REMARK    3  A    between atoms: C7_10  and  C8_11 
ROOT
HETATM    1  C3  UNL     1      10.748  -2.648  32.828  1.00  0.00     0.158 A 
HETATM    2  N2  UNL     1       9.608  -1.946  32.802  1.00  0.00    -0.342 N 
ATOM      3  H2  UNL     1       9.533  -1.034  33.252  1.00  0.00     0.167 HD
HETATM    4  C4  UNL     1       8.565  -2.497  32.154  1.00  0.00     0.106 A 
HETATM    5  C5  UNL     1       8.618  -3.718  31.524  1.00  0.00     0.025 A 
HETATM    6  C6  UNL     1       7.488  -4.306  30.824  1.00  0.00     0.034 A 
HETATM    7  C7  UNL     1       7.627  -5.502  30.232  1.00  0.00     0.047 A 
HETATM    8  C14 UNL     1       8.937  -6.238  30.286  1.00  0.00     0.260 A 
HETATM    9  O1  UNL     1       9.034  -7.333  29.732  1.00  0.00    -0.267 OA
HETATM   10  N3  UNL     1       9.976  -5.627  30.969  1.00  0.00    -0.303 N 
HETATM   11  C15 UNL     1      11.266  -6.287  31.066  1.00  0.00     0.161 C 
HETATM   12  C16 UNL     1       9.838  -4.363  31.596  1.00  0.00     0.124 A 
HETATM   13  N4  UNL     1      10.903  -3.837  32.238  1.00  0.00    -0.318 N 
ATOM     14  H4  UNL     1      11.795  -4.331  32.272  1.00  0.00     0.170 HD
ENDROOT
BRANCH   7  15
HETATM   15  C8  UNL     1       6.484  -6.105  29.520  1.00  0.00     0.023 A 
HETATM   16  C9  UNL     1       5.225  -5.477  29.509  1.00  0.00     0.046 A 
HETATM   17 CL1  UNL     1       4.955  -3.958  30.296  1.00  0.00    -0.083 Cl
HETATM   18  C10 UNL     1       4.139  -6.058  28.846  1.00  0.00     0.025 A 
HETATM   19  C11 UNL     1       4.290  -7.276  28.184  1.00  0.00     0.003 A 
HETATM   20  C12 UNL     1       5.530  -7.911  28.184  1.00  0.00     0.025 A 
HETATM   21  C13 UNL     1       6.619  -7.334  28.846  1.00  0.00     0.046 A 
HETATM   22 CL2  UNL     1       8.126  -8.184  28.787  1.00  0.00    -0.083 Cl
ENDBRANCH   7  15
BRANCH   1  23
HETATM   23  N1  UNL     1      11.865  -2.161  33.487  1.00  0.00    -0.264 NA
HETATM   24  H6  UNL     1      11.720  -1.162  33.584  1.00  0.00     0.130 HD
BRANCH  23  25
HETATM   25  C2  UNL     1      12.252  -2.853  34.702  1.00  0.00     0.091 C 
HETATM   26  C1  UNL     1      11.067  -3.586  35.311  1.00  0.00     0.021 C 
ENDBRANCH  23  25
ENDBRANCH   1  23
TORSDOF 3
ENDMDL
MODEL 5
REMARK minimizedAffinity -7.75292826
REMARK  3 active torsions:
REMARK  status: ('A' for Active; 'I' for Inactive)
REMARK    1  A    between atoms: C2_2  and  N1_3 
REMARK    2  A    between atoms: N1_3  and  C3_4 
REMARK    3  A    between atoms: C7_10  and  C8_11 
ROOT
HETATM    1  C3  UNL     1       9.827  -2.819  32.389  1.00  0.00     0.158 A 
HETATM    2  N2  UNL     1       8.783  -3.319  33.062  1.00  0.00    -0.342 N 
ATOM      3  H2  UNL     1       8.541  -2.984  33.994  1.00  0.00     0.167 HD
HETATM    4  C4  UNL     1       8.068  -4.283  32.454  1.00  0.00     0.106 A 
HETATM    5  C5  UNL     1       8.349  -4.761  31.195  1.00  0.00     0.025 A 
HETATM    6  C6  UNL     1       7.570  -5.801  30.543  1.00  0.00     0.034 A 
HETATM    7  C7  UNL     1       7.911  -6.207  29.311  1.00  0.00     0.047 A 
HETATM    8  C14 UNL     1       9.088  -5.599  28.600  1.00  0.00     0.260 A 
HETATM    9  O1  UNL     1       9.374  -5.992  27.469  1.00  0.00    -0.267 OA
HETATM   10  N3  UNL     1       9.791  -4.614  29.273  1.00  0.00    -0.303 N 
HETATM   11  C15 UNL     1      10.944  -3.990  28.647  1.00  0.00     0.161 C 
HETATM   12  C16 UNL     1       9.437  -4.178  30.576  1.00  0.00     0.124 A 
HETATM   13  N4  UNL     1      10.175  -3.209  31.159  1.00  0.00    -0.318 N 
ATOM     14  H4  UNL     1      10.970  -2.790  30.677  1.00  0.00     0.170 HD
ENDROOT
BRANCH   7  15
HETATM   15  C8  UNL     1       7.124  -7.262  28.643  1.00  0.00     0.023 A 
HETATM   16  C9  UNL     1       7.603  -8.583  28.567  1.00  0.00     0.046 A 
HETATM   17 CL1  UNL     1       9.112  -9.050  29.276  1.00  0.00    -0.083 Cl
HETATM   18  C10 UNL     1       6.862  -9.578  27.920  1.00  0.00     0.025 A 
HETATM   19  C11 UNL     1       5.635  -9.272  27.336  1.00  0.00     0.003 A 
HETATM   20  C12 UNL     1       5.146  -7.969  27.401  1.00  0.00     0.025 A 
HETATM   21  C13 UNL     1       5.882  -6.971  28.048  1.00  0.00     0.046 A 
HETATM   22 CL2  UNL     1       5.197  -5.381  28.094  1.00  0.00    -0.083 Cl
ENDBRANCH   7  15
BRANCH   1  23
HETATM   23  N1  UNL     1      10.626  -1.835  32.948  1.00  0.00    -0.264 NA
HETATM   24  H6  UNL     1      10.059  -1.384  33.658  1.00  0.00     0.130 HD
BRANCH  23  25
HETATM   25  C2  UNL     1      11.950  -2.244  33.379  1.00  0.00     0.091 C 
HETATM   26  C1  UNL     1      11.866  -3.346  34.423  1.00  0.00     0.021 C 
ENDBRANCH  23  25
ENDBRANCH   1  23
TORSDOF 3
ENDMDL
MODEL 6
REMARK minimizedAffinity -7.62545872
REMARK  3 active torsions:
REMARK  status: ('A' for Active; 'I' for Inactive)
REMARK    1  A    between atoms: C2_2  and  N1_3 
REMARK    2  A    between atoms: N1_3  and  C3_4 
REMARK    3  A    between atoms: C7_10  and  C8_11 
ROOT
HETATM    1  C3  UNL     1      11.503  -3.235  30.646  1.00  0.00     0.158 A 
HETATM    2  N2  UNL     1      11.777  -3.645  29.401  1.00  0.00    -0.342 N 
ATOM      3  H2  UNL     1      12.642  -3.379  28.931  1.00  0.00     0.167 HD
HETATM    4  C4  UNL     1      10.860  -4.424  28.798  1.00  0.00     0.106 A 
HETATM    5  C5  UNL     1       9.684  -4.817  29.393  1.00  0.00     0.025 A 
HETATM    6  C6  UNL     1       8.700  -5.660  28.736  1.00  0.00     0.034 A 
HETATM    7  C7  UNL     1       7.579  -6.000  29.391  1.00  0.00     0.047 A 
HETATM    8  C14 UNL     1       7.332  -5.517  30.793  1.00  0.00     0.260 A 
HETATM    9  O1  UNL     1       6.295  -5.848  31.368  1.00  0.00    -0.267 OA
HETATM   10  N3  UNL     1       8.306  -4.716  31.365  1.00  0.00    -0.303 N 
HETATM   11  C15 UNL     1       8.128  -4.208  32.714  1.00  0.00     0.161 C 
HETATM   12  C16 UNL     1       9.494  -4.353  30.680  1.00  0.00     0.124 A 
HETATM   13  N4  UNL     1      10.394  -3.570  31.312  1.00  0.00    -0.318 N 
ATOM     14  H4  UNL     1      10.233  -3.245  32.266  1.00  0.00     0.170 HD
ENDROOT
BRANCH   7  15
HETATM   15  C8  UNL     1       6.575  -6.857  28.730  1.00  0.00     0.023 A 
HETATM   16  C9  UNL     1       5.377  -6.313  28.230  1.00  0.00     0.046 A 
HETATM   17 CL1  UNL     1       5.029  -4.620  28.330  1.00  0.00    -0.083 Cl
HETATM   18  C10 UNL     1       4.419  -7.130  27.618  1.00  0.00     0.025 A 
HETATM   19  C11 UNL     1       4.640  -8.501  27.497  1.00  0.00     0.003 A 
HETATM   20  C12 UNL     1       5.821  -9.055  27.986  1.00  0.00     0.025 A 
HETATM   21  C13 UNL     1       6.781  -8.243  28.599  1.00  0.00     0.046 A 
HETATM   22 CL2  UNL     1       8.225  -9.011  29.169  1.00  0.00    -0.083 Cl
ENDBRANCH   7  15
BRANCH   1  23
HETATM   23  N1  UNL     1      12.386  -2.418  31.333  1.00  0.00    -0.264 NA
HETATM   24  H6  UNL     1      12.864  -1.867  30.629  1.00  0.00     0.130 HD
BRANCH  23  25
HETATM   25  C2  UNL     1      11.836  -1.663  32.445  1.00  0.00     0.091 C 
HETATM   26  C1  UNL     1      12.039  -2.403  33.758  1.00  0.00     0.021 C 
ENDBRANCH  23  25
ENDBRANCH   1  23
TORSDOF 3
ENDMDL
MODEL 7
REMARK minimizedAffinity -7.19774675
REMARK  3 active torsions:
REMARK  status: ('A' for Active; 'I' for Inactive)
REMARK    1  A    between atoms: C2_2  and  N1_3 
REMARK    2  A    between atoms: N1_3  and  C3_4 
REMARK    3  A    between atoms: C7_10  and  C8_11 
ROOT
HETATM    1  C3  UNL     1      11.221  -3.420  31.227  1.00  0.00     0.158 A 
HETATM    2  N2  UNL     1      10.413  -3.918  32.170  1.00  0.00    -0.342 N 
ATOM      3  H2  UNL     1      10.516  -3.658  33.151  1.00  0.00     0.167 HD
HETATM    4  C4  UNL     1       9.458  -4.776  31.768  1.00  0.00     0.106 A 
HETATM    5  C5  UNL     1       9.274  -5.151  30.458  1.00  0.00     0.025 A 
HETATM    6  C6  UNL     1       8.239  -6.078  30.030  1.00  0.00     0.034 A 
HETATM    7  C7  UNL     1       8.126  -6.387  28.729  1.00  0.00     0.047 A 
HETATM    8  C14 UNL     1       9.056  -5.786  27.713  1.00  0.00     0.260 A 
HETATM    9  O1  UNL     1       8.926  -6.088  26.527  1.00  0.00    -0.267 OA
HETATM   10  N3  UNL     1      10.023  -4.911  28.182  1.00  0.00    -0.303 N 
HETATM   11  C15 UNL     1      10.960  -4.301  27.255  1.00  0.00     0.161 C 
HETATM   12  C16 UNL     1      10.149  -4.578  29.555  1.00  0.00     0.124 A 
HETATM   13  N4  UNL     1      11.117  -3.714  29.927  1.00  0.00    -0.318 N 
ATOM     14  H4  UNL     1      11.746  -3.300  29.240  1.00  0.00     0.170 HD
ENDROOT
BRANCH   7  15
HETATM   15  C8  UNL     1       7.077  -7.326  28.287  1.00  0.00     0.023 A 
HETATM   16  C9  UNL     1       5.757  -6.888  28.071  1.00  0.00     0.046 A 
HETATM   17 CL1  UNL     1       5.299  -5.231  28.275  1.00  0.00    -0.083 Cl
HETATM   18  C10 UNL     1       4.761  -7.785  27.667  1.00  0.00     0.025 A 
HETATM   19  C11 UNL     1       5.064  -9.131  27.475  1.00  0.00     0.003 A 
HETATM   20  C12 UNL     1       6.366  -9.582  27.684  1.00  0.00     0.025 A 
HETATM   21  C13 UNL     1       7.365  -8.689  28.088  1.00  0.00     0.046 A 
HETATM   22 CL2  UNL     1       8.958  -9.330  28.315  1.00  0.00    -0.083 Cl
ENDBRANCH   7  15
BRANCH   1  23
HETATM   23  N1  UNL     1      12.240  -2.541  31.557  1.00  0.00    -0.264 NA
HETATM   24  H6  UNL     1      12.731  -2.343  30.692  1.00  0.00     0.130 HD
BRANCH  23  25
HETATM   25  C2  UNL     1      11.863  -1.377  32.338  1.00  0.00     0.091 C 
HETATM   26  C1  UNL     1      10.747  -0.603  31.654  1.00  0.00     0.021 C 
ENDBRANCH  23  25
ENDBRANCH   1  23
TORSDOF 3
ENDMDL
MODEL 8
REMARK minimizedAffinity -6.79479265
REMARK  3 active torsions:
REMARK  status: ('A' for Active; 'I' for Inactive)
REMARK    1  A    between atoms: C2_2  and  N1_3 
REMARK    2  A    between atoms: N1_3  and  C3_4 
REMARK    3  A    between atoms: C7_10  and  C8_11 
ROOT
HETATM    1  C3  UNL     1       0.940  -8.324  27.403  1.00  0.00     0.158 A 
HETATM    2  N2  UNL     1       0.858  -7.081  27.895  1.00  0.00    -0.342 N 
ATOM      3  H2  UNL     1      -0.041  -6.614  28.012  1.00  0.00     0.167 HD
HETATM    4  C4  UNL     1       2.013  -6.477  28.227  1.00  0.00     0.106 A 
HETATM    5  C5  UNL     1       3.248  -7.068  28.095  1.00  0.00     0.025 A 
HETATM    6  C6  UNL     1       4.492  -6.410  28.458  1.00  0.00     0.034 A 
HETATM    7  C7  UNL     1       5.654  -7.062  28.301  1.00  0.00     0.047 A 
HETATM    8  C14 UNL     1       5.683  -8.461  27.753  1.00  0.00     0.260 A 
HETATM    9  O1  UNL     1       6.764  -9.033  27.623  1.00  0.00    -0.267 OA
HETATM   10  N3  UNL     1       4.465  -9.034  27.424  1.00  0.00    -0.303 N 
HETATM   11  C15 UNL     1       4.420 -10.381  26.883  1.00  0.00     0.161 C 
HETATM   12  C16 UNL     1       3.231  -8.353  27.589  1.00  0.00     0.124 A 
HETATM   13  N4  UNL     1       2.090  -8.987  27.246  1.00  0.00    -0.318 N 
ATOM     14  H4  UNL     1       2.104  -9.939  26.880  1.00  0.00     0.170 HD
ENDROOT
BRANCH   7  15
HETATM   15  C8  UNL     1       6.921  -6.400  28.668  1.00  0.00     0.023 A 
HETATM   16  C9  UNL     1       7.927  -6.180  27.708  1.00  0.00     0.046 A 
HETATM   17 CL1  UNL     1       7.725  -6.638  26.051  1.00  0.00    -0.083 Cl
HETATM   18  C10 UNL     1       9.134  -5.566  28.062  1.00  0.00     0.025 A 
HETATM   19  C11 UNL     1       9.358  -5.164  29.377  1.00  0.00     0.003 A 
HETATM   20  C12 UNL     1       8.372  -5.373  30.340  1.00  0.00     0.025 A 
HETATM   21  C13 UNL     1       7.164  -5.986  29.991  1.00  0.00     0.046 A 
HETATM   22 CL2  UNL     1       5.989  -6.199  31.246  1.00  0.00    -0.083 Cl
ENDBRANCH   7  15
BRANCH   1  23
HETATM   23  N1  UNL     1      -0.200  -9.012  27.021  1.00  0.00    -0.264 NA
HETATM   24  H6  UNL     1       0.063  -9.561  26.210  1.00  0.00     0.130 HD
BRANCH  23  25
HETATM   25  C2  UNL     1      -0.896  -9.741  28.066  1.00  0.00     0.091 C 
HETATM   26  C1  UNL     1      -2.296  -9.187  28.275  1.00  0.00     0.021 C 
ENDBRANCH  23  25
ENDBRANCH   1  23
TORSDOF 3
ENDMDL
MODEL 9
REMARK minimizedAffinity -6.77070951
REMARK  3 active torsions:
REMARK  status: ('A' for Active; 'I' for Inactive)
REMARK    1  A    between atoms: C2_2  and  N1_3 
REMARK    2  A    between atoms: N1_3  and  C3_4 
REMARK    3  A    between atoms: C7_10  and  C8_11 
ROOT
HETATM    1  C3  UNL     1       6.928  -9.070  28.111  1.00  0.00     0.158 A 
HETATM    2  N2  UNL     1       6.009  -8.118  28.318  1.00  0.00    -0.342 N 
ATOM      3  H2  UNL     1       5.045  -8.231  28.004  1.00  0.00     0.167 HD
HETATM    4  C4  UNL     1       6.414  -7.006  28.959  1.00  0.00     0.106 A 
HETATM    5  C5  UNL     1       7.698  -6.811  29.408  1.00  0.00     0.025 A 
HETATM    6  C6  UNL     1       8.128  -5.608  30.102  1.00  0.00     0.034 A 
HETATM    7  C7  UNL     1       9.401  -5.500  30.511  1.00  0.00     0.047 A 
HETATM    8  C14 UNL     1      10.386  -6.608  30.260  1.00  0.00     0.260 A 
HETATM    9  O1  UNL     1      11.546  -6.480  30.649  1.00  0.00    -0.267 OA
HETATM   10  N3  UNL     1       9.917  -7.728  29.593  1.00  0.00    -0.303 N 
HETATM   11  C15 UNL     1      10.816  -8.833  29.311  1.00  0.00     0.161 C 
HETATM   12  C16 UNL     1       8.572  -7.851  29.158  1.00  0.00     0.124 A 
HETATM   13  N4  UNL     1       8.197  -8.979  28.518  1.00  0.00    -0.318 N 
ATOM     14  H4  UNL     1       8.861  -9.736  28.351  1.00  0.00     0.170 HD
ENDROOT
BRANCH   7  15
HETATM   15  C8  UNL     1       9.844  -4.281  31.216  1.00  0.00     0.023 A 
HETATM   16  C9  UNL     1       9.642  -4.132  32.600  1.00  0.00     0.046 A 
HETATM   17 CL1  UNL     1       8.900  -5.372  33.554  1.00  0.00    -0.083 Cl
HETATM   18  C10 UNL     1      10.049  -2.969  33.263  1.00  0.00     0.025 A 
HETATM   19  C11 UNL     1      10.662  -1.936  32.557  1.00  0.00     0.003 A 
HETATM   20  C12 UNL     1      10.870  -2.067  31.186  1.00  0.00     0.025 A 
HETATM   21  C13 UNL     1      10.465  -3.228  30.518  1.00  0.00     0.046 A 
HETATM   22 CL2  UNL     1      10.772  -3.314  28.816  1.00  0.00    -0.083 Cl
ENDBRANCH   7  15
BRANCH   1  23
HETATM   23  N1  UNL     1       6.599 -10.240  27.446  1.00  0.00    -0.264 NA
HETATM   24  H6  UNL     1       5.657 -10.475  27.741  1.00  0.00     0.130 HD
BRANCH  23  25
HETATM   25  C2  UNL     1       6.822 -10.253  26.012  1.00  0.00     0.091 C 
HETATM   26  C1  UNL     1       7.377  -8.919  25.537  1.00  0.00     0.021 C 
ENDBRANCH  23  25
ENDBRANCH   1  23
TORSDOF 3
ENDMDL
