MODEL 1
REMARK minimizedAffinity -7.03938913
REMARK CNNscore 0.765499234
REMARK CNNaffinity 6.77495241
REMARK  8 active torsions:
REMARK  status: ('A' for Active; 'I' for Inactive)
REMARK    1  A    between atoms: C2_2  and  C3_3 
REMARK       I    between atoms: C3_3  and  N1_5 
REMARK    2  A    between atoms: N1_5  and  C4_6 
REMARK    3  A    between atoms: C7_9  and  O2_10 
REMARK    4  A    between atoms: C9_12  and  N2_13 
REMARK    5  A    between atoms: N2_13  and  C10_14 
REMARK    6  A    between atoms: C12_16  and  C13_17 
REMARK    7  A    between atoms: C14_18  and  C15_19 
REMARK    8  A    between atoms: C21_28  and  S1_29 
ROOT
HETATM    1  C10 UNL     1      16.117  54.594   4.354  1.00  0.00     0.106 A 
HETATM    2  C11 UNL     1      16.124  55.703   3.511  1.00  0.00     0.062 A 
HETATM    3  C12 UNL     1      14.923  56.349   3.208  1.00  0.00    -0.002 A 
HETATM    4  C24 UNL     1      13.739  55.864   3.752  1.00  0.00     0.031 A 
HETATM    5  C25 UNL     1      13.815  54.762   4.580  1.00  0.00     0.090 A 
HETATM    6  N5  UNL     1      14.969  54.136   4.892  1.00  0.00    -0.352 N 
ATOM      7  H5  UNL     1      14.972  53.332   5.521  1.00  0.00     0.166 HD
ENDROOT
BRANCH   1   8
HETATM    8  N2  UNL     1      17.348  53.954   4.607  1.00  0.00    -0.340 N 
HETATM    9  H10 UNL     1      18.086  54.638   4.753  1.00  0.00     0.167 HD
BRANCH   8  10
HETATM   10  C9  UNL     1      17.594  52.828   5.440  1.00  0.00     0.069 A 
HETATM   11  C7  UNL     1      18.619  52.917   6.408  1.00  0.00     0.095 A 
HETATM   12  C6  UNL     1      18.915  51.813   7.207  1.00  0.00     0.041 A 
HETATM   13  C5  UNL     1      18.214  50.617   7.034  1.00  0.00     0.032 A 
HETATM   14  C4  UNL     1      17.215  50.500   6.061  1.00  0.00     0.037 A 
HETATM   15  C26 UNL     1      16.916  51.609   5.265  1.00  0.00     0.062 A 
BRANCH  11  16
HETATM   16  O2  UNL     1      19.247  54.140   6.483  1.00  0.00    -0.354 OA
HETATM   17  C8  UNL     1      19.158  54.834   7.721  1.00  0.00     0.210 C 
ENDBRANCH  11  16
BRANCH  14  18
HETATM   18  N1  UNL     1      16.584  49.243   5.942  1.00  0.00    -0.324 N 
HETATM   19  C3  UNL     1      17.151  47.999   6.099  1.00  0.00     0.244 C 
HETATM   20  O1  UNL     1      18.323  47.724   6.315  1.00  0.00    -0.268 OA
HETATM   21  H4  UNL     1      15.609  49.263   5.681  1.00  0.00     0.169 HD
BRANCH  19  22
HETATM   22  C2  UNL     1      16.190  46.874   5.917  1.00  0.00     0.064 C 
HETATM   23  C1  UNL     1      14.969  46.808   6.466  1.00  0.00     0.017 C 
ENDBRANCH  19  22
ENDBRANCH  14  18
ENDBRANCH   8  10
ENDBRANCH   1   8
BRANCH   3  24
HETATM   24  C13 UNL     1      14.906  57.499   2.309  1.00  0.00     0.074 A 
HETATM   25  C14 UNL     1      14.621  57.606   0.950  1.00  0.00     0.072 A 
HETATM   26  N3  UNL     1      14.688  58.917   0.535  1.00  0.00    -0.334 N 
HETATM   27  C21 UNL     1      15.025  59.604   1.597  1.00  0.00     0.146 A 
ATOM     28  H3  UNL     1      14.511  59.278  -0.402  1.00  0.00     0.168 HD
HETATM   29  N4  UNL     1      15.140  58.807   2.706  1.00  0.00    -0.329 N 
HETATM   30  C23 UNL     1      15.418  59.261   4.050  1.00  0.00     0.158 C 
BRANCH  25  31
HETATM   31  C15 UNL     1      14.262  56.537   0.028  1.00  0.00    -0.007 A 
HETATM   32  C16 UNL     1      15.226  55.775  -0.647  1.00  0.00     0.017 A 
HETATM   33  C17 UNL     1      14.839  54.757  -1.524  1.00  0.00     0.043 A 
HETATM   34  C18 UNL     1      13.488  54.510  -1.734  1.00  0.00     0.116 A 
HETATM   35  F1  UNL     1      13.119  53.534  -2.575  1.00  0.00    -0.206 F 
HETATM   36  C19 UNL     1      12.516  55.264  -1.091  1.00  0.00     0.043 A 
HETATM   37  C20 UNL     1      12.904  56.278  -0.213  1.00  0.00     0.017 A 
ENDBRANCH  25  31
BRANCH  27  38
HETATM   38  S1  UNL     1      15.302  61.315   1.628  1.00  0.00    -0.098 SA
HETATM   39  C22 UNL     1      13.613  61.927   1.435  1.00  0.00     0.099 C 
ENDBRANCH  27  38
ENDBRANCH   3  24
TORSDOF 8
ENDMDL
MODEL 2
REMARK minimizedAffinity -7.26820087
REMARK CNNscore 0.730834186
REMARK CNNaffinity 6.73521185
REMARK  8 active torsions:
REMARK  status: ('A' for Active; 'I' for Inactive)
REMARK    1  A    between atoms: C2_2  and  C3_3 
REMARK       I    between atoms: C3_3  and  N1_5 
REMARK    2  A    between atoms: N1_5  and  C4_6 
REMARK    3  A    between atoms: C7_9  and  O2_10 
REMARK    4  A    between atoms: C9_12  and  N2_13 
REMARK    5  A    between atoms: N2_13  and  C10_14 
REMARK    6  A    between atoms: C12_16  and  C13_17 
REMARK    7  A    between atoms: C14_18  and  C15_19 
REMARK    8  A    between atoms: C21_28  and  S1_29 
ROOT
HETATM    1  C10 UNL     1      13.086  54.167  -1.743  1.00  0.00     0.106 A 
HETATM    2  C11 UNL     1      12.824  55.275  -0.939  1.00  0.00     0.062 A 
HETATM    3  C12 UNL     1      13.885  56.050  -0.464  1.00  0.00    -0.002 A 
HETATM    4  C24 UNL     1      15.186  55.694  -0.800  1.00  0.00     0.031 A 
HETATM    5  C25 UNL     1      15.362  54.583  -1.602  1.00  0.00     0.090 A 
HETATM    6  N5  UNL     1      14.347  53.832  -2.078  1.00  0.00    -0.352 N 
ATOM      7  H5  UNL     1      14.531  53.029  -2.679  1.00  0.00     0.166 HD
ENDROOT
BRANCH   1   8
HETATM    8  N2  UNL     1      11.986  53.395  -2.173  1.00  0.00    -0.340 N 
HETATM    9  H10 UNL     1      11.358  53.951  -2.747  1.00  0.00     0.167 HD
BRANCH   8  10
HETATM   10  C9  UNL     1      11.993  52.059  -2.661  1.00  0.00     0.069 A 
HETATM   11  C7  UNL     1      12.372  51.835  -4.004  1.00  0.00     0.095 A 
HETATM   12  C6  UNL     1      12.343  50.542  -4.525  1.00  0.00     0.041 A 
HETATM   13  C5  UNL     1      11.918  49.476  -3.727  1.00  0.00     0.032 A 
HETATM   14  C4  UNL     1      11.511  49.682  -2.403  1.00  0.00     0.037 A 
HETATM   15  C26 UNL     1      11.547  50.978  -1.882  1.00  0.00     0.062 A 
BRANCH  11  16
HETATM   16  O2  UNL     1      12.762  52.960  -4.696  1.00  0.00    -0.354 OA
HETATM   17  C8  UNL     1      12.014  53.292  -5.858  1.00  0.00     0.210 C 
ENDBRANCH  11  16
BRANCH  14  18
HETATM   18  N1  UNL     1      11.072  48.548  -1.688  1.00  0.00    -0.324 N 
HETATM   19  C3  UNL     1       9.886  47.866  -1.837  1.00  0.00     0.244 C 
HETATM   20  O1  UNL     1       8.949  48.131  -2.577  1.00  0.00    -0.268 OA
HETATM   21  H4  UNL     1      11.690  48.221  -0.960  1.00  0.00     0.169 HD
BRANCH  19  22
HETATM   22  C2  UNL     1       9.747  46.696  -0.924  1.00  0.00     0.064 C 
HETATM   23  C1  UNL     1      10.765  45.970  -0.442  1.00  0.00     0.017 C 
ENDBRANCH  19  22
ENDBRANCH  14  18
ENDBRANCH   8  10
ENDBRANCH   1   8
BRANCH   3  24
HETATM   24  C13 UNL     1      13.634  57.203   0.396  1.00  0.00     0.074 A 
HETATM   25  C14 UNL     1      13.783  57.381   1.769  1.00  0.00     0.072 A 
HETATM   26  N3  UNL     1      13.464  58.668   2.136  1.00  0.00    -0.334 N 
HETATM   27  C21 UNL     1      13.105  59.269   1.030  1.00  0.00     0.146 A 
ATOM     28  H3  UNL     1      13.499  59.071   3.073  1.00  0.00     0.168 HD
HETATM   29  N4  UNL     1      13.218  58.444  -0.059  1.00  0.00    -0.329 N 
HETATM   30  C23 UNL     1      12.979  58.820  -1.434  1.00  0.00     0.158 C 
BRANCH  25  31
HETATM   31  C15 UNL     1      14.239  56.405   2.750  1.00  0.00    -0.007 A 
HETATM   32  C16 UNL     1      13.351  55.702   3.576  1.00  0.00     0.017 A 
HETATM   33  C17 UNL     1      13.831  54.772   4.504  1.00  0.00     0.043 A 
HETATM   34  C18 UNL     1      15.199  54.556   4.614  1.00  0.00     0.116 A 
HETATM   35  F1  UNL     1      15.657  53.666   5.504  1.00  0.00    -0.206 F 
HETATM   36  C19 UNL     1      16.098  55.253   3.819  1.00  0.00     0.043 A 
HETATM   37  C20 UNL     1      15.618  56.178   2.890  1.00  0.00     0.017 A 
ENDBRANCH  25  31
BRANCH  27  38
HETATM   38  S1  UNL     1      12.548  60.907   0.923  1.00  0.00    -0.098 SA
HETATM   39  C22 UNL     1      13.094  61.547   2.522  1.00  0.00     0.099 C 
ENDBRANCH  27  38
ENDBRANCH   3  24
TORSDOF 8
ENDMDL
MODEL 3
REMARK minimizedAffinity -7.06555557
REMARK CNNscore 0.635041952
REMARK CNNaffinity 6.78320074
REMARK  8 active torsions:
REMARK  status: ('A' for Active; 'I' for Inactive)
REMARK    1  A    between atoms: C2_2  and  C3_3 
REMARK       I    between atoms: C3_3  and  N1_5 
REMARK    2  A    between atoms: N1_5  and  C4_6 
REMARK    3  A    between atoms: C7_9  and  O2_10 
REMARK    4  A    between atoms: C9_12  and  N2_13 
REMARK    5  A    between atoms: N2_13  and  C10_14 
REMARK    6  A    between atoms: C12_16  and  C13_17 
REMARK    7  A    between atoms: C14_18  and  C15_19 
REMARK    8  A    between atoms: C21_28  and  S1_29 
ROOT
HETATM    1  C10 UNL     1      13.087  54.448  -1.749  1.00  0.00     0.106 A 
HETATM    2  C11 UNL     1      14.127  55.167  -1.163  1.00  0.00     0.062 A 
HETATM    3  C12 UNL     1      13.853  56.373  -0.513  1.00  0.00    -0.002 A 
HETATM    4  C24 UNL     1      12.542  56.835  -0.470  1.00  0.00     0.031 A 
HETATM    5  C25 UNL     1      11.568  56.064  -1.072  1.00  0.00     0.090 A 
HETATM    6  N5  UNL     1      11.816  54.892  -1.693  1.00  0.00    -0.352 N 
ATOM      7  H5  UNL     1      11.057  54.352  -2.111  1.00  0.00     0.166 HD
ENDROOT
BRANCH   1   8
HETATM    8  N2  UNL     1      13.415  53.252  -2.423  1.00  0.00    -0.340 N 
HETATM    9  H10 UNL     1      14.243  52.825  -2.016  1.00  0.00     0.167 HD
BRANCH   8  10
HETATM   10  C9  UNL     1      12.534  52.224  -2.858  1.00  0.00     0.069 A 
HETATM   11  C7  UNL     1      12.305  52.074  -4.244  1.00  0.00     0.095 A 
HETATM   12  C6  UNL     1      11.410  51.107  -4.697  1.00  0.00     0.041 A 
HETATM   13  C5  UNL     1      10.724  50.304  -3.781  1.00  0.00     0.032 A 
HETATM   14  C4  UNL     1      10.914  50.458  -2.403  1.00  0.00     0.037 A 
HETATM   15  C26 UNL     1      11.816  51.425  -1.951  1.00  0.00     0.062 A 
BRANCH  11  16
HETATM   16  O2  UNL     1      13.029  52.924  -5.050  1.00  0.00    -0.354 OA
HETATM   17  C8  UNL     1      12.295  53.895  -5.784  1.00  0.00     0.210 C 
ENDBRANCH  11  16
BRANCH  14  18
HETATM   18  N1  UNL     1      10.154  49.622  -1.557  1.00  0.00    -0.324 N 
HETATM   19  C3  UNL     1      10.461  48.349  -1.135  1.00  0.00     0.244 C 
HETATM   20  O1  UNL     1      11.423  47.661  -1.446  1.00  0.00    -0.268 OA
HETATM   21  H4  UNL     1       9.265  49.994  -1.255  1.00  0.00     0.169 HD
BRANCH  19  22
HETATM   22  C2  UNL     1       9.438  47.754  -0.230  1.00  0.00     0.064 C 
HETATM   23  C1  UNL     1       9.500  46.525   0.301  1.00  0.00     0.017 C 
ENDBRANCH  19  22
ENDBRANCH  14  18
ENDBRANCH   8  10
ENDBRANCH   1   8
BRANCH   3  24
HETATM   24  C13 UNL     1      14.931  57.152   0.089  1.00  0.00     0.074 A 
HETATM   25  C14 UNL     1      15.483  57.133   1.367  1.00  0.00     0.072 A 
HETATM   26  N3  UNL     1      16.527  58.025   1.465  1.00  0.00    -0.334 N 
HETATM   27  C21 UNL     1      16.610  58.599   0.292  1.00  0.00     0.146 A 
ATOM     28  H3  UNL     1      17.113  58.203   2.281  1.00  0.00     0.168 HD
HETATM   29  N4  UNL     1      15.693  58.089  -0.591  1.00  0.00    -0.329 N 
HETATM   30  C23 UNL     1      15.575  58.445  -1.987  1.00  0.00     0.158 C 
BRANCH  25  31
HETATM   31  C15 UNL     1      15.093  56.296   2.494  1.00  0.00    -0.007 A 
HETATM   32  C16 UNL     1      13.757  56.157   2.897  1.00  0.00     0.017 A 
HETATM   33  C17 UNL     1      13.426  55.343   3.984  1.00  0.00     0.043 A 
HETATM   34  C18 UNL     1      14.431  54.678   4.675  1.00  0.00     0.116 A 
HETATM   35  F1  UNL     1      14.112  53.898   5.716  1.00  0.00    -0.206 F 
HETATM   36  C19 UNL     1      15.762  54.814   4.305  1.00  0.00     0.043 A 
HETATM   37  C20 UNL     1      16.092  55.625   3.216  1.00  0.00     0.017 A 
ENDBRANCH  25  31
BRANCH  27  38
HETATM   38  S1  UNL     1      17.730  59.853  -0.125  1.00  0.00    -0.098 SA
HETATM   39  C22 UNL     1      19.113  59.437   0.961  1.00  0.00     0.099 C 
ENDBRANCH  27  38
ENDBRANCH   3  24
TORSDOF 8
ENDMDL
MODEL 4
REMARK minimizedAffinity -6.02650595
REMARK CNNscore 0.606893778
REMARK CNNaffinity 6.94871283
REMARK  8 active torsions:
REMARK  status: ('A' for Active; 'I' for Inactive)
REMARK    1  A    between atoms: C2_2  and  C3_3 
REMARK       I    between atoms: C3_3  and  N1_5 
REMARK    2  A    between atoms: N1_5  and  C4_6 
REMARK    3  A    between atoms: C7_9  and  O2_10 
REMARK    4  A    between atoms: C9_12  and  N2_13 
REMARK    5  A    between atoms: N2_13  and  C10_14 
REMARK    6  A    between atoms: C12_16  and  C13_17 
REMARK    7  A    between atoms: C14_18  and  C15_19 
REMARK    8  A    between atoms: C21_28  and  S1_29 
ROOT
HETATM    1  C10 UNL     1      12.980  57.615  -0.272  1.00  0.00     0.106 A 
HETATM    2  C11 UNL     1      12.443  56.528  -0.957  1.00  0.00     0.062 A 
HETATM    3  C12 UNL     1      12.870  56.251  -2.259  1.00  0.00    -0.002 A 
HETATM    4  C24 UNL     1      13.822  57.076  -2.847  1.00  0.00     0.031 A 
HETATM    5  C25 UNL     1      14.307  58.133  -2.102  1.00  0.00     0.090 A 
HETATM    6  N5  UNL     1      13.913  58.404  -0.840  1.00  0.00    -0.352 N 
ATOM      7  H5  UNL     1      14.313  59.190  -0.327  1.00  0.00     0.166 HD
ENDROOT
BRANCH   1   8
HETATM    8  N2  UNL     1      12.495  57.875   1.028  1.00  0.00    -0.340 N 
HETATM    9  H10 UNL     1      12.053  57.047   1.419  1.00  0.00     0.167 HD
BRANCH   8  10
HETATM   10  C9  UNL     1      13.140  58.590   2.074  1.00  0.00     0.069 A 
HETATM   11  C7  UNL     1      13.926  57.867   2.999  1.00  0.00     0.095 A 
HETATM   12  C6  UNL     1      14.532  58.533   4.063  1.00  0.00     0.041 A 
HETATM   13  C5  UNL     1      14.342  59.908   4.226  1.00  0.00     0.032 A 
HETATM   14  C4  UNL     1      13.543  60.637   3.338  1.00  0.00     0.037 A 
HETATM   15  C26 UNL     1      12.942  59.968   2.269  1.00  0.00     0.062 A 
BRANCH  11  16
HETATM   16  O2  UNL     1      14.036  56.518   2.743  1.00  0.00    -0.354 OA
HETATM   17  C8  UNL     1      13.571  55.632   3.754  1.00  0.00     0.210 C 
ENDBRANCH  11  16
BRANCH  14  18
HETATM   18  N1  UNL     1      13.388  62.014   3.603  1.00  0.00    -0.324 N 
HETATM   19  C3  UNL     1      12.435  62.618   4.392  1.00  0.00     0.244 C 
HETATM   20  O1  UNL     1      11.497  62.095   4.978  1.00  0.00    -0.268 OA
HETATM   21  H4  UNL     1      14.035  62.628   3.131  1.00  0.00     0.169 HD
BRANCH  19  22
HETATM   22  C2  UNL     1      12.570  64.100   4.467  1.00  0.00     0.064 C 
HETATM   23  C1  UNL     1      12.374  64.836   5.570  1.00  0.00     0.017 C 
ENDBRANCH  19  22
ENDBRANCH  14  18
ENDBRANCH   8  10
ENDBRANCH   1   8
BRANCH   3  24
HETATM   24  C13 UNL     1      12.304  55.129  -3.003  1.00  0.00     0.074 A 
HETATM   25  C14 UNL     1      11.320  55.075  -3.986  1.00  0.00     0.072 A 
HETATM   26  N3  UNL     1      11.146  53.786  -4.437  1.00  0.00    -0.334 N 
HETATM   27  C21 UNL     1      11.979  53.056  -3.742  1.00  0.00     0.146 A 
ATOM     28  H3  UNL     1      10.502  53.467  -5.162  1.00  0.00     0.168 HD
HETATM   29  N4  UNL     1      12.729  53.816  -2.881  1.00  0.00    -0.329 N 
HETATM   30  C23 UNL     1      13.794  53.331  -2.033  1.00  0.00     0.158 C 
BRANCH  25  31
HETATM   31  C15 UNL     1      10.553  56.182  -4.542  1.00  0.00    -0.007 A 
HETATM   32  C16 UNL     1       9.577  56.864  -3.802  1.00  0.00     0.017 A 
HETATM   33  C17 UNL     1       8.864  57.923  -4.374  1.00  0.00     0.043 A 
HETATM   34  C18 UNL     1       9.119  58.290  -5.689  1.00  0.00     0.116 A 
HETATM   35  F1  UNL     1       8.435  59.304  -6.235  1.00  0.00    -0.206 F 
HETATM   36  C19 UNL     1      10.069  57.618  -6.447  1.00  0.00     0.043 A 
HETATM   37  C20 UNL     1      10.783  56.563  -5.874  1.00  0.00     0.017 A 
ENDBRANCH  25  31
BRANCH  27  38
HETATM   38  S1  UNL     1      12.139  51.335  -3.868  1.00  0.00    -0.098 SA
HETATM   39  C22 UNL     1      11.126  50.805  -2.468  1.00  0.00     0.099 C 
ENDBRANCH  27  38
ENDBRANCH   3  24
TORSDOF 8
ENDMDL
MODEL 5
REMARK minimizedAffinity -6.61389971
REMARK CNNscore 0.6054914
REMARK CNNaffinity 6.74671888
REMARK  8 active torsions:
REMARK  status: ('A' for Active; 'I' for Inactive)
REMARK    1  A    between atoms: C2_2  and  C3_3 
REMARK       I    between atoms: C3_3  and  N1_5 
REMARK    2  A    between atoms: N1_5  and  C4_6 
REMARK    3  A    between atoms: C7_9  and  O2_10 
REMARK    4  A    between atoms: C9_12  and  N2_13 
REMARK    5  A    between atoms: N2_13  and  C10_14 
REMARK    6  A    between atoms: C12_16  and  C13_17 
REMARK    7  A    between atoms: C14_18  and  C15_19 
REMARK    8  A    between atoms: C21_28  and  S1_29 
ROOT
HETATM    1  C10 UNL     1      16.316  53.697   5.183  1.00  0.00     0.106 A 
HETATM    2  C11 UNL     1      16.289  55.003   4.701  1.00  0.00     0.062 A 
HETATM    3  C12 UNL     1      15.062  55.627   4.464  1.00  0.00    -0.002 A 
HETATM    4  C24 UNL     1      13.887  54.924   4.710  1.00  0.00     0.031 A 
HETATM    5  C25 UNL     1      13.999  53.634   5.189  1.00  0.00     0.090 A 
HETATM    6  N5  UNL     1      15.176  53.023   5.434  1.00  0.00    -0.352 N 
ATOM      7  H5  UNL     1      15.204  52.071   5.802  1.00  0.00     0.166 HD
ENDROOT
BRANCH   1   8
HETATM    8  N2  UNL     1      17.578  53.095   5.378  1.00  0.00    -0.340 N 
HETATM    9  H10 UNL     1      18.211  53.733   5.854  1.00  0.00     0.167 HD
BRANCH   8  10
HETATM   10  C9  UNL     1      17.858  51.768   5.803  1.00  0.00     0.069 A 
HETATM   11  C7  UNL     1      18.733  51.580   6.896  1.00  0.00     0.095 A 
HETATM   12  C6  UNL     1      19.064  50.289   7.305  1.00  0.00     0.041 A 
HETATM   13  C5  UNL     1      18.548  49.185   6.620  1.00  0.00     0.032 A 
HETATM   14  C4  UNL     1      17.703  49.350   5.517  1.00  0.00     0.037 A 
HETATM   15  C26 UNL     1      17.369  50.645   5.112  1.00  0.00     0.062 A 
BRANCH  11  16
HETATM   16  O2  UNL     1      19.186  52.739   7.487  1.00  0.00    -0.354 OA
HETATM   17  C8  UNL     1      19.359  52.716   8.898  1.00  0.00     0.210 C 
ENDBRANCH  11  16
BRANCH  14  18
HETATM   18  N1  UNL     1      17.258  48.176   4.874  1.00  0.00    -0.324 N 
HETATM   19  C3  UNL     1      16.224  47.349   5.252  1.00  0.00     0.244 C 
HETATM   20  O1  UNL     1      15.518  47.429   6.247  1.00  0.00    -0.268 OA
HETATM   21  H4  UNL     1      17.783  47.895   4.059  1.00  0.00     0.169 HD
BRANCH  19  22
HETATM   22  C2  UNL     1      16.012  46.195   4.334  1.00  0.00     0.064 C 
HETATM   23  C1  UNL     1      15.245  46.215   3.235  1.00  0.00     0.017 C 
ENDBRANCH  19  22
ENDBRANCH  14  18
ENDBRANCH   8  10
ENDBRANCH   1   8
BRANCH   3  24
HETATM   24  C13 UNL     1      15.011  56.988   3.938  1.00  0.00     0.074 A 
HETATM   25  C14 UNL     1      14.724  58.205   4.550  1.00  0.00     0.072 A 
HETATM   26  N3  UNL     1      14.845  59.246   3.657  1.00  0.00    -0.334 N 
HETATM   27  C21 UNL     1      15.176  58.693   2.518  1.00  0.00     0.146 A 
ATOM     28  H3  UNL     1      14.707  60.239   3.843  1.00  0.00     0.168 HD
HETATM   29  N4  UNL     1      15.323  57.335   2.632  1.00  0.00    -0.329 N 
HETATM   30  C23 UNL     1      15.760  56.439   1.585  1.00  0.00     0.158 C 
BRANCH  25  31
HETATM   31  C15 UNL     1      14.368  58.440   5.943  1.00  0.00    -0.007 A 
HETATM   32  C16 UNL     1      15.004  57.776   7.001  1.00  0.00     0.017 A 
HETATM   33  C17 UNL     1      14.632  58.031   8.325  1.00  0.00     0.043 A 
HETATM   34  C18 UNL     1      13.616  58.941   8.588  1.00  0.00     0.116 A 
HETATM   35  F1  UNL     1      13.260  59.184   9.857  1.00  0.00    -0.206 F 
HETATM   36  C19 UNL     1      12.960  59.597   7.556  1.00  0.00     0.043 A 
HETATM   37  C20 UNL     1      13.334  59.344   6.234  1.00  0.00     0.017 A 
ENDBRANCH  25  31
BRANCH  27  38
HETATM   38  S1  UNL     1      15.406  59.547   1.027  1.00  0.00    -0.098 SA
HETATM   39  C22 UNL     1      13.752  59.414   0.311  1.00  0.00     0.099 C 
ENDBRANCH  27  38
ENDBRANCH   3  24
TORSDOF 8
ENDMDL
MODEL 6
REMARK minimizedAffinity -6.9428606
REMARK CNNscore 0.582504034
REMARK CNNaffinity 6.25679207
REMARK  8 active torsions:
REMARK  status: ('A' for Active; 'I' for Inactive)
REMARK    1  A    between atoms: C2_2  and  C3_3 
REMARK       I    between atoms: C3_3  and  N1_5 
REMARK    2  A    between atoms: N1_5  and  C4_6 
REMARK    3  A    between atoms: C7_9  and  O2_10 
REMARK    4  A    between atoms: C9_12  and  N2_13 
REMARK    5  A    between atoms: N2_13  and  C10_14 
REMARK    6  A    between atoms: C12_16  and  C13_17 
REMARK    7  A    between atoms: C14_18  and  C15_19 
REMARK    8  A    between atoms: C21_28  and  S1_29 
ROOT
HETATM    1  C10 UNL     1      13.515  56.046  -0.142  1.00  0.00     0.106 A 
HETATM    2  C11 UNL     1      13.325  56.491   1.164  1.00  0.00     0.062 A 
HETATM    3  C12 UNL     1      14.308  57.271   1.779  1.00  0.00    -0.002 A 
HETATM    4  C24 UNL     1      15.465  57.581   1.071  1.00  0.00     0.031 A 
HETATM    5  C25 UNL     1      15.577  57.104  -0.220  1.00  0.00     0.090 A 
HETATM    6  N5  UNL     1      14.630  56.361  -0.830  1.00  0.00    -0.352 N 
ATOM      7  H5  UNL     1      14.756  56.044  -1.792  1.00  0.00     0.166 HD
ENDROOT
BRANCH   1   8
HETATM    8  N2  UNL     1      12.510  55.235  -0.711  1.00  0.00    -0.340 N 
HETATM    9  H10 UNL     1      11.704  55.174  -0.093  1.00  0.00     0.167 HD
BRANCH   8  10
HETATM   10  C9  UNL     1      12.058  55.220  -2.059  1.00  0.00     0.069 A 
HETATM   11  C7  UNL     1      12.707  54.365  -2.977  1.00  0.00     0.095 A 
HETATM   12  C6  UNL     1      12.318  54.363  -4.316  1.00  0.00     0.041 A 
HETATM   13  C5  UNL     1      11.305  55.222  -4.751  1.00  0.00     0.032 A 
HETATM   14  C4  UNL     1      10.671  56.098  -3.863  1.00  0.00     0.037 A 
HETATM   15  C26 UNL     1      11.058  56.094  -2.520  1.00  0.00     0.062 A 
BRANCH  11  16
HETATM   16  O2  UNL     1      13.695  53.570  -2.438  1.00  0.00    -0.354 OA
HETATM   17  C8  UNL     1      13.387  52.194  -2.261  1.00  0.00     0.210 C 
ENDBRANCH  11  16
BRANCH  14  18
HETATM   18  N1  UNL     1       9.681  56.947  -4.403  1.00  0.00    -0.324 N 
HETATM   19  C3  UNL     1       9.727  58.316  -4.534  1.00  0.00     0.244 C 
HETATM   20  O1  UNL     1      10.605  59.083  -4.163  1.00  0.00    -0.268 OA
HETATM   21  H4  UNL     1       8.828  56.495  -4.696  1.00  0.00     0.169 HD
BRANCH  19  22
HETATM   22  C2  UNL     1       8.509  58.900  -5.164  1.00  0.00     0.064 C 
HETATM   23  C1  UNL     1       8.490  59.588  -6.314  1.00  0.00     0.017 C 
ENDBRANCH  19  22
ENDBRANCH  14  18
ENDBRANCH   8  10
ENDBRANCH   1   8
BRANCH   3  24
HETATM   24  C13 UNL     1      14.139  57.729   3.155  1.00  0.00     0.074 A 
HETATM   25  C14 UNL     1      14.388  57.105   4.374  1.00  0.00     0.072 A 
HETATM   26  N3  UNL     1      14.118  57.952   5.425  1.00  0.00    -0.334 N 
HETATM   27  C21 UNL     1      13.692  59.063   4.879  1.00  0.00     0.146 A 
ATOM     28  H3  UNL     1      14.226  57.756   6.420  1.00  0.00     0.168 HD
HETATM   29  N4  UNL     1      13.713  59.000   3.510  1.00  0.00    -0.329 N 
HETATM   30  C23 UNL     1      13.385  60.080   2.607  1.00  0.00     0.158 C 
BRANCH  25  31
HETATM   31  C15 UNL     1      14.895  55.758   4.598  1.00  0.00    -0.007 A 
HETATM   32  C16 UNL     1      14.078  54.717   5.062  1.00  0.00     0.017 A 
HETATM   33  C17 UNL     1      14.605  53.438   5.264  1.00  0.00     0.043 A 
HETATM   34  C18 UNL     1      15.951  53.203   5.013  1.00  0.00     0.116 A 
HETATM   35  F1  UNL     1      16.454  51.977   5.207  1.00  0.00    -0.206 F 
HETATM   36  C19 UNL     1      16.783  54.222   4.570  1.00  0.00     0.043 A 
HETATM   37  C20 UNL     1      16.255  55.499   4.366  1.00  0.00     0.017 A 
ENDBRANCH  25  31
BRANCH  27  38
HETATM   38  S1  UNL     1      13.158  60.460   5.754  1.00  0.00    -0.098 SA
HETATM   39  C22 UNL     1      13.526  61.761   4.555  1.00  0.00     0.099 C 
ENDBRANCH  27  38
ENDBRANCH   3  24
TORSDOF 8
ENDMDL
MODEL 7
REMARK minimizedAffinity -7.08704805
REMARK CNNscore 0.54048717
REMARK CNNaffinity 6.41406393
REMARK  8 active torsions:
REMARK  status: ('A' for Active; 'I' for Inactive)
REMARK    1  A    between atoms: C2_2  and  C3_3 
REMARK       I    between atoms: C3_3  and  N1_5 
REMARK    2  A    between atoms: N1_5  and  C4_6 
REMARK    3  A    between atoms: C7_9  and  O2_10 
REMARK    4  A    between atoms: C9_12  and  N2_13 
REMARK    5  A    between atoms: N2_13  and  C10_14 
REMARK    6  A    between atoms: C12_16  and  C13_17 
REMARK    7  A    between atoms: C14_18  and  C15_19 
REMARK    8  A    between atoms: C21_28  and  S1_29 
ROOT
HETATM    1  C10 UNL     1      13.690  55.708  -0.568  1.00  0.00     0.106 A 
HETATM    2  C11 UNL     1      13.389  56.248   0.681  1.00  0.00     0.062 A 
HETATM    3  C12 UNL     1      14.390  56.884   1.419  1.00  0.00    -0.002 A 
HETATM    4  C24 UNL     1      15.674  56.960   0.891  1.00  0.00     0.031 A 
HETATM    5  C25 UNL     1      15.892  56.403  -0.354  1.00  0.00     0.090 A 
HETATM    6  N5  UNL     1      14.933  55.796  -1.083  1.00  0.00    -0.352 N 
ATOM      7  H5  UNL     1      15.143  55.412  -2.005  1.00  0.00     0.166 HD
ENDROOT
BRANCH   1   8
HETATM    8  N2  UNL     1      12.656  55.046  -1.263  1.00  0.00    -0.340 N 
HETATM    9  H10 UNL     1      11.933  55.704  -1.544  1.00  0.00     0.167 HD
BRANCH   8  10
HETATM   10  C9  UNL     1      12.779  54.043  -2.263  1.00  0.00     0.069 A 
HETATM   11  C7  UNL     1      12.021  54.177  -3.448  1.00  0.00     0.095 A 
HETATM   12  C6  UNL     1      12.083  53.185  -4.426  1.00  0.00     0.041 A 
HETATM   13  C5  UNL     1      12.875  52.052  -4.223  1.00  0.00     0.032 A 
HETATM   14  C4  UNL     1      13.610  51.887  -3.043  1.00  0.00     0.037 A 
HETATM   15  C26 UNL     1      13.550  52.884  -2.067  1.00  0.00     0.062 A 
BRANCH  11  16
HETATM   16  O2  UNL     1      11.271  55.329  -3.535  1.00  0.00    -0.354 OA
HETATM   17  C8  UNL     1      11.358  56.236  -2.444  1.00  0.00     0.210 C 
ENDBRANCH  11  16
BRANCH  14  18
HETATM   18  N1  UNL     1      14.356  50.695  -2.919  1.00  0.00    -0.324 N 
HETATM   19  C3  UNL     1      14.042  49.579  -2.177  1.00  0.00     0.244 C 
HETATM   20  O1  UNL     1      13.086  49.410  -1.433  1.00  0.00    -0.268 OA
HETATM   21  H4  UNL     1      15.239  50.677  -3.408  1.00  0.00     0.169 HD
BRANCH  19  22
HETATM   22  C2  UNL     1      15.050  48.486  -2.282  1.00  0.00     0.064 C 
HETATM   23  C1  UNL     1      16.354  48.662  -2.535  1.00  0.00     0.017 C 
ENDBRANCH  19  22
ENDBRANCH  14  18
ENDBRANCH   8  10
ENDBRANCH   1   8
BRANCH   3  24
HETATM   24  C13 UNL     1      14.100  57.437   2.739  1.00  0.00     0.074 A 
HETATM   25  C14 UNL     1      14.318  56.936   4.019  1.00  0.00     0.072 A 
HETATM   26  N3  UNL     1      13.919  57.840   4.977  1.00  0.00    -0.334 N 
HETATM   27  C21 UNL     1      13.447  58.866   4.315  1.00  0.00     0.146 A 
ATOM     28  H3  UNL     1      13.979  57.734   5.989  1.00  0.00     0.168 HD
HETATM   29  N4  UNL     1      13.559  58.695   2.959  1.00  0.00    -0.329 N 
HETATM   30  C23 UNL     1      13.209  59.669   1.951  1.00  0.00     0.158 C 
BRANCH  25  31
HETATM   31  C15 UNL     1      14.909  55.655   4.386  1.00  0.00    -0.007 A 
HETATM   32  C16 UNL     1      14.144  54.594   4.891  1.00  0.00     0.017 A 
HETATM   33  C17 UNL     1      14.751  53.381   5.230  1.00  0.00     0.043 A 
HETATM   34  C18 UNL     1      16.124  53.234   5.076  1.00  0.00     0.116 A 
HETATM   35  F1  UNL     1      16.704  52.071   5.402  1.00  0.00    -0.206 F 
HETATM   36  C19 UNL     1      16.904  54.277   4.594  1.00  0.00     0.043 A 
HETATM   37  C20 UNL     1      16.296  55.487   4.252  1.00  0.00     0.017 A 
ENDBRANCH  25  31
BRANCH  27  38
HETATM   38  S1  UNL     1      12.756  60.282   5.036  1.00  0.00    -0.098 SA
HETATM   39  C22 UNL     1      12.817  59.827   6.783  1.00  0.00     0.099 C 
ENDBRANCH  27  38
ENDBRANCH   3  24
TORSDOF 8
ENDMDL
MODEL 8
REMARK minimizedAffinity -6.46596479
REMARK CNNscore 0.524102151
REMARK CNNaffinity 6.31208849
REMARK  8 active torsions:
REMARK  status: ('A' for Active; 'I' for Inactive)
REMARK    1  A    between atoms: C2_2  and  C3_3 
REMARK       I    between atoms: C3_3  and  N1_5 
REMARK    2  A    between atoms: N1_5  and  C4_6 
REMARK    3  A    between atoms: C7_9  and  O2_10 
REMARK    4  A    between atoms: C9_12  and  N2_13 
REMARK    5  A    between atoms: N2_13  and  C10_14 
REMARK    6  A    between atoms: C12_16  and  C13_17 
REMARK    7  A    between atoms: C14_18  and  C15_19 
REMARK    8  A    between atoms: C21_28  and  S1_29 
ROOT
HETATM    1  C10 UNL     1      13.332  53.582  -1.958  1.00  0.00     0.106 A 
HETATM    2  C11 UNL     1      13.098  54.848  -1.425  1.00  0.00     0.062 A 
HETATM    3  C12 UNL     1      14.175  55.703  -1.177  1.00  0.00    -0.002 A 
HETATM    4  C24 UNL     1      15.464  55.268  -1.463  1.00  0.00     0.031 A 
HETATM    5  C25 UNL     1      15.612  54.001  -1.991  1.00  0.00     0.090 A 
HETATM    6  N5  UNL     1      14.582  53.169  -2.247  1.00  0.00    -0.352 N 
ATOM      7  H5  UNL     1      14.744  52.246  -2.652  1.00  0.00     0.166 HD
ENDROOT
BRANCH   1   8
HETATM    8  N2  UNL     1      12.218  52.741  -2.162  1.00  0.00    -0.340 N 
HETATM    9  H10 UNL     1      11.504  53.215  -2.709  1.00  0.00     0.167 HD
BRANCH   8  10
HETATM   10  C9  UNL     1      12.216  51.360  -2.502  1.00  0.00     0.069 A 
HETATM   11  C7  UNL     1      11.388  50.928  -3.562  1.00  0.00     0.095 A 
HETATM   12  C6  UNL     1      11.328  49.574  -3.887  1.00  0.00     0.041 A 
HETATM   13  C5  UNL     1      12.070  48.645  -3.151  1.00  0.00     0.032 A 
HETATM   14  C4  UNL     1      12.873  49.049  -2.078  1.00  0.00     0.037 A 
HETATM   15  C26 UNL     1      12.935  50.408  -1.758  1.00  0.00     0.062 A 
BRANCH  11  16
HETATM   16  O2  UNL     1      10.699  51.930  -4.209  1.00  0.00    -0.354 OA
HETATM   17  C8  UNL     1       9.505  51.555  -4.886  1.00  0.00     0.210 C 
ENDBRANCH  11  16
BRANCH  14  18
HETATM   18  N1  UNL     1      13.559  48.034  -1.378  1.00  0.00    -0.324 N 
HETATM   19  C3  UNL     1      14.905  47.752  -1.410  1.00  0.00     0.244 C 
HETATM   20  O1  UNL     1      15.773  48.282  -2.089  1.00  0.00    -0.268 OA
HETATM   21  H4  UNL     1      12.985  47.426  -0.813  1.00  0.00     0.169 HD
BRANCH  19  22
HETATM   22  C2  UNL     1      15.301  46.614  -0.532  1.00  0.00     0.064 C 
HETATM   23  C1  UNL     1      15.083  46.548   0.789  1.00  0.00     0.017 C 
ENDBRANCH  19  22
ENDBRANCH  14  18
ENDBRANCH   8  10
ENDBRANCH   1   8
BRANCH   3  24
HETATM   24  C13 UNL     1      13.953  57.026  -0.598  1.00  0.00     0.074 A 
HETATM   25  C14 UNL     1      14.020  57.483   0.715  1.00  0.00     0.072 A 
HETATM   26  N3  UNL     1      13.775  58.836   0.778  1.00  0.00    -0.334 N 
HETATM   27  C21 UNL     1      13.541  59.207  -0.454  1.00  0.00     0.146 A 
ATOM     28  H3  UNL     1      13.777  59.425   1.611  1.00  0.00     0.168 HD
HETATM   29  N4  UNL     1      13.666  58.164  -1.335  1.00  0.00    -0.329 N 
HETATM   30  C23 UNL     1      13.553  58.253  -2.773  1.00  0.00     0.158 C 
BRANCH  25  31
HETATM   31  C15 UNL     1      14.331  56.712   1.912  1.00  0.00    -0.007 A 
HETATM   32  C16 UNL     1      15.649  56.449   2.313  1.00  0.00     0.017 A 
HETATM   33  C17 UNL     1      15.903  55.706   3.469  1.00  0.00     0.043 A 
HETATM   34  C18 UNL     1      14.841  55.216   4.218  1.00  0.00     0.116 A 
HETATM   35  F1  UNL     1      15.086  54.503   5.325  1.00  0.00    -0.206 F 
HETATM   36  C19 UNL     1      13.528  55.448   3.830  1.00  0.00     0.043 A 
HETATM   37  C20 UNL     1      13.274  56.194   2.677  1.00  0.00     0.017 A 
ENDBRANCH  25  31
BRANCH  27  38
HETATM   38  S1  UNL     1      13.120  60.815  -0.946  1.00  0.00    -0.098 SA
HETATM   39  C22 UNL     1      12.017  61.295   0.403  1.00  0.00     0.099 C 
ENDBRANCH  27  38
ENDBRANCH   3  24
TORSDOF 8
ENDMDL
MODEL 9
REMARK minimizedAffinity -6.80200529
REMARK CNNscore 0.499674946
REMARK CNNaffinity 6.14061975
REMARK  8 active torsions:
REMARK  status: ('A' for Active; 'I' for Inactive)
REMARK    1  A    between atoms: C2_2  and  C3_3 
REMARK       I    between atoms: C3_3  and  N1_5 
REMARK    2  A    between atoms: N1_5  and  C4_6 
REMARK    3  A    between atoms: C7_9  and  O2_10 
REMARK    4  A    between atoms: C9_12  and  N2_13 
REMARK    5  A    between atoms: N2_13  and  C10_14 
REMARK    6  A    between atoms: C12_16  and  C13_17 
REMARK    7  A    between atoms: C14_18  and  C15_19 
REMARK    8  A    between atoms: C21_28  and  S1_29 
ROOT
HETATM    1  C10 UNL     1      14.206  53.279  -2.457  1.00  0.00     0.106 A 
HETATM    2  C11 UNL     1      13.709  54.278  -1.624  1.00  0.00     0.062 A 
HETATM    3  C12 UNL     1      13.970  55.619  -1.920  1.00  0.00    -0.002 A 
HETATM    4  C24 UNL     1      14.731  55.927  -3.043  1.00  0.00     0.031 A 
HETATM    5  C25 UNL     1      15.185  54.879  -3.820  1.00  0.00     0.090 A 
HETATM    6  N5  UNL     1      14.930  53.582  -3.553  1.00  0.00    -0.352 N 
ATOM      7  H5  UNL     1      15.278  52.845  -4.167  1.00  0.00     0.166 HD
ENDROOT
BRANCH   1   8
HETATM    8  N2  UNL     1      13.944  51.938  -2.102  1.00  0.00    -0.340 N 
HETATM    9  H10 UNL     1      14.218  51.762  -1.138  1.00  0.00     0.167 HD
BRANCH   8  10
HETATM   10  C9  UNL     1      12.790  51.164  -2.401  1.00  0.00     0.069 A 
HETATM   11  C7  UNL     1      11.919  51.618  -3.416  1.00  0.00     0.095 A 
HETATM   12  C6  UNL     1      10.754  50.906  -3.700  1.00  0.00     0.041 A 
HETATM   13  C5  UNL     1      10.440  49.759  -2.965  1.00  0.00     0.032 A 
HETATM   14  C4  UNL     1      11.275  49.310  -1.935  1.00  0.00     0.037 A 
HETATM   15  C26 UNL     1      12.444  50.023  -1.657  1.00  0.00     0.062 A 
BRANCH  11  16
HETATM   16  O2  UNL     1      12.326  52.762  -4.067  1.00  0.00    -0.354 OA
HETATM   17  C8  UNL     1      11.306  53.590  -4.610  1.00  0.00     0.210 C 
ENDBRANCH  11  16
BRANCH  14  18
HETATM   18  N1  UNL     1      10.857  48.161  -1.231  1.00  0.00    -0.324 N 
HETATM   19  C3  UNL     1       9.757  48.027  -0.414  1.00  0.00     0.244 C 
HETATM   20  O1  UNL     1       8.950  48.886  -0.086  1.00  0.00    -0.268 OA
HETATM   21  H4  UNL     1      11.456  47.353  -1.314  1.00  0.00     0.169 HD
BRANCH  19  22
HETATM   22  C2  UNL     1       9.601  46.663   0.164  1.00  0.00     0.064 C 
HETATM   23  C1  UNL     1      10.019  45.528  -0.415  1.00  0.00     0.017 C 
ENDBRANCH  19  22
ENDBRANCH  14  18
ENDBRANCH   8  10
ENDBRANCH   1   8
BRANCH   3  24
HETATM   24  C13 UNL     1      13.477  56.681  -1.048  1.00  0.00     0.074 A 
HETATM   25  C14 UNL     1      12.376  57.526  -1.153  1.00  0.00     0.072 A 
HETATM   26  N3  UNL     1      12.281  58.350  -0.054  1.00  0.00    -0.334 N 
HETATM   27  C21 UNL     1      13.303  58.043   0.703  1.00  0.00     0.146 A 
ATOM     28  H3  UNL     1      11.565  59.052   0.132  1.00  0.00     0.168 HD
HETATM   29  N4  UNL     1      14.044  57.019   0.171  1.00  0.00    -0.329 N 
HETATM   30  C23 UNL     1      15.186  56.388   0.794  1.00  0.00     0.158 C 
BRANCH  25  31
HETATM   31  C15 UNL     1      11.393  57.579  -2.226  1.00  0.00    -0.007 A 
HETATM   32  C16 UNL     1      10.397  56.604  -2.379  1.00  0.00     0.017 A 
HETATM   33  C17 UNL     1       9.471  56.692  -3.423  1.00  0.00     0.043 A 
HETATM   34  C18 UNL     1       9.549  57.749  -4.321  1.00  0.00     0.116 A 
HETATM   35  F1  UNL     1       8.661  57.832  -5.321  1.00  0.00    -0.206 F 
HETATM   36  C19 UNL     1      10.537  58.717  -4.200  1.00  0.00     0.043 A 
HETATM   37  C20 UNL     1      11.459  58.630  -3.155  1.00  0.00     0.017 A 
ENDBRANCH  25  31
BRANCH  27  38
HETATM   38  S1  UNL     1      13.700  58.818   2.201  1.00  0.00    -0.098 SA
HETATM   39  C22 UNL     1      14.830  60.103   1.620  1.00  0.00     0.099 C 
ENDBRANCH  27  38
ENDBRANCH   3  24
TORSDOF 8
ENDMDL
