MODEL 1
REMARK minimizedAffinity -8.14605522
REMARK  7 active torsions:
REMARK  status: ('A' for Active; 'I' for Inactive)
REMARK    1  A    between atoms: N1_1  and  C1_2 
REMARK    2  A    between atoms: C3_8  and  N4_9 
REMARK    3  A    between atoms: N4_9  and  C4_10 
REMARK    4  A    between atoms: N6_18  and  C10_19 
REMARK    5  A    between atoms: C10_19  and  C11_20 
REMARK    6  A    between atoms: C18_28  and  C19_29 
REMARK    7  A    between atoms: N7_30  and  O1_32 
ROOT
HETATM    1  C4  UNL     1      13.482  36.200  18.219  1.00  0.00     0.034 A 
HETATM    2  C5  UNL     1      13.619  36.757  16.935  1.00  0.00     0.032 A 
HETATM    3  C6  UNL     1      14.787  36.623  16.172  1.00  0.00     0.034 A 
HETATM    4  C7  UNL     1      15.847  35.914  16.745  1.00  0.00     0.062 A 
HETATM    5  C8  UNL     1      15.764  35.367  18.020  1.00  0.00     0.011 A 
HETATM    6  C9  UNL     1      17.019  34.758  18.233  1.00  0.00     0.121 A 
HETATM    7  N5  UNL     1      17.840  34.884  17.188  1.00  0.00    -0.308 N 
ATOM      8  H5  UNL     1      18.789  34.526  17.082  1.00  0.00     0.186 HD
HETATM    9  N6  UNL     1      17.112  35.603  16.300  1.00  0.00    -0.288 N 
HETATM   10  C17 UNL     1      14.578  35.518  18.766  1.00  0.00     0.044 A 
ENDROOT
BRANCH   1  11
HETATM   11  N4  UNL     1      12.277  36.420  18.914  1.00  0.00    -0.342 N 
HETATM   12  H4  UNL     1      11.676  37.120  18.476  1.00  0.00     0.167 HD
BRANCH  11  13
HETATM   13  C3  UNL     1      11.528  35.609  19.799  1.00  0.00     0.121 A 
HETATM   14  N3  UNL     1      12.101  35.146  20.928  1.00  0.00    -0.338 N 
HETATM   15  C2  UNL     1      11.334  34.450  21.775  1.00  0.00     0.183 A 
ATOM     16  H3  UNL     1      13.086  35.320  21.130  1.00  0.00     0.168 HD
HETATM   17  N2  UNL     1      10.039  34.159  21.606  1.00  0.00    -0.342 N 
HETATM   18  C1  UNL     1       9.478  34.610  20.477  1.00  0.00     0.094 A 
ATOM     19  H2  UNL     1       9.511  33.625  22.296  1.00  0.00     0.167 HD
HETATM   20  C18 UNL     1      10.180  35.354  19.537  1.00  0.00     0.063 A 
BRANCH  18  21
HETATM   21  N1  UNL     1       8.129  34.270  20.337  1.00  0.00    -0.288 NA
HETATM   22  H1  UNL     1       7.875  33.715  21.152  1.00  0.00     0.125 HD
HETATM   23  H2  UNL     1       7.949  33.757  19.480  1.00  0.00     0.125 HD
ENDBRANCH  18  21
BRANCH  20  24
HETATM   24  C19 UNL     1       9.493  35.826  18.322  1.00  0.00     0.132 C 
HETATM   25  N7  UNL     1       9.787  35.384  17.136  1.00  0.00    -0.279 N 
ATOM     26  H7  UNL     1      10.508  34.696  16.920  1.00  0.00     0.193 HD
BRANCH  25  27
HETATM   27  O1  UNL     1       8.950  36.010  16.205  1.00  0.00    -0.290 OA
HETATM   28  H16 UNL     1       9.256  35.644  15.355  1.00  0.00     0.244 HD
ENDBRANCH  25  27
ENDBRANCH  20  24
ENDBRANCH  11  13
ENDBRANCH   1  11
BRANCH   9  29
HETATM   29  C10 UNL     1      17.689  35.920  14.999  1.00  0.00     0.187 C 
BRANCH  29  30
HETATM   30  C11 UNL     1      17.325  34.901  13.947  1.00  0.00    -0.035 A 
HETATM   31  C12 UNL     1      18.227  33.883  13.597  1.00  0.00     0.009 A 
HETATM   32  C13 UNL     1      17.898  32.945  12.613  1.00  0.00     0.004 A 
HETATM   33  C14 UNL     1      16.666  33.018  11.965  1.00  0.00     0.042 A 
HETATM   34  C15 UNL     1      15.775  34.029  12.303  1.00  0.00     0.117 A 
HETATM   35  F1  UNL     1      14.594  34.102  11.675  1.00  0.00    -0.206 F 
HETATM   36  C16 UNL     1      16.092  34.968  13.280  1.00  0.00     0.051 A 
ENDBRANCH  29  30
ENDBRANCH   9  29
TORSDOF 7
ENDMDL
MODEL 2
REMARK minimizedAffinity -8.1283474
REMARK  7 active torsions:
REMARK  status: ('A' for Active; 'I' for Inactive)
REMARK    1  A    between atoms: N1_1  and  C1_2 
REMARK    2  A    between atoms: C3_8  and  N4_9 
REMARK    3  A    between atoms: N4_9  and  C4_10 
REMARK    4  A    between atoms: N6_18  and  C10_19 
REMARK    5  A    between atoms: C10_19  and  C11_20 
REMARK    6  A    between atoms: C18_28  and  C19_29 
REMARK    7  A    between atoms: N7_30  and  O1_32 
ROOT
HETATM    1  C4  UNL     1      14.377  37.628  16.300  1.00  0.00     0.034 A 
HETATM    2  C5  UNL     1      13.428  36.682  15.875  1.00  0.00     0.032 A 
HETATM    3  C6  UNL     1      12.743  35.843  16.766  1.00  0.00     0.034 A 
HETATM    4  C7  UNL     1      13.050  35.969  18.125  1.00  0.00     0.062 A 
HETATM    5  C8  UNL     1      13.997  36.875  18.586  1.00  0.00     0.011 A 
HETATM    6  C9  UNL     1      14.023  36.687  19.985  1.00  0.00     0.121 A 
HETATM    7  N5  UNL     1      13.163  35.754  20.398  1.00  0.00    -0.308 N 
ATOM      8  H5  UNL     1      12.979  35.441  21.351  1.00  0.00     0.186 HD
HETATM    9  N6  UNL     1      12.591  35.321  19.250  1.00  0.00    -0.288 N 
HETATM   10  C17 UNL     1      14.672  37.704  17.668  1.00  0.00     0.044 A 
ENDROOT
BRANCH   1  11
HETATM   11  N4  UNL     1      15.031  38.399  15.319  1.00  0.00    -0.342 N 
HETATM   12  H4  UNL     1      14.810  38.116  14.364  1.00  0.00     0.167 HD
BRANCH  11  13
HETATM   13  C3  UNL     1      15.558  39.712  15.336  1.00  0.00     0.121 A 
HETATM   14  N3  UNL     1      15.353  40.500  16.412  1.00  0.00    -0.338 N 
HETATM   15  C2  UNL     1      15.935  41.705  16.420  1.00  0.00     0.183 A 
ATOM     16  H3  UNL     1      14.775  40.188  17.191  1.00  0.00     0.168 HD
HETATM   17  N2  UNL     1      16.703  42.214  15.451  1.00  0.00    -0.342 N 
HETATM   18  C1  UNL     1      16.893  41.434  14.380  1.00  0.00     0.094 A 
ATOM     19  H2  UNL     1      17.121  43.142  15.523  1.00  0.00     0.167 HD
HETATM   20  C18 UNL     1      16.346  40.161  14.274  1.00  0.00     0.063 A 
BRANCH  18  21
HETATM   21  N1  UNL     1      17.690  42.012  13.387  1.00  0.00    -0.288 NA
HETATM   22  H1  UNL     1      17.939  42.945  13.710  1.00  0.00     0.125 HD
HETATM   23  H2  UNL     1      17.217  42.055  12.490  1.00  0.00     0.125 HD
ENDBRANCH  18  21
BRANCH  20  24
HETATM   24  C19 UNL     1      16.607  39.354  13.069  1.00  0.00     0.132 C 
HETATM   25  N7  UNL     1      16.975  38.109  13.128  1.00  0.00    -0.279 N 
ATOM     26  H7  UNL     1      17.131  37.574  13.983  1.00  0.00     0.193 HD
BRANCH  25  27
HETATM   27  O1  UNL     1      17.121  37.623  11.824  1.00  0.00    -0.290 OA
HETATM   28  H16 UNL     1      17.421  36.706  11.963  1.00  0.00     0.244 HD
ENDBRANCH  25  27
ENDBRANCH  20  24
ENDBRANCH  11  13
ENDBRANCH   1  11
BRANCH   9  29
HETATM   29  C10 UNL     1      11.558  34.294  19.312  1.00  0.00     0.187 C 
BRANCH  29  30
HETATM   30  C11 UNL     1      10.189  34.874  19.580  1.00  0.00    -0.035 A 
HETATM   31  C12 UNL     1       9.438  34.447  20.688  1.00  0.00     0.009 A 
HETATM   32  C13 UNL     1       8.165  34.973  20.931  1.00  0.00     0.004 A 
HETATM   33  C14 UNL     1       7.629  35.926  20.068  1.00  0.00     0.042 A 
HETATM   34  C15 UNL     1       8.365  36.344  18.967  1.00  0.00     0.117 A 
HETATM   35  F1  UNL     1       7.846  37.256  18.134  1.00  0.00    -0.206 F 
HETATM   36  C16 UNL     1       9.633  35.828  18.714  1.00  0.00     0.051 A 
ENDBRANCH  29  30
ENDBRANCH   9  29
TORSDOF 7
ENDMDL
MODEL 3
REMARK minimizedAffinity -8.06189442
REMARK  7 active torsions:
REMARK  status: ('A' for Active; 'I' for Inactive)
REMARK    1  A    between atoms: N1_1  and  C1_2 
REMARK    2  A    between atoms: C3_8  and  N4_9 
REMARK    3  A    between atoms: N4_9  and  C4_10 
REMARK    4  A    between atoms: N6_18  and  C10_19 
REMARK    5  A    between atoms: C10_19  and  C11_20 
REMARK    6  A    between atoms: C18_28  and  C19_29 
REMARK    7  A    between atoms: N7_30  and  O1_32 
ROOT
HETATM    1  C4  UNL     1      14.076  36.822  17.825  1.00  0.00     0.034 A 
HETATM    2  C5  UNL     1      14.694  35.571  17.656  1.00  0.00     0.032 A 
HETATM    3  C6  UNL     1      15.812  35.384  16.829  1.00  0.00     0.034 A 
HETATM    4  C7  UNL     1      16.296  36.505  16.147  1.00  0.00     0.062 A 
HETATM    5  C8  UNL     1      15.701  37.755  16.268  1.00  0.00     0.011 A 
HETATM    6  C9  UNL     1      16.462  38.598  15.429  1.00  0.00     0.121 A 
HETATM    7  N5  UNL     1      17.468  37.959  14.828  1.00  0.00    -0.308 N 
ATOM      8  H5  UNL     1      18.167  38.339  14.190  1.00  0.00     0.186 HD
HETATM    9  N6  UNL     1      17.340  36.685  15.268  1.00  0.00    -0.288 N 
HETATM   10  C17 UNL     1      14.578  37.914  17.105  1.00  0.00     0.044 A 
ENDROOT
BRANCH   1  11
HETATM   11  N4  UNL     1      12.939  36.894  18.655  1.00  0.00    -0.342 N 
HETATM   12  H4  UNL     1      12.254  37.586  18.347  1.00  0.00     0.167 HD
BRANCH  11  13
HETATM   13  C3  UNL     1      12.339  35.958  19.529  1.00  0.00     0.121 A 
HETATM   14  N3  UNL     1      13.036  35.484  20.582  1.00  0.00    -0.338 N 
HETATM   15  C2  UNL     1      12.404  34.663  21.428  1.00  0.00     0.183 A 
ATOM     16  H3  UNL     1      14.012  35.743  20.727  1.00  0.00     0.168 HD
HETATM   17  N2  UNL     1      11.134  34.255  21.328  1.00  0.00    -0.342 N 
HETATM   18  C1  UNL     1      10.450  34.718  20.274  1.00  0.00     0.094 A 
ATOM     19  H2  UNL     1      10.712  33.629  22.013  1.00  0.00     0.167 HD
HETATM   20  C18 UNL     1      11.005  35.586  19.343  1.00  0.00     0.063 A 
BRANCH  18  21
HETATM   21  N1  UNL     1       9.133  34.255  20.202  1.00  0.00    -0.288 NA
HETATM   22  H1  UNL     1       8.994  33.626  20.992  1.00  0.00     0.125 HD
HETATM   23  H2  UNL     1       8.938  33.782  19.326  1.00  0.00     0.125 HD
ENDBRANCH  18  21
BRANCH  20  24
HETATM   24  C19 UNL     1      10.188  36.064  18.214  1.00  0.00     0.132 C 
HETATM   25  N7  UNL     1       9.897  35.312  17.194  1.00  0.00    -0.279 N 
ATOM     26  H7  UNL     1      10.202  34.348  17.059  1.00  0.00     0.193 HD
BRANCH  25  27
HETATM   27  O1  UNL     1       9.097  36.046  16.311  1.00  0.00    -0.290 OA
HETATM   28  H16 UNL     1       8.954  35.423  15.575  1.00  0.00     0.244 HD
ENDBRANCH  25  27
ENDBRANCH  20  24
ENDBRANCH  11  13
ENDBRANCH   1  11
BRANCH   9  29
HETATM   29  C10 UNL     1      18.303  35.681  14.831  1.00  0.00     0.187 C 
BRANCH  29  30
HETATM   30  C11 UNL     1      17.712  34.715  13.833  1.00  0.00    -0.035 A 
HETATM   31  C12 UNL     1      18.417  33.561  13.452  1.00  0.00     0.009 A 
HETATM   32  C13 UNL     1      17.877  32.671  12.519  1.00  0.00     0.004 A 
HETATM   33  C14 UNL     1      16.630  32.928  11.952  1.00  0.00     0.042 A 
HETATM   34  C15 UNL     1      15.934  34.072  12.319  1.00  0.00     0.117 A 
HETATM   35  F1  UNL     1      14.738  34.321  11.768  1.00  0.00    -0.206 F 
HETATM   36  C16 UNL     1      16.461  34.965  13.247  1.00  0.00     0.051 A 
ENDBRANCH  29  30
ENDBRANCH   9  29
TORSDOF 7
ENDMDL
MODEL 4
REMARK minimizedAffinity -8.01419163
REMARK  7 active torsions:
REMARK  status: ('A' for Active; 'I' for Inactive)
REMARK    1  A    between atoms: N1_1  and  C1_2 
REMARK    2  A    between atoms: C3_8  and  N4_9 
REMARK    3  A    between atoms: N4_9  and  C4_10 
REMARK    4  A    between atoms: N6_18  and  C10_19 
REMARK    5  A    between atoms: C10_19  and  C11_20 
REMARK    6  A    between atoms: C18_28  and  C19_29 
REMARK    7  A    between atoms: N7_30  and  O1_32 
ROOT
HETATM    1  C4  UNL     1      11.936  34.812  18.741  1.00  0.00     0.034 A 
HETATM    2  C5  UNL     1      13.138  34.091  18.848  1.00  0.00     0.032 A 
HETATM    3  C6  UNL     1      14.230  34.308  17.995  1.00  0.00     0.034 A 
HETATM    4  C7  UNL     1      14.080  35.277  16.999  1.00  0.00     0.062 A 
HETATM    5  C8  UNL     1      12.901  35.997  16.843  1.00  0.00     0.011 A 
HETATM    6  C9  UNL     1      13.142  36.847  15.742  1.00  0.00     0.121 A 
HETATM    7  N5  UNL     1      14.369  36.704  15.236  1.00  0.00    -0.308 N 
ATOM      8  H5  UNL     1      14.793  37.205  14.455  1.00  0.00     0.186 HD
HETATM    9  N6  UNL     1      14.917  35.735  16.006  1.00  0.00    -0.288 N 
HETATM   10  C17 UNL     1      11.819  35.757  17.713  1.00  0.00     0.044 A 
ENDROOT
BRANCH   1  11
HETATM   11  N4  UNL     1      10.889  34.494  19.628  1.00  0.00    -0.342 N 
HETATM   12  H4  UNL     1      11.199  33.984  20.457  1.00  0.00     0.167 HD
BRANCH  11  13
HETATM   13  C3  UNL     1       9.622  35.081  19.854  1.00  0.00     0.121 A 
HETATM   14  N3  UNL     1       8.891  35.515  18.807  1.00  0.00    -0.338 N 
HETATM   15  C2  UNL     1       7.666  35.990  19.058  1.00  0.00     0.183 A 
ATOM     16  H3  UNL     1       9.259  35.481  17.857  1.00  0.00     0.168 HD
HETATM   17  N2  UNL     1       7.090  36.085  20.262  1.00  0.00    -0.342 N 
HETATM   18  C1  UNL     1       7.825  35.666  21.299  1.00  0.00     0.094 A 
ATOM     19  H2  UNL     1       6.147  36.456  20.383  1.00  0.00     0.167 HD
HETATM   20  C18 UNL     1       9.103  35.142  21.149  1.00  0.00     0.063 A 
BRANCH  18  21
HETATM   21  N1  UNL     1       7.190  35.797  22.538  1.00  0.00    -0.288 NA
HETATM   22  H1  UNL     1       6.280  36.220  22.363  1.00  0.00     0.125 HD
HETATM   23  H2  UNL     1       7.729  36.358  23.190  1.00  0.00     0.125 HD
ENDBRANCH  18  21
BRANCH  20  24
HETATM   24  C19 UNL     1       9.849  34.690  22.337  1.00  0.00     0.132 C 
HETATM   25  N7  UNL     1      10.176  35.493  23.304  1.00  0.00    -0.279 N 
ATOM     26  H7  UNL     1       9.973  36.492  23.343  1.00  0.00     0.193 HD
BRANCH  25  27
HETATM   27  O1  UNL     1      10.855  34.760  24.284  1.00  0.00    -0.290 OA
HETATM   28  H16 UNL     1      11.083  35.438  24.947  1.00  0.00     0.244 HD
ENDBRANCH  25  27
ENDBRANCH  20  24
ENDBRANCH  11  13
ENDBRANCH   1  11
BRANCH   9  29
HETATM   29  C10 UNL     1      16.293  35.322  15.759  1.00  0.00     0.187 C 
BRANCH  29  30
HETATM   30  C11 UNL     1      16.729  35.602  14.340  1.00  0.00    -0.035 A 
HETATM   31  C12 UNL     1      16.400  34.713  13.303  1.00  0.00     0.009 A 
HETATM   32  C13 UNL     1      16.813  34.963  11.991  1.00  0.00     0.004 A 
HETATM   33  C14 UNL     1      17.564  36.100  11.702  1.00  0.00     0.042 A 
HETATM   34  C15 UNL     1      17.899  36.977  12.726  1.00  0.00     0.117 A 
HETATM   35  F1  UNL     1      18.627  38.067  12.448  1.00  0.00    -0.206 F 
HETATM   36  C16 UNL     1      17.494  36.739  14.036  1.00  0.00     0.051 A 
ENDBRANCH  29  30
ENDBRANCH   9  29
TORSDOF 7
ENDMDL
MODEL 5
REMARK minimizedAffinity -7.97827053
REMARK  7 active torsions:
REMARK  status: ('A' for Active; 'I' for Inactive)
REMARK    1  A    between atoms: N1_1  and  C1_2 
REMARK    2  A    between atoms: C3_8  and  N4_9 
REMARK    3  A    between atoms: N4_9  and  C4_10 
REMARK    4  A    between atoms: N6_18  and  C10_19 
REMARK    5  A    between atoms: C10_19  and  C11_20 
REMARK    6  A    between atoms: C18_28  and  C19_29 
REMARK    7  A    between atoms: N7_30  and  O1_32 
ROOT
HETATM    1  C4  UNL     1      18.174  48.656   6.432  1.00  0.00     0.034 A 
HETATM    2  C5  UNL     1      17.655  49.158   5.226  1.00  0.00     0.032 A 
HETATM    3  C6  UNL     1      17.800  50.498   4.839  1.00  0.00     0.034 A 
HETATM    4  C7  UNL     1      18.481  51.346   5.717  1.00  0.00     0.062 A 
HETATM    5  C8  UNL     1      18.991  50.897   6.930  1.00  0.00     0.011 A 
HETATM    6  C9  UNL     1      19.582  52.037   7.516  1.00  0.00     0.121 A 
HETATM    7  N5  UNL     1      19.478  53.126   6.750  1.00  0.00    -0.308 N 
ATOM      8  H5  UNL     1      19.831  54.065   6.936  1.00  0.00     0.186 HD
HETATM    9  N6  UNL     1      18.794  52.686   5.668  1.00  0.00    -0.288 N 
HETATM   10  C17 UNL     1      18.829  49.545   7.294  1.00  0.00     0.044 A 
ENDROOT
BRANCH   1  11
HETATM   11  N4  UNL     1      17.945  47.300   6.740  1.00  0.00    -0.342 N 
HETATM   12  H4  UNL     1      17.436  47.162   7.615  1.00  0.00     0.167 HD
BRANCH  11  13
HETATM   13  C3  UNL     1      17.865  46.141   5.933  1.00  0.00     0.121 A 
HETATM   14  N3  UNL     1      18.208  46.209   4.631  1.00  0.00    -0.338 N 
HETATM   15  C2  UNL     1      18.194  45.073   3.924  1.00  0.00     0.183 A 
ATOM     16  H3  UNL     1      18.470  47.095   4.200  1.00  0.00     0.168 HD
HETATM   17  N2  UNL     1      17.860  43.863   4.386  1.00  0.00    -0.342 N 
HETATM   18  C1  UNL     1      17.507  43.803   5.676  1.00  0.00     0.094 A 
ATOM     19  H2  UNL     1      17.874  43.034   3.791  1.00  0.00     0.167 HD
HETATM   20  C18 UNL     1      17.501  44.919   6.504  1.00  0.00     0.063 A 
BRANCH  18  21
HETATM   21  N1  UNL     1      17.154  42.523   6.112  1.00  0.00    -0.288 NA
HETATM   22  H1  UNL     1      17.229  41.902   5.307  1.00  0.00     0.125 HD
HETATM   23  H2  UNL     1      16.218  42.494   6.503  1.00  0.00     0.125 HD
ENDBRANCH  18  21
BRANCH  20  24
HETATM   24  C19 UNL     1      17.111  44.776   7.917  1.00  0.00     0.132 C 
HETATM   25  N7  UNL     1      15.873  44.648   8.291  1.00  0.00    -0.279 N 
ATOM     26  H7  UNL     1      15.062  44.646   7.673  1.00  0.00     0.193 HD
BRANCH  25  27
HETATM   27  O1  UNL     1      15.838  44.514   9.684  1.00  0.00    -0.290 OA
HETATM   28  H16 UNL     1      14.884  44.453   9.875  1.00  0.00     0.244 HD
ENDBRANCH  25  27
ENDBRANCH  20  24
ENDBRANCH  11  13
ENDBRANCH   1  11
BRANCH   9  29
HETATM   29  C10 UNL     1      18.510  53.615   4.581  1.00  0.00     0.187 C 
BRANCH  29  30
HETATM   30  C11 UNL     1      17.086  54.116   4.612  1.00  0.00    -0.035 A 
HETATM   31  C12 UNL     1      16.748  55.345   4.020  1.00  0.00     0.009 A 
HETATM   32  C13 UNL     1      15.433  55.817   4.059  1.00  0.00     0.004 A 
HETATM   33  C14 UNL     1      14.443  55.071   4.695  1.00  0.00     0.042 A 
HETATM   34  C15 UNL     1      14.775  53.860   5.289  1.00  0.00     0.117 A 
HETATM   35  F1  UNL     1      13.823  53.146   5.906  1.00  0.00    -0.206 F 
HETATM   36  C16 UNL     1      16.081  53.379   5.257  1.00  0.00     0.051 A 
ENDBRANCH  29  30
ENDBRANCH   9  29
TORSDOF 7
ENDMDL
MODEL 6
REMARK minimizedAffinity -7.84224987
REMARK  7 active torsions:
REMARK  status: ('A' for Active; 'I' for Inactive)
REMARK    1  A    between atoms: N1_1  and  C1_2 
REMARK    2  A    between atoms: C3_8  and  N4_9 
REMARK    3  A    between atoms: N4_9  and  C4_10 
REMARK    4  A    between atoms: N6_18  and  C10_19 
REMARK    5  A    between atoms: C10_19  and  C11_20 
REMARK    6  A    between atoms: C18_28  and  C19_29 
REMARK    7  A    between atoms: N7_30  and  O1_32 
ROOT
HETATM    1  C4  UNL     1      16.053  52.954   5.229  1.00  0.00     0.034 A 
HETATM    2  C5  UNL     1      14.736  53.442   5.270  1.00  0.00     0.032 A 
HETATM    3  C6  UNL     1      14.389  54.727   4.829  1.00  0.00     0.034 A 
HETATM    4  C7  UNL     1      15.422  55.538   4.349  1.00  0.00     0.062 A 
HETATM    5  C8  UNL     1      16.743  55.105   4.312  1.00  0.00     0.011 A 
HETATM    6  C9  UNL     1      17.465  56.197   3.786  1.00  0.00     0.121 A 
HETATM    7  N5  UNL     1      16.685  57.241   3.494  1.00  0.00    -0.308 N 
ATOM      8  H5  UNL     1      16.956  58.139   3.094  1.00  0.00     0.186 HD
HETATM    9  N6  UNL     1      15.450  56.824   3.858  1.00  0.00    -0.288 N 
HETATM   10  C17 UNL     1      17.062  53.808   4.763  1.00  0.00     0.044 A 
ENDROOT
BRANCH   1  11
HETATM   11  N4  UNL     1      16.299  51.659   5.725  1.00  0.00    -0.342 N 
HETATM   12  H4  UNL     1      15.726  50.939   5.284  1.00  0.00     0.167 HD
BRANCH  11  13
HETATM   13  C3  UNL     1      17.426  51.079   6.353  1.00  0.00     0.121 A 
HETATM   14  N3  UNL     1      18.226  51.840   7.127  1.00  0.00    -0.338 N 
HETATM   15  C2  UNL     1      19.234  51.234   7.765  1.00  0.00     0.183 A 
ATOM     16  H3  UNL     1      18.068  52.843   7.222  1.00  0.00     0.168 HD
HETATM   17  N2  UNL     1      19.534  49.933   7.705  1.00  0.00    -0.342 N 
HETATM   18  C1  UNL     1      18.746  49.183   6.925  1.00  0.00     0.094 A 
ATOM     19  H2  UNL     1      20.318  49.534   8.222  1.00  0.00     0.167 HD
HETATM   20  C18 UNL     1      17.663  49.708   6.229  1.00  0.00     0.063 A 
BRANCH  18  21
HETATM   21  N1  UNL     1      19.105  47.833   6.881  1.00  0.00    -0.288 NA
HETATM   22  H1  UNL     1      19.935  47.726   7.461  1.00  0.00     0.125 HD
HETATM   23  H2  UNL     1      19.284  47.513   5.934  1.00  0.00     0.125 HD
ENDBRANCH  18  21
BRANCH  20  24
HETATM   24  C19 UNL     1      16.832  48.820   5.398  1.00  0.00     0.132 C 
HETATM   25  N7  UNL     1      16.352  49.186   4.247  1.00  0.00    -0.279 N 
ATOM     26  H7  UNL     1      16.480  50.100   3.813  1.00  0.00     0.193 HD
BRANCH  25  27
HETATM   27  O1  UNL     1      15.628  48.119   3.704  1.00  0.00    -0.290 OA
HETATM   28  H16 UNL     1      15.287  48.488   2.868  1.00  0.00     0.244 HD
ENDBRANCH  25  27
ENDBRANCH  20  24
ENDBRANCH  11  13
ENDBRANCH   1  11
BRANCH   9  29
HETATM   29  C10 UNL     1      14.311  57.712   3.657  1.00  0.00     0.187 C 
BRANCH  29  30
HETATM   30  C11 UNL     1      13.817  57.697   2.230  1.00  0.00    -0.035 A 
HETATM   31  C12 UNL     1      13.454  58.892   1.588  1.00  0.00     0.009 A 
HETATM   32  C13 UNL     1      12.984  58.880   0.271  1.00  0.00     0.004 A 
HETATM   33  C14 UNL     1      12.866  57.673  -0.415  1.00  0.00     0.042 A 
HETATM   34  C15 UNL     1      13.215  56.488   0.220  1.00  0.00     0.117 A 
HETATM   35  F1  UNL     1      13.095  55.327  -0.438  1.00  0.00    -0.206 F 
HETATM   36  C16 UNL     1      13.684  56.487   1.531  1.00  0.00     0.051 A 
ENDBRANCH  29  30
ENDBRANCH   9  29
TORSDOF 7
ENDMDL
MODEL 7
REMARK minimizedAffinity -7.81557846
REMARK  7 active torsions:
REMARK  status: ('A' for Active; 'I' for Inactive)
REMARK    1  A    between atoms: N1_1  and  C1_2 
REMARK    2  A    between atoms: C3_8  and  N4_9 
REMARK    3  A    between atoms: N4_9  and  C4_10 
REMARK    4  A    between atoms: N6_18  and  C10_19 
REMARK    5  A    between atoms: C10_19  and  C11_20 
REMARK    6  A    between atoms: C18_28  and  C19_29 
REMARK    7  A    between atoms: N7_30  and  O1_32 
ROOT
HETATM    1  C4  UNL     1      13.057  34.929  17.827  1.00  0.00     0.034 A 
HETATM    2  C5  UNL     1      13.032  36.026  16.949  1.00  0.00     0.032 A 
HETATM    3  C6  UNL     1      14.182  36.510  16.307  1.00  0.00     0.034 A 
HETATM    4  C7  UNL     1      15.389  35.860  16.584  1.00  0.00     0.062 A 
HETATM    5  C8  UNL     1      15.463  34.786  17.463  1.00  0.00     0.011 A 
HETATM    6  C9  UNL     1      16.828  34.429  17.480  1.00  0.00     0.121 A 
HETATM    7  N5  UNL     1      17.573  35.192  16.677  1.00  0.00    -0.308 N 
ATOM      8  H5  UNL     1      18.576  35.132  16.499  1.00  0.00     0.186 HD
HETATM    9  N6  UNL     1      16.680  36.064  16.152  1.00  0.00    -0.288 N 
HETATM   10  C17 UNL     1      14.292  34.322  18.096  1.00  0.00     0.044 A 
ENDROOT
BRANCH   1  11
HETATM   11  N4  UNL     1      11.851  34.544  18.444  1.00  0.00    -0.342 N 
HETATM   12  H4  UNL     1      11.983  33.923  19.244  1.00  0.00     0.167 HD
BRANCH  11  13
HETATM   13  C3  UNL     1      10.572  35.147  18.493  1.00  0.00     0.121 A 
HETATM   14  N3  UNL     1       9.988  35.568  17.352  1.00  0.00    -0.338 N 
HETATM   15  C2  UNL     1       8.747  36.059  17.434  1.00  0.00     0.183 A 
ATOM     16  H3  UNL     1      10.477  35.513  16.459  1.00  0.00     0.168 HD
HETATM   17  N2  UNL     1       8.021  36.182  18.550  1.00  0.00    -0.342 N 
HETATM   18  C1  UNL     1       8.610  35.776  19.682  1.00  0.00     0.094 A 
ATOM     19  H2  UNL     1       7.075  36.563  18.541  1.00  0.00     0.167 HD
HETATM   20  C18 UNL     1       9.890  35.237  19.708  1.00  0.00     0.063 A 
BRANCH  18  21
HETATM   21  N1  UNL     1       7.821  35.936  20.824  1.00  0.00    -0.288 NA
HETATM   22  H1  UNL     1       6.946  36.364  20.526  1.00  0.00     0.125 HD
HETATM   23  H2  UNL     1       8.277  36.504  21.531  1.00  0.00     0.125 HD
ENDBRANCH  18  21
BRANCH  20  24
HETATM   24  C19 UNL     1      10.470  34.800  20.990  1.00  0.00     0.132 C 
HETATM   25  N7  UNL     1      10.599  35.599  22.008  1.00  0.00    -0.279 N 
ATOM     26  H7  UNL     1      10.335  36.584  22.028  1.00  0.00     0.193 HD
BRANCH  25  27
HETATM   27  O1  UNL     1      11.160  34.883  23.071  1.00  0.00    -0.290 OA
HETATM   28  H16 UNL     1      11.245  35.557  23.770  1.00  0.00     0.244 HD
ENDBRANCH  25  27
ENDBRANCH  20  24
ENDBRANCH  11  13
ENDBRANCH   1  11
BRANCH   9  29
HETATM   29  C10 UNL     1      17.137  37.057  15.188  1.00  0.00     0.187 C 
BRANCH  29  30
HETATM   30  C11 UNL     1      17.243  36.493  13.791  1.00  0.00    -0.035 A 
HETATM   31  C12 UNL     1      17.887  37.218  12.775  1.00  0.00     0.009 A 
HETATM   32  C13 UNL     1      17.975  36.704  11.478  1.00  0.00     0.004 A 
HETATM   33  C14 UNL     1      17.416  35.463  11.181  1.00  0.00     0.042 A 
HETATM   34  C15 UNL     1      16.771  34.746  12.181  1.00  0.00     0.117 A 
HETATM   35  F1  UNL     1      16.229  33.555  11.893  1.00  0.00    -0.206 F 
HETATM   36  C16 UNL     1      16.677  35.248  13.476  1.00  0.00     0.051 A 
ENDBRANCH  29  30
ENDBRANCH   9  29
TORSDOF 7
ENDMDL
MODEL 8
REMARK minimizedAffinity -7.77261114
REMARK  7 active torsions:
REMARK  status: ('A' for Active; 'I' for Inactive)
REMARK    1  A    between atoms: N1_1  and  C1_2 
REMARK    2  A    between atoms: C3_8  and  N4_9 
REMARK    3  A    between atoms: N4_9  and  C4_10 
REMARK    4  A    between atoms: N6_18  and  C10_19 
REMARK    5  A    between atoms: C10_19  and  C11_20 
REMARK    6  A    between atoms: C18_28  and  C19_29 
REMARK    7  A    between atoms: N7_30  and  O1_32 
ROOT
HETATM    1  C4  UNL     1      13.805  57.140   1.321  1.00  0.00     0.034 A 
HETATM    2  C5  UNL     1      13.478  58.490   1.534  1.00  0.00     0.032 A 
HETATM    3  C6  UNL     1      13.464  59.075   2.809  1.00  0.00     0.034 A 
HETATM    4  C7  UNL     1      13.780  58.251   3.893  1.00  0.00     0.062 A 
HETATM    5  C8  UNL     1      14.088  56.905   3.730  1.00  0.00     0.011 A 
HETATM    6  C9  UNL     1      14.329  56.431   5.038  1.00  0.00     0.121 A 
HETATM    7  N5  UNL     1      14.202  57.383   5.965  1.00  0.00    -0.308 N 
ATOM      8  H5  UNL     1      14.336  57.305   6.974  1.00  0.00     0.186 HD
HETATM    9  N6  UNL     1      13.855  58.478   5.249  1.00  0.00    -0.288 N 
HETATM   10  C17 UNL     1      14.092  56.343   2.438  1.00  0.00     0.044 A 
ENDROOT
BRANCH   1  11
HETATM   11  N4  UNL     1      13.758  56.644   0.004  1.00  0.00    -0.342 N 
HETATM   12  H4  UNL     1      14.622  56.187  -0.291  1.00  0.00     0.167 HD
BRANCH  11  13
HETATM   13  C3  UNL     1      12.682  56.249  -0.826  1.00  0.00     0.121 A 
HETATM   14  N3  UNL     1      11.528  56.946  -0.801  1.00  0.00    -0.338 N 
HETATM   15  C2  UNL     1      10.566  56.586  -1.659  1.00  0.00     0.183 A 
ATOM     16  H3  UNL     1      11.393  57.720  -0.151  1.00  0.00     0.168 HD
HETATM   17  N2  UNL     1      10.635  55.586  -2.544  1.00  0.00    -0.342 N 
HETATM   18  C1  UNL     1      11.777  54.889  -2.556  1.00  0.00     0.094 A 
ATOM     19  H2  UNL     1       9.862  55.368  -3.173  1.00  0.00     0.167 HD
HETATM   20  C18 UNL     1      12.845  55.186  -1.718  1.00  0.00     0.063 A 
BRANCH  18  21
HETATM   21  N1  UNL     1      11.799  53.846  -3.486  1.00  0.00    -0.288 NA
HETATM   22  H1  UNL     1      10.892  53.841  -3.950  1.00  0.00     0.125 HD
HETATM   23  H2  UNL     1      11.988  52.948  -3.054  1.00  0.00     0.125 HD
ENDBRANCH  18  21
BRANCH  20  24
HETATM   24  C19 UNL     1      14.077  54.382  -1.794  1.00  0.00     0.132 C 
HETATM   25  N7  UNL     1      15.211  54.793  -1.312  1.00  0.00    -0.279 N 
ATOM     26  H7  UNL     1      15.373  55.690  -0.855  1.00  0.00     0.193 HD
BRANCH  25  27
HETATM   27  O1  UNL     1      16.174  53.799  -1.524  1.00  0.00    -0.290 OA
HETATM   28  H16 UNL     1      16.986  54.199  -1.161  1.00  0.00     0.244 HD
ENDBRANCH  25  27
ENDBRANCH  20  24
ENDBRANCH  11  13
ENDBRANCH   1  11
BRANCH   9  29
HETATM   29  C10 UNL     1      13.652  59.745   5.940  1.00  0.00     0.187 C 
BRANCH  29  30
HETATM   30  C11 UNL     1      12.660  59.629   7.072  1.00  0.00    -0.035 A 
HETATM   31  C12 UNL     1      11.381  60.199   6.962  1.00  0.00     0.009 A 
HETATM   32  C13 UNL     1      10.465  60.104   8.013  1.00  0.00     0.004 A 
HETATM   33  C14 UNL     1      10.819  59.443   9.188  1.00  0.00     0.042 A 
HETATM   34  C15 UNL     1      12.085  58.885   9.304  1.00  0.00     0.117 A 
HETATM   35  F1  UNL     1      12.427  58.255  10.436  1.00  0.00    -0.206 F 
HETATM   36  C16 UNL     1      13.006  58.974   8.264  1.00  0.00     0.051 A 
ENDBRANCH  29  30
ENDBRANCH   9  29
TORSDOF 7
ENDMDL
MODEL 9
REMARK minimizedAffinity -7.76292515
REMARK  7 active torsions:
REMARK  status: ('A' for Active; 'I' for Inactive)
REMARK    1  A    between atoms: N1_1  and  C1_2 
REMARK    2  A    between atoms: C3_8  and  N4_9 
REMARK    3  A    between atoms: N4_9  and  C4_10 
REMARK    4  A    between atoms: N6_18  and  C10_19 
REMARK    5  A    between atoms: C10_19  and  C11_20 
REMARK    6  A    between atoms: C18_28  and  C19_29 
REMARK    7  A    between atoms: N7_30  and  O1_32 
ROOT
HETATM    1  C4  UNL     1      15.351  35.079  17.381  1.00  0.00     0.034 A 
HETATM    2  C5  UNL     1      15.404  34.299  18.550  1.00  0.00     0.032 A 
HETATM    3  C6  UNL     1      14.258  33.946  19.277  1.00  0.00     0.034 A 
HETATM    4  C7  UNL     1      13.030  34.417  18.803  1.00  0.00     0.062 A 
HETATM    5  C8  UNL     1      12.934  35.209  17.665  1.00  0.00     0.011 A 
HETATM    6  C9  UNL     1      11.556  35.481  17.531  1.00  0.00     0.121 A 
HETATM    7  N5  UNL     1      10.820  34.908  18.486  1.00  0.00    -0.308 N 
ATOM      8  H5  UNL     1       9.808  34.937  18.608  1.00  0.00     0.186 HD
HETATM    9  N6  UNL     1      11.738  34.277  19.256  1.00  0.00    -0.288 N 
HETATM   10  C17 UNL     1      14.102  35.551  16.954  1.00  0.00     0.044 A 
ENDROOT
BRANCH   1  11
HETATM   11  N4  UNL     1      16.564  35.404  16.744  1.00  0.00    -0.342 N 
HETATM   12  H4  UNL     1      17.323  35.614  17.394  1.00  0.00     0.167 HD
BRANCH  11  13
HETATM   13  C3  UNL     1      17.083  35.085  15.466  1.00  0.00     0.121 A 
HETATM   14  N3  UNL     1      17.810  33.961  15.301  1.00  0.00    -0.338 N 
HETATM   15  C2  UNL     1      18.213  33.657  14.062  1.00  0.00     0.183 A 
ATOM     16  H3  UNL     1      18.044  33.364  16.094  1.00  0.00     0.168 HD
HETATM   17  N2  UNL     1      17.969  34.371  12.958  1.00  0.00    -0.342 N 
HETATM   18  C1  UNL     1      17.259  35.493  13.129  1.00  0.00     0.094 A 
ATOM     19  H2  UNL     1      18.305  34.079  12.040  1.00  0.00     0.167 HD
HETATM   20  C18 UNL     1      16.779  35.895  14.370  1.00  0.00     0.063 A 
BRANCH  18  21
HETATM   21  N1  UNL     1      17.040  36.214  11.951  1.00  0.00    -0.288 NA
HETATM   22  H1  UNL     1      17.510  35.710  11.201  1.00  0.00     0.125 HD
HETATM   23  H2  UNL     1      17.382  37.167  12.014  1.00  0.00     0.125 HD
ENDBRANCH  18  21
BRANCH  20  24
HETATM   24  C19 UNL     1      15.993  37.136  14.479  1.00  0.00     0.132 C 
HETATM   25  N7  UNL     1      16.467  38.296  14.133  1.00  0.00    -0.279 N 
ATOM     26  H7  UNL     1      17.404  38.472  13.773  1.00  0.00     0.193 HD
BRANCH  25  27
HETATM   27  O1  UNL     1      15.476  39.263  14.338  1.00  0.00    -0.290 OA
HETATM   28  H16 UNL     1      15.922  40.092  14.083  1.00  0.00     0.244 HD
ENDBRANCH  25  27
ENDBRANCH  20  24
ENDBRANCH  11  13
ENDBRANCH   1  11
BRANCH   9  29
HETATM   29  C10 UNL     1      11.290  33.504  20.408  1.00  0.00     0.187 C 
BRANCH  29  30
HETATM   30  C11 UNL     1      10.063  34.101  21.057  1.00  0.00    -0.035 A 
HETATM   31  C12 UNL     1       9.205  34.938  20.326  1.00  0.00     0.009 A 
HETATM   32  C13 UNL     1       8.076  35.502  20.927  1.00  0.00     0.004 A 
HETATM   33  C14 UNL     1       7.796  35.240  22.267  1.00  0.00     0.042 A 
HETATM   34  C15 UNL     1       8.647  34.419  22.996  1.00  0.00     0.117 A 
HETATM   35  F1  UNL     1       8.381  34.173  24.285  1.00  0.00    -0.206 F 
HETATM   36  C16 UNL     1       9.775  33.852  22.408  1.00  0.00     0.051 A 
ENDBRANCH  29  30
ENDBRANCH   9  29
TORSDOF 7
ENDMDL
