MODEL 1
REMARK minimizedAffinity -9.09925652
REMARK  8 active torsions:
REMARK  status: ('A' for Active; 'I' for Inactive)
REMARK    1  A    between atoms: C2_2  and  C3_3 
REMARK       I    between atoms: C3_3  and  N1_5 
REMARK    2  A    between atoms: N1_5  and  C4_6 
REMARK    3  A    between atoms: C8_10  and  C9_11 
REMARK    4  A    between atoms: C13_20  and  N4_21 
REMARK    5  A    between atoms: N4_21  and  C14_22 
REMARK    6  A    between atoms: C14_22  and  C15_23 
REMARK    7  A    between atoms: C14_22  and  C16_25 
REMARK    8  A    between atoms: C15_23  and  O3_24 
ROOT
HETATM    1  C9  UNL     1      -6.150   3.850  12.678  1.00  0.00     0.014 A 
HETATM    2  C10 UNL     1      -6.974   2.816  12.290  1.00  0.00     0.157 A 
HETATM    3  O2  UNL     1      -6.248   1.812  11.735  1.00  0.00    -0.304 OA
HETATM    4  C11 UNL     1      -4.940   2.195  11.764  1.00  0.00     0.162 A 
HETATM    5  N2  UNL     1      -3.951   1.422  11.300  1.00  0.00    -0.332 N 
ATOM      6  H2  UNL     1      -4.085   0.500  10.885  1.00  0.00     0.168 HD
HETATM    7  C12 UNL     1      -2.764   2.016  11.452  1.00  0.00     0.183 A 
HETATM    8  N3  UNL     1      -2.502   3.227  11.981  1.00  0.00    -0.342 N 
ATOM      9  H3  UNL     1      -1.541   3.564  12.047  1.00  0.00     0.167 HD
HETATM   10  C13 UNL     1      -3.528   3.990  12.424  1.00  0.00     0.097 A 
HETATM   11  C22 UNL     1      -4.824   3.456  12.332  1.00  0.00     0.067 A 
ENDROOT
BRANCH   1  12
HETATM   12  C8  UNL     1      -6.633   5.041  13.337  1.00  0.00    -0.021 A 
HETATM   13  C7  UNL     1      -5.747   6.090  13.599  1.00  0.00     0.012 A 
HETATM   14  C6  UNL     1      -6.212   7.253  14.206  1.00  0.00     0.003 A 
HETATM   15  C5  UNL     1      -7.562   7.372  14.543  1.00  0.00     0.029 A 
HETATM   16  C4  UNL     1      -8.464   6.332  14.275  1.00  0.00     0.035 A 
HETATM   17  C23 UNL     1      -7.990   5.164  13.673  1.00  0.00     0.042 A 
BRANCH  16  18
HETATM   18  N1  UNL     1      -9.811   6.549  14.637  1.00  0.00    -0.324 N 
HETATM   19  C3  UNL     1     -10.853   6.912  13.807  1.00  0.00     0.244 C 
HETATM   20  O1  UNL     1     -10.794   7.136  12.607  1.00  0.00    -0.268 OA
HETATM   21  H4  UNL     1     -10.025   6.419  15.617  1.00  0.00     0.169 HD
BRANCH  19  22
HETATM   22  C2  UNL     1     -12.140   7.032  14.552  1.00  0.00     0.064 C 
HETATM   23  C1  UNL     1     -13.152   6.191  14.300  1.00  0.00     0.017 C 
ENDBRANCH  19  22
ENDBRANCH  16  18
ENDBRANCH   1  12
BRANCH  10  24
HETATM   24  N4  UNL     1      -3.281   5.253  12.968  1.00  0.00    -0.267 NA
HETATM   25  H10 UNL     1      -3.701   5.985  12.405  1.00  0.00     0.130 HD
BRANCH  24  26
HETATM   26  C14 UNL     1      -1.893   5.535  13.349  1.00  0.00     0.118 C 
BRANCH  26  27
HETATM   27  C15 UNL     1      -1.858   6.032  14.818  1.00  0.00     0.188 C 
BRANCH  27  28
HETATM   28  O3  UNL     1      -0.588   5.824  15.440  1.00  0.00    -0.399 OA
HETATM   29  H14 UNL     1       0.074   6.303  14.909  1.00  0.00     0.209 HD
ENDBRANCH  27  28
ENDBRANCH  26  27
BRANCH  26  30
HETATM   30  C16 UNL     1      -1.275   6.568  12.410  1.00  0.00    -0.038 A 
HETATM   31  C17 UNL     1      -1.619   7.922  12.551  1.00  0.00     0.009 A 
HETATM   32  C18 UNL     1      -1.067   8.890  11.711  1.00  0.00     0.001 A 
HETATM   33  C19 UNL     1      -0.157   8.520  10.723  1.00  0.00     0.000 A 
HETATM   34  C20 UNL     1       0.199   7.183  10.574  1.00  0.00     0.001 A 
HETATM   35  C21 UNL     1      -0.358   6.210  11.408  1.00  0.00     0.009 A 
ENDBRANCH  26  30
ENDBRANCH  24  26
ENDBRANCH  10  24
TORSDOF 8
ENDMDL
MODEL 2
REMARK minimizedAffinity -8.98891163
REMARK  8 active torsions:
REMARK  status: ('A' for Active; 'I' for Inactive)
REMARK    1  A    between atoms: C2_2  and  C3_3 
REMARK       I    between atoms: C3_3  and  N1_5 
REMARK    2  A    between atoms: N1_5  and  C4_6 
REMARK    3  A    between atoms: C8_10  and  C9_11 
REMARK    4  A    between atoms: C13_20  and  N4_21 
REMARK    5  A    between atoms: N4_21  and  C14_22 
REMARK    6  A    between atoms: C14_22  and  C15_23 
REMARK    7  A    between atoms: C14_22  and  C16_25 
REMARK    8  A    between atoms: C15_23  and  O3_24 
ROOT
HETATM    1  C9  UNL     1      -3.504   3.691  11.529  1.00  0.00     0.014 A 
HETATM    2  C10 UNL     1      -2.637   2.963  10.744  1.00  0.00     0.157 A 
HETATM    3  O2  UNL     1      -1.427   3.576  10.677  1.00  0.00    -0.304 OA
HETATM    4  C11 UNL     1      -1.508   4.713  11.427  1.00  0.00     0.162 A 
HETATM    5  N2  UNL     1      -0.474   5.549  11.582  1.00  0.00    -0.332 N 
ATOM      6  H2  UNL     1       0.443   5.418  11.157  1.00  0.00     0.168 HD
HETATM    7  C12 UNL     1      -0.802   6.578  12.369  1.00  0.00     0.183 A 
HETATM    8  N3  UNL     1      -1.987   6.826  12.962  1.00  0.00    -0.342 N 
ATOM      9  H3  UNL     1      -2.106   7.652  13.550  1.00  0.00     0.167 HD
HETATM   10  C13 UNL     1      -3.016   5.968  12.768  1.00  0.00     0.097 A 
HETATM   11  C22 UNL     1      -2.778   4.836  11.972  1.00  0.00     0.067 A 
ENDROOT
BRANCH   1  12
HETATM   12  C8  UNL     1      -4.854   3.267  11.818  1.00  0.00    -0.021 A 
HETATM   13  C7  UNL     1      -5.221   1.938  11.593  1.00  0.00     0.012 A 
HETATM   14  C6  UNL     1      -6.512   1.515  11.898  1.00  0.00     0.003 A 
HETATM   15  C5  UNL     1      -7.432   2.417  12.436  1.00  0.00     0.029 A 
HETATM   16  C4  UNL     1      -7.074   3.751  12.678  1.00  0.00     0.035 A 
HETATM   17  C23 UNL     1      -5.779   4.172  12.362  1.00  0.00     0.042 A 
BRANCH  16  18
HETATM   18  N1  UNL     1      -8.066   4.585  13.238  1.00  0.00    -0.324 N 
HETATM   19  C3  UNL     1      -8.831   5.530  12.584  1.00  0.00     0.244 C 
HETATM   20  O1  UNL     1      -8.774   5.834  11.401  1.00  0.00    -0.268 OA
HETATM   21  H4  UNL     1      -8.225   4.468  14.229  1.00  0.00     0.169 HD
BRANCH  19  22
HETATM   22  C2  UNL     1      -9.788   6.205  13.508  1.00  0.00     0.064 C 
HETATM   23  C1  UNL     1     -10.662   7.106  13.041  1.00  0.00     0.017 C 
ENDBRANCH  19  22
ENDBRANCH  16  18
ENDBRANCH   1  12
BRANCH  10  24
HETATM   24  N4  UNL     1      -4.255   6.211  13.365  1.00  0.00    -0.267 NA
HETATM   25  H10 UNL     1      -4.919   6.584  12.695  1.00  0.00     0.130 HD
BRANCH  24  26
HETATM   26  C14 UNL     1      -4.231   6.945  14.634  1.00  0.00     0.118 C 
BRANCH  26  27
HETATM   27  C15 UNL     1      -3.448   6.120  15.687  1.00  0.00     0.188 C 
BRANCH  27  28
HETATM   28  O3  UNL     1      -2.810   6.940  16.669  1.00  0.00    -0.399 OA
HETATM   29  H14 UNL     1      -3.509   7.462  17.105  1.00  0.00     0.209 HD
ENDBRANCH  27  28
ENDBRANCH  26  27
BRANCH  26  30
HETATM   30  C16 UNL     1      -5.651   7.236  15.115  1.00  0.00    -0.038 A 
HETATM   31  C17 UNL     1      -6.300   6.311  15.949  1.00  0.00     0.009 A 
HETATM   32  C18 UNL     1      -7.595   6.550  16.410  1.00  0.00     0.001 A 
HETATM   33  C19 UNL     1      -8.257   7.723  16.051  1.00  0.00     0.000 A 
HETATM   34  C20 UNL     1      -7.626   8.653  15.230  1.00  0.00     0.001 A 
HETATM   35  C21 UNL     1      -6.333   8.412  14.761  1.00  0.00     0.009 A 
ENDBRANCH  26  30
ENDBRANCH  24  26
ENDBRANCH  10  24
TORSDOF 8
ENDMDL
MODEL 3
REMARK minimizedAffinity -8.78972912
REMARK  8 active torsions:
REMARK  status: ('A' for Active; 'I' for Inactive)
REMARK    1  A    between atoms: C2_2  and  C3_3 
REMARK       I    between atoms: C3_3  and  N1_5 
REMARK    2  A    between atoms: N1_5  and  C4_6 
REMARK    3  A    between atoms: C8_10  and  C9_11 
REMARK    4  A    between atoms: C13_20  and  N4_21 
REMARK    5  A    between atoms: N4_21  and  C14_22 
REMARK    6  A    between atoms: C14_22  and  C15_23 
REMARK    7  A    between atoms: C14_22  and  C16_25 
REMARK    8  A    between atoms: C15_23  and  O3_24 
ROOT
HETATM    1  C9  UNL     1      -6.728   4.381  13.354  1.00  0.00     0.014 A 
HETATM    2  C10 UNL     1      -8.037   3.965  13.467  1.00  0.00     0.157 A 
HETATM    3  O2  UNL     1      -8.213   2.772  12.843  1.00  0.00    -0.304 OA
HETATM    4  C11 UNL     1      -7.007   2.407  12.321  1.00  0.00     0.162 A 
HETATM    5  N2  UNL     1      -6.829   1.265  11.647  1.00  0.00    -0.332 N 
ATOM      6  H2  UNL     1      -7.565   0.584  11.460  1.00  0.00     0.168 HD
HETATM    7  C12 UNL     1      -5.560   1.133  11.250  1.00  0.00     0.183 A 
HETATM    8  N3  UNL     1      -4.535   1.984  11.449  1.00  0.00    -0.342 N 
ATOM      9  H3  UNL     1      -3.603   1.760  11.098  1.00  0.00     0.167 HD
HETATM   10  C13 UNL     1      -4.755   3.140  12.120  1.00  0.00     0.097 A 
HETATM   11  C22 UNL     1      -6.053   3.375  12.603  1.00  0.00     0.067 A 
ENDROOT
BRANCH   1  12
HETATM   12  C8  UNL     1      -6.230   5.597  13.953  1.00  0.00    -0.021 A 
HETATM   13  C7  UNL     1      -6.768   6.037  15.165  1.00  0.00     0.012 A 
HETATM   14  C6  UNL     1      -6.272   7.192  15.763  1.00  0.00     0.003 A 
HETATM   15  C5  UNL     1      -5.234   7.901  15.156  1.00  0.00     0.029 A 
HETATM   16  C4  UNL     1      -4.677   7.464  13.945  1.00  0.00     0.035 A 
HETATM   17  C23 UNL     1      -5.185   6.309  13.345  1.00  0.00     0.042 A 
BRANCH  16  18
HETATM   18  N1  UNL     1      -3.622   8.238  13.414  1.00  0.00    -0.324 N 
HETATM   19  C3  UNL     1      -2.464   8.626  14.057  1.00  0.00     0.244 C 
HETATM   20  O1  UNL     1      -2.149   8.390  15.214  1.00  0.00    -0.268 OA
HETATM   21  H4  UNL     1      -3.739   8.533  12.454  1.00  0.00     0.169 HD
BRANCH  19  22
HETATM   22  C2  UNL     1      -1.574   9.425  13.164  1.00  0.00     0.064 C 
HETATM   23  C1  UNL     1      -1.408   9.076  11.881  1.00  0.00     0.017 C 
ENDBRANCH  19  22
ENDBRANCH  16  18
ENDBRANCH   1  12
BRANCH  10  24
HETATM   24  N4  UNL     1      -3.709   4.041  12.329  1.00  0.00    -0.267 NA
HETATM   25  H10 UNL     1      -4.055   4.988  12.437  1.00  0.00     0.130 HD
BRANCH  24  26
HETATM   26  C14 UNL     1      -2.570   3.938  11.410  1.00  0.00     0.118 C 
BRANCH  26  27
HETATM   27  C15 UNL     1      -2.161   2.449  11.268  1.00  0.00     0.188 C 
BRANCH  27  28
HETATM   28  O3  UNL     1      -1.764   2.110   9.938  1.00  0.00    -0.399 OA
HETATM   29  H14 UNL     1      -1.013   2.686   9.707  1.00  0.00     0.209 HD
ENDBRANCH  27  28
ENDBRANCH  26  27
BRANCH  26  30
HETATM   30  C16 UNL     1      -1.398   4.780  11.908  1.00  0.00    -0.038 A 
HETATM   31  C17 UNL     1      -1.303   5.092  13.274  1.00  0.00     0.009 A 
HETATM   32  C18 UNL     1      -0.241   5.854  13.761  1.00  0.00     0.001 A 
HETATM   33  C19 UNL     1       0.747   6.310  12.890  1.00  0.00     0.000 A 
HETATM   34  C20 UNL     1       0.671   6.004  11.534  1.00  0.00     0.001 A 
HETATM   35  C21 UNL     1      -0.395   5.248  11.043  1.00  0.00     0.009 A 
ENDBRANCH  26  30
ENDBRANCH  24  26
ENDBRANCH  10  24
TORSDOF 8
ENDMDL
MODEL 4
REMARK minimizedAffinity -8.75399876
REMARK  8 active torsions:
REMARK  status: ('A' for Active; 'I' for Inactive)
REMARK    1  A    between atoms: C2_2  and  C3_3 
REMARK       I    between atoms: C3_3  and  N1_5 
REMARK    2  A    between atoms: N1_5  and  C4_6 
REMARK    3  A    between atoms: C8_10  and  C9_11 
REMARK    4  A    between atoms: C13_20  and  N4_21 
REMARK    5  A    between atoms: N4_21  and  C14_22 
REMARK    6  A    between atoms: C14_22  and  C15_23 
REMARK    7  A    between atoms: C14_22  and  C16_25 
REMARK    8  A    between atoms: C15_23  and  O3_24 
ROOT
HETATM    1  C9  UNL     1      -2.443   4.401  12.171  1.00  0.00     0.014 A 
HETATM    2  C10 UNL     1      -2.266   3.095  11.772  1.00  0.00     0.157 A 
HETATM    3  O2  UNL     1      -3.443   2.420  11.814  1.00  0.00    -0.304 OA
HETATM    4  C11 UNL     1      -4.396   3.297  12.242  1.00  0.00     0.162 A 
HETATM    5  N2  UNL     1      -5.682   2.953  12.383  1.00  0.00    -0.332 N 
ATOM      6  H2  UNL     1      -6.055   2.023  12.196  1.00  0.00     0.168 HD
HETATM    7  C12 UNL     1      -6.414   3.989  12.803  1.00  0.00     0.183 A 
HETATM    8  N3  UNL     1      -6.000   5.242  13.078  1.00  0.00    -0.342 N 
ATOM      9  H3  UNL     1      -6.667   5.950  13.386  1.00  0.00     0.167 HD
HETATM   10  C13 UNL     1      -4.689   5.550  12.941  1.00  0.00     0.097 A 
HETATM   11  C22 UNL     1      -3.827   4.539  12.485  1.00  0.00     0.067 A 
ENDROOT
BRANCH   1  12
HETATM   12  C8  UNL     1      -1.375   5.374  12.191  1.00  0.00    -0.021 A 
HETATM   13  C7  UNL     1      -0.990   5.948  13.405  1.00  0.00     0.012 A 
HETATM   14  C6  UNL     1       0.059   6.863  13.436  1.00  0.00     0.003 A 
HETATM   15  C5  UNL     1       0.728   7.196  12.257  1.00  0.00     0.029 A 
HETATM   16  C4  UNL     1       0.360   6.619  11.034  1.00  0.00     0.035 A 
HETATM   17  C23 UNL     1      -0.699   5.707  11.007  1.00  0.00     0.042 A 
BRANCH  16  18
HETATM   18  N1  UNL     1       1.104   7.005   9.897  1.00  0.00    -0.324 N 
HETATM   19  C3  UNL     1       0.857   8.075   9.060  1.00  0.00     0.244 C 
HETATM   20  O1  UNL     1      -0.066   8.872   9.136  1.00  0.00    -0.268 OA
HETATM   21  H4  UNL     1       1.905   6.427   9.684  1.00  0.00     0.169 HD
BRANCH  19  22
HETATM   22  C2  UNL     1       1.873   8.174   7.972  1.00  0.00     0.064 C 
HETATM   23  C1  UNL     1       1.862   7.306   6.951  1.00  0.00     0.017 C 
ENDBRANCH  19  22
ENDBRANCH  16  18
ENDBRANCH   1  12
BRANCH  10  24
HETATM   24  N4  UNL     1      -4.236   6.840  13.230  1.00  0.00    -0.267 NA
HETATM   25  H10 UNL     1      -3.346   7.026  12.782  1.00  0.00     0.130 HD
BRANCH  24  26
HETATM   26  C14 UNL     1      -4.273   7.239  14.641  1.00  0.00     0.118 C 
BRANCH  26  27
HETATM   27  C15 UNL     1      -3.497   6.196  15.488  1.00  0.00     0.188 C 
BRANCH  27  28
HETATM   28  O3  UNL     1      -2.881   6.771  16.642  1.00  0.00    -0.399 OA
HETATM   29  H14 UNL     1      -3.590   7.174  17.175  1.00  0.00     0.209 HD
ENDBRANCH  27  28
ENDBRANCH  26  27
BRANCH  26  30
HETATM   30  C16 UNL     1      -5.714   7.370  15.126  1.00  0.00    -0.038 A 
HETATM   31  C17 UNL     1      -6.502   8.439  14.669  1.00  0.00     0.009 A 
HETATM   32  C18 UNL     1      -7.824   8.584  15.090  1.00  0.00     0.001 A 
HETATM   33  C19 UNL     1      -8.382   7.657  15.969  1.00  0.00     0.000 A 
HETATM   34  C20 UNL     1      -7.617   6.588  16.427  1.00  0.00     0.001 A 
HETATM   35  C21 UNL     1      -6.290   6.446  16.014  1.00  0.00     0.009 A 
ENDBRANCH  26  30
ENDBRANCH  24  26
ENDBRANCH  10  24
TORSDOF 8
ENDMDL
MODEL 5
REMARK minimizedAffinity -8.63812447
REMARK  8 active torsions:
REMARK  status: ('A' for Active; 'I' for Inactive)
REMARK    1  A    between atoms: C2_2  and  C3_3 
REMARK       I    between atoms: C3_3  and  N1_5 
REMARK    2  A    between atoms: N1_5  and  C4_6 
REMARK    3  A    between atoms: C8_10  and  C9_11 
REMARK    4  A    between atoms: C13_20  and  N4_21 
REMARK    5  A    between atoms: N4_21  and  C14_22 
REMARK    6  A    between atoms: C14_22  and  C15_23 
REMARK    7  A    between atoms: C14_22  and  C16_25 
REMARK    8  A    between atoms: C15_23  and  O3_24 
ROOT
HETATM    1  C9  UNL     1      -1.621   3.689  11.890  1.00  0.00     0.014 A 
HETATM    2  C10 UNL     1      -1.236   2.526  11.260  1.00  0.00     0.157 A 
HETATM    3  O2  UNL     1      -2.313   1.737  11.018  1.00  0.00    -0.304 OA
HETATM    4  C11 UNL     1      -3.410   2.393  11.494  1.00  0.00     0.162 A 
HETATM    5  N2  UNL     1      -4.648   1.891  11.403  1.00  0.00    -0.332 N 
ATOM      6  H2  UNL     1      -4.875   0.988  10.986  1.00  0.00     0.168 HD
HETATM    7  C12 UNL     1      -5.546   2.727  11.930  1.00  0.00     0.183 A 
HETATM    8  N3  UNL     1      -5.330   3.928  12.502  1.00  0.00    -0.342 N 
ATOM      9  H3  UNL     1      -6.111   4.477  12.862  1.00  0.00     0.167 HD
HETATM   10  C13 UNL     1      -4.063   4.397  12.593  1.00  0.00     0.097 A 
HETATM   11  C22 UNL     1      -3.035   3.607  12.052  1.00  0.00     0.067 A 
ENDROOT
BRANCH   1  12
HETATM   12  C8  UNL     1      -0.696   4.743  12.238  1.00  0.00    -0.021 A 
HETATM   13  C7  UNL     1      -0.470   5.043  13.584  1.00  0.00     0.012 A 
HETATM   14  C6  UNL     1       0.442   6.036  13.928  1.00  0.00     0.003 A 
HETATM   15  C5  UNL     1       1.134   6.723  12.929  1.00  0.00     0.029 A 
HETATM   16  C4  UNL     1       0.925   6.425  11.575  1.00  0.00     0.035 A 
HETATM   17  C23 UNL     1       0.002   5.432  11.235  1.00  0.00     0.042 A 
BRANCH  16  18
HETATM   18  N1  UNL     1       1.680   7.162  10.636  1.00  0.00    -0.324 N 
HETATM   19  C3  UNL     1       2.421   6.664   9.583  1.00  0.00     0.244 C 
HETATM   20  O1  UNL     1       2.578   5.489   9.283  1.00  0.00    -0.268 OA
HETATM   21  H4  UNL     1       1.669   8.165  10.759  1.00  0.00     0.169 HD
BRANCH  19  22
HETATM   22  C2  UNL     1       3.071   7.753   8.798  1.00  0.00     0.064 C 
HETATM   23  C1  UNL     1       2.500   8.219   7.679  1.00  0.00     0.017 C 
ENDBRANCH  19  22
ENDBRANCH  16  18
ENDBRANCH   1  12
BRANCH  10  24
HETATM   24  N4  UNL     1      -3.813   5.635  13.191  1.00  0.00    -0.267 NA
HETATM   25  H10 UNL     1      -3.493   5.523  14.147  1.00  0.00     0.130 HD
BRANCH  24  26
HETATM   26  C14 UNL     1      -4.860   6.650  13.041  1.00  0.00     0.118 C 
BRANCH  26  27
HETATM   27  C15 UNL     1      -4.225   8.060  13.159  1.00  0.00     0.188 C 
BRANCH  27  28
HETATM   28  O3  UNL     1      -5.149   9.044  13.630  1.00  0.00    -0.399 OA
HETATM   29  H14 UNL     1      -5.466   8.746  14.502  1.00  0.00     0.209 HD
ENDBRANCH  27  28
ENDBRANCH  26  27
BRANCH  26  30
HETATM   30  C16 UNL     1      -5.954   6.456  14.088  1.00  0.00    -0.038 A 
HETATM   31  C17 UNL     1      -7.302   6.517  13.699  1.00  0.00     0.009 A 
HETATM   32  C18 UNL     1      -8.324   6.339  14.631  1.00  0.00     0.001 A 
HETATM   33  C19 UNL     1      -8.014   6.089  15.966  1.00  0.00     0.000 A 
HETATM   34  C20 UNL     1      -6.683   6.020  16.369  1.00  0.00     0.001 A 
HETATM   35  C21 UNL     1      -5.658   6.206  15.439  1.00  0.00     0.009 A 
ENDBRANCH  26  30
ENDBRANCH  24  26
ENDBRANCH  10  24
TORSDOF 8
ENDMDL
MODEL 6
REMARK minimizedAffinity -8.54653835
REMARK  8 active torsions:
REMARK  status: ('A' for Active; 'I' for Inactive)
REMARK    1  A    between atoms: C2_2  and  C3_3 
REMARK       I    between atoms: C3_3  and  N1_5 
REMARK    2  A    between atoms: N1_5  and  C4_6 
REMARK    3  A    between atoms: C8_10  and  C9_11 
REMARK    4  A    between atoms: C13_20  and  N4_21 
REMARK    5  A    between atoms: N4_21  and  C14_22 
REMARK    6  A    between atoms: C14_22  and  C15_23 
REMARK    7  A    between atoms: C14_22  and  C16_25 
REMARK    8  A    between atoms: C15_23  and  O3_24 
ROOT
HETATM    1  C9  UNL     1      -4.032   4.372  12.318  1.00  0.00     0.014 A 
HETATM    2  C10 UNL     1      -4.940   3.419  11.912  1.00  0.00     0.157 A 
HETATM    3  O2  UNL     1      -4.299   2.331  11.414  1.00  0.00    -0.304 OA
HETATM    4  C11 UNL     1      -2.960   2.578  11.498  1.00  0.00     0.162 A 
HETATM    5  N2  UNL     1      -2.037   1.694  11.099  1.00  0.00    -0.332 N 
ATOM      6  H2  UNL     1      -2.248   0.781  10.697  1.00  0.00     0.168 HD
HETATM    7  C12 UNL     1      -0.803   2.166  11.296  1.00  0.00     0.183 A 
HETATM    8  N3  UNL     1      -0.440   3.357  11.812  1.00  0.00    -0.342 N 
ATOM      9  H3  UNL     1       0.546   3.595  11.918  1.00  0.00     0.167 HD
HETATM   10  C13 UNL     1      -1.401   4.234  12.189  1.00  0.00     0.097 A 
HETATM   11  C22 UNL     1      -2.740   3.834  12.045  1.00  0.00     0.067 A 
ENDROOT
BRANCH   1  12
HETATM   12  C8  UNL     1      -4.418   5.623  12.928  1.00  0.00    -0.021 A 
HETATM   13  C7  UNL     1      -3.592   6.742  12.785  1.00  0.00     0.012 A 
HETATM   14  C6  UNL     1      -3.972   7.958  13.344  1.00  0.00     0.003 A 
HETATM   15  C5  UNL     1      -5.180   8.060  14.037  1.00  0.00     0.029 A 
HETATM   16  C4  UNL     1      -6.024   6.948  14.178  1.00  0.00     0.035 A 
HETATM   17  C23 UNL     1      -5.633   5.727  13.621  1.00  0.00     0.042 A 
BRANCH  16  18
HETATM   18  N1  UNL     1      -7.231   7.150  14.881  1.00  0.00    -0.324 N 
HETATM   19  C3  UNL     1      -8.508   6.843  14.457  1.00  0.00     0.244 C 
HETATM   20  O1  UNL     1      -8.831   6.358  13.382  1.00  0.00    -0.268 OA
HETATM   21  H4  UNL     1      -7.137   7.567  15.798  1.00  0.00     0.169 HD
BRANCH  19  22
HETATM   22  C2  UNL     1      -9.533   7.188  15.485  1.00  0.00     0.064 C 
HETATM   23  C1  UNL     1      -9.186   7.856  16.593  1.00  0.00     0.017 C 
ENDBRANCH  19  22
ENDBRANCH  16  18
ENDBRANCH   1  12
BRANCH  10  24
HETATM   24  N4  UNL     1      -1.048   5.478  12.717  1.00  0.00    -0.267 NA
HETATM   25  H10 UNL     1      -1.719   6.192  12.455  1.00  0.00     0.130 HD
BRANCH  24  26
HETATM   26  C14 UNL     1       0.347   5.890  12.531  1.00  0.00     0.118 C 
BRANCH  26  27
HETATM   27  C15 UNL     1       0.791   6.751  13.741  1.00  0.00     0.188 C 
BRANCH  27  28
HETATM   28  O3  UNL     1       1.834   6.137  14.502  1.00  0.00    -0.399 OA
HETATM   29  H14 UNL     1       2.586   5.997  13.898  1.00  0.00     0.209 HD
ENDBRANCH  27  28
ENDBRANCH  26  27
BRANCH  26  30
HETATM   30  C16 UNL     1       0.510   6.662  11.224  1.00  0.00    -0.038 A 
HETATM   31  C17 UNL     1       1.431   6.209  10.265  1.00  0.00     0.009 A 
HETATM   32  C18 UNL     1       1.599   6.890   9.059  1.00  0.00     0.001 A 
HETATM   33  C19 UNL     1       0.845   8.030   8.790  1.00  0.00     0.000 A 
HETATM   34  C20 UNL     1      -0.076   8.490   9.728  1.00  0.00     0.001 A 
HETATM   35  C21 UNL     1      -0.241   7.815  10.939  1.00  0.00     0.009 A 
ENDBRANCH  26  30
ENDBRANCH  24  26
ENDBRANCH  10  24
TORSDOF 8
ENDMDL
MODEL 7
REMARK minimizedAffinity -8.51604652
REMARK  8 active torsions:
REMARK  status: ('A' for Active; 'I' for Inactive)
REMARK    1  A    between atoms: C2_2  and  C3_3 
REMARK       I    between atoms: C3_3  and  N1_5 
REMARK    2  A    between atoms: N1_5  and  C4_6 
REMARK    3  A    between atoms: C8_10  and  C9_11 
REMARK    4  A    between atoms: C13_20  and  N4_21 
REMARK    5  A    between atoms: N4_21  and  C14_22 
REMARK    6  A    between atoms: C14_22  and  C15_23 
REMARK    7  A    between atoms: C14_22  and  C16_25 
REMARK    8  A    between atoms: C15_23  and  O3_24 
ROOT
HETATM    1  C9  UNL     1      -6.693   4.221  13.108  1.00  0.00     0.014 A 
HETATM    2  C10 UNL     1      -7.657   3.261  12.887  1.00  0.00     0.157 A 
HETATM    3  O2  UNL     1      -7.127   2.198  12.230  1.00  0.00    -0.304 OA
HETATM    4  C11 UNL     1      -5.806   2.467  12.023  1.00  0.00     0.162 A 
HETATM    5  N2  UNL     1      -4.983   1.611  11.406  1.00  0.00    -0.332 N 
ATOM      6  H2  UNL     1      -5.266   0.704  11.035  1.00  0.00     0.168 HD
HETATM    7  C12 UNL     1      -3.742   2.101  11.338  1.00  0.00     0.183 A 
HETATM    8  N3  UNL     1      -3.290   3.285  11.794  1.00  0.00    -0.342 N 
ATOM      9  H3  UNL     1      -2.307   3.539  11.686  1.00  0.00     0.167 HD
HETATM   10  C13 UNL     1      -4.154   4.135  12.398  1.00  0.00     0.097 A 
HETATM   11  C22 UNL     1      -5.487   3.714  12.542  1.00  0.00     0.067 A 
ENDROOT
BRANCH   1  12
HETATM   12  C8  UNL     1      -6.951   5.449  13.823  1.00  0.00    -0.021 A 
HETATM   13  C7  UNL     1      -8.252   5.956  13.874  1.00  0.00     0.012 A 
HETATM   14  C6  UNL     1      -8.512   7.123  14.586  1.00  0.00     0.003 A 
HETATM   15  C5  UNL     1      -7.476   7.778  15.254  1.00  0.00     0.029 A 
HETATM   16  C4  UNL     1      -6.168   7.275  15.221  1.00  0.00     0.035 A 
HETATM   17  C23 UNL     1      -5.911   6.107  14.497  1.00  0.00     0.042 A 
BRANCH  16  18
HETATM   18  N1  UNL     1      -5.189   7.997  15.938  1.00  0.00    -0.324 N 
HETATM   19  C3  UNL     1      -4.399   9.027  15.470  1.00  0.00     0.244 C 
HETATM   20  O1  UNL     1      -4.385   9.489  14.338  1.00  0.00    -0.268 OA
HETATM   21  H4  UNL     1      -5.063   7.719  16.902  1.00  0.00     0.169 HD
BRANCH  19  22
HETATM   22  C2  UNL     1      -3.489   9.554  16.528  1.00  0.00     0.064 C 
HETATM   23  C1  UNL     1      -2.160   9.509  16.367  1.00  0.00     0.017 C 
ENDBRANCH  19  22
ENDBRANCH  16  18
ENDBRANCH   1  12
BRANCH  10  24
HETATM   24  N4  UNL     1      -3.710   5.372  12.870  1.00  0.00    -0.267 NA
HETATM   25  H10 UNL     1      -3.984   6.123  12.246  1.00  0.00     0.130 HD
BRANCH  24  26
HETATM   26  C14 UNL     1      -2.305   5.441  13.285  1.00  0.00     0.118 C 
BRANCH  26  27
HETATM   27  C15 UNL     1      -2.235   5.771  14.799  1.00  0.00     0.188 C 
BRANCH  27  28
HETATM   28  O3  UNL     1      -0.936   5.552  15.352  1.00  0.00    -0.399 OA
HETATM   29  H14 UNL     1      -0.315   6.118  14.858  1.00  0.00     0.209 HD
ENDBRANCH  27  28
ENDBRANCH  26  27
BRANCH  26  30
HETATM   30  C16 UNL     1      -1.551   6.485  12.465  1.00  0.00    -0.038 A 
HETATM   31  C17 UNL     1      -1.819   7.849  12.670  1.00  0.00     0.009 A 
HETATM   32  C18 UNL     1      -1.143   8.827  11.940  1.00  0.00     0.001 A 
HETATM   33  C19 UNL     1      -0.183   8.457  11.000  1.00  0.00     0.000 A 
HETATM   34  C20 UNL     1       0.099   7.110  10.790  1.00  0.00     0.001 A 
HETATM   35  C21 UNL     1      -0.582   6.129  11.513  1.00  0.00     0.009 A 
ENDBRANCH  26  30
ENDBRANCH  24  26
ENDBRANCH  10  24
TORSDOF 8
ENDMDL
MODEL 8
REMARK minimizedAffinity -8.3989563
REMARK  8 active torsions:
REMARK  status: ('A' for Active; 'I' for Inactive)
REMARK    1  A    between atoms: C2_2  and  C3_3 
REMARK       I    between atoms: C3_3  and  N1_5 
REMARK    2  A    between atoms: N1_5  and  C4_6 
REMARK    3  A    between atoms: C8_10  and  C9_11 
REMARK    4  A    between atoms: C13_20  and  N4_21 
REMARK    5  A    between atoms: N4_21  and  C14_22 
REMARK    6  A    between atoms: C14_22  and  C15_23 
REMARK    7  A    between atoms: C14_22  and  C16_25 
REMARK    8  A    between atoms: C15_23  and  O3_24 
ROOT
HETATM    1  C9  UNL     1      -4.600   4.463  12.597  1.00  0.00     0.014 A 
HETATM    2  C10 UNL     1      -4.160   3.219  12.203  1.00  0.00     0.157 A 
HETATM    3  O2  UNL     1      -5.198   2.346  12.135  1.00  0.00    -0.304 OA
HETATM    4  C11 UNL     1      -6.325   3.030  12.487  1.00  0.00     0.162 A 
HETATM    5  N2  UNL     1      -7.536   2.460  12.513  1.00  0.00    -0.332 N 
ATOM      6  H2  UNL     1      -7.719   1.484  12.284  1.00  0.00     0.168 HD
HETATM    7  C12 UNL     1      -8.473   3.340  12.877  1.00  0.00     0.183 A 
HETATM    8  N3  UNL     1      -8.314   4.638  13.199  1.00  0.00    -0.342 N 
ATOM      9  H3  UNL     1      -9.121   5.209  13.455  1.00  0.00     0.167 HD
HETATM   10  C13 UNL     1      -7.072   5.177  13.180  1.00  0.00     0.097 A 
HETATM   11  C22 UNL     1      -6.008   4.346  12.791  1.00  0.00     0.067 A 
ENDROOT
BRANCH   1  12
HETATM   12  C8  UNL     1      -3.728   5.608  12.720  1.00  0.00    -0.021 A 
HETATM   13  C7  UNL     1      -4.252   6.828  13.155  1.00  0.00     0.012 A 
HETATM   14  C6  UNL     1      -3.411   7.927  13.305  1.00  0.00     0.003 A 
HETATM   15  C5  UNL     1      -2.048   7.806  13.029  1.00  0.00     0.029 A 
HETATM   16  C4  UNL     1      -1.508   6.584  12.603  1.00  0.00     0.035 A 
HETATM   17  C23 UNL     1      -2.358   5.486  12.446  1.00  0.00     0.042 A 
BRANCH  16  18
HETATM   18  N1  UNL     1      -0.116   6.553  12.362  1.00  0.00    -0.324 N 
HETATM   19  C3  UNL     1       0.567   5.701  11.518  1.00  0.00     0.244 C 
HETATM   20  O1  UNL     1       0.096   4.800  10.840  1.00  0.00    -0.268 OA
HETATM   21  H4  UNL     1       0.429   7.236  12.870  1.00  0.00     0.169 HD
BRANCH  19  22
HETATM   22  C2  UNL     1       2.033   5.981  11.515  1.00  0.00     0.064 C 
HETATM   23  C1  UNL     1       2.796   5.599  10.483  1.00  0.00     0.017 C 
ENDBRANCH  19  22
ENDBRANCH  16  18
ENDBRANCH   1  12
BRANCH  10  24
HETATM   24  N4  UNL     1      -6.882   6.519  13.520  1.00  0.00    -0.267 NA
HETATM   25  H10 UNL     1      -5.994   6.864  13.174  1.00  0.00     0.130 HD
BRANCH  24  26
HETATM   26  C14 UNL     1      -7.141   6.876  14.919  1.00  0.00     0.118 C 
BRANCH  26  27
HETATM   27  C15 UNL     1      -7.347   5.581  15.747  1.00  0.00     0.188 C 
BRANCH  27  28
HETATM   28  O3  UNL     1      -6.784   5.669  17.058  1.00  0.00    -0.399 OA
HETATM   29  H14 UNL     1      -7.212   6.423  17.504  1.00  0.00     0.209 HD
ENDBRANCH  27  28
ENDBRANCH  26  27
BRANCH  26  30
HETATM   30  C16 UNL     1      -8.360   7.789  15.025  1.00  0.00    -0.038 A 
HETATM   31  C17 UNL     1      -9.648   7.234  14.950  1.00  0.00     0.009 A 
HETATM   32  C18 UNL     1     -10.781   8.042  15.049  1.00  0.00     0.001 A 
HETATM   33  C19 UNL     1     -10.644   9.416  15.232  1.00  0.00     0.000 A 
HETATM   34  C20 UNL     1      -9.375   9.982  15.314  1.00  0.00     0.001 A 
HETATM   35  C21 UNL     1      -8.239   9.177  15.207  1.00  0.00     0.009 A 
ENDBRANCH  26  30
ENDBRANCH  24  26
ENDBRANCH  10  24
TORSDOF 8
ENDMDL
MODEL 9
REMARK minimizedAffinity -8.30010796
REMARK  8 active torsions:
REMARK  status: ('A' for Active; 'I' for Inactive)
REMARK    1  A    between atoms: C2_2  and  C3_3 
REMARK       I    between atoms: C3_3  and  N1_5 
REMARK    2  A    between atoms: N1_5  and  C4_6 
REMARK    3  A    between atoms: C8_10  and  C9_11 
REMARK    4  A    between atoms: C13_20  and  N4_21 
REMARK    5  A    between atoms: N4_21  and  C14_22 
REMARK    6  A    between atoms: C14_22  and  C15_23 
REMARK    7  A    between atoms: C14_22  and  C16_25 
REMARK    8  A    between atoms: C15_23  and  O3_24 
ROOT
HETATM    1  C9  UNL     1      -6.957   3.906  13.108  1.00  0.00     0.014 A 
HETATM    2  C10 UNL     1      -7.553   2.722  12.731  1.00  0.00     0.157 A 
HETATM    3  O2  UNL     1      -6.709   1.987  11.962  1.00  0.00    -0.304 OA
HETATM    4  C11 UNL     1      -5.552   2.699  11.838  1.00  0.00     0.162 A 
HETATM    5  N2  UNL     1      -4.499   2.248  11.146  1.00  0.00    -0.332 N 
ATOM      6  H2  UNL     1      -4.471   1.356  10.652  1.00  0.00     0.168 HD
HETATM    7  C12 UNL     1      -3.489   3.121  11.185  1.00  0.00     0.183 A 
HETATM    8  N3  UNL     1      -3.447   4.317  11.805  1.00  0.00    -0.342 N 
ATOM      9  H3  UNL     1      -2.603   4.890  11.765  1.00  0.00     0.167 HD
HETATM   10  C13 UNL     1      -4.537   4.749  12.482  1.00  0.00     0.097 A 
HETATM   11  C22 UNL     1      -5.656   3.901  12.524  1.00  0.00     0.067 A 
ENDROOT
BRANCH   1  12
HETATM   12  C8  UNL     1      -7.597   4.876  13.964  1.00  0.00    -0.021 A 
HETATM   13  C7  UNL     1      -7.160   5.025  15.283  1.00  0.00     0.012 A 
HETATM   14  C6  UNL     1      -7.752   5.980  16.105  1.00  0.00     0.003 A 
HETATM   15  C5  UNL     1      -8.773   6.791  15.607  1.00  0.00     0.029 A 
HETATM   16  C4  UNL     1      -9.214   6.661  14.282  1.00  0.00     0.035 A 
HETATM   17  C23 UNL     1      -8.621   5.695  13.464  1.00  0.00     0.042 A 
BRANCH  16  18
HETATM   18  N1  UNL     1     -10.240   7.535  13.863  1.00  0.00    -0.324 N 
HETATM   19  C3  UNL     1     -11.602   7.332  13.958  1.00  0.00     0.244 C 
HETATM   20  O1  UNL     1     -12.171   6.345  14.402  1.00  0.00    -0.268 OA
HETATM   21  H4  UNL     1      -9.931   8.404  13.450  1.00  0.00     0.169 HD
BRANCH  19  22
HETATM   22  C2  UNL     1     -12.375   8.490  13.422  1.00  0.00     0.064 C 
HETATM   23  C1  UNL     1     -11.904   9.202  12.390  1.00  0.00     0.017 C 
ENDBRANCH  19  22
ENDBRANCH  16  18
ENDBRANCH   1  12
BRANCH  10  24
HETATM   24  N4  UNL     1      -4.520   5.990  13.124  1.00  0.00    -0.267 NA
HETATM   25  H10 UNL     1      -5.187   6.629  12.707  1.00  0.00     0.130 HD
BRANCH  24  26
HETATM   26  C14 UNL     1      -3.199   6.587  13.345  1.00  0.00     0.118 C 
BRANCH  26  27
HETATM   27  C15 UNL     1      -2.358   5.648  14.248  1.00  0.00     0.188 C 
BRANCH  27  28
HETATM   28  O3  UNL     1      -2.868   5.560  15.580  1.00  0.00    -0.399 OA
HETATM   29  H14 UNL     1      -3.783   5.230  15.515  1.00  0.00     0.209 HD
ENDBRANCH  27  28
ENDBRANCH  26  27
BRANCH  26  30
HETATM   30  C16 UNL     1      -3.332   7.972  13.973  1.00  0.00    -0.038 A 
HETATM   31  C17 UNL     1      -4.525   8.322  14.627  1.00  0.00     0.009 A 
HETATM   32  C18 UNL     1      -4.675   9.578  15.215  1.00  0.00     0.001 A 
HETATM   33  C19 UNL     1      -3.632  10.500  15.167  1.00  0.00     0.000 A 
HETATM   34  C20 UNL     1      -2.440  10.167  14.529  1.00  0.00     0.001 A 
HETATM   35  C21 UNL     1      -2.290   8.914  13.931  1.00  0.00     0.009 A 
ENDBRANCH  26  30
ENDBRANCH  24  26
ENDBRANCH  10  24
TORSDOF 8
ENDMDL
