MODEL 1
REMARK minimizedAffinity -10.5473871
REMARK CNNscore 0.937856793
REMARK CNNaffinity 7.83850527
REMARK  4 active torsions:
REMARK  status: ('A' for Active; 'I' for Inactive)
REMARK    1  A    between atoms: O1_2  and  C2_3 
REMARK    2  A    between atoms: C3_4  and  N1_5 
REMARK       I    between atoms: N1_5  and  C5_7 
REMARK    3  A    between atoms: C8_11  and  N3_32 
REMARK    4  A    between atoms: C9_13  and  N2_15 
ROOT
HETATM    1  C2  UNL     1       9.069  -8.104  27.020  1.00  0.00     0.199 C 
HETATM    2  C3  UNL     1       9.907  -9.000  26.075  1.00  0.00     0.124 C 
HETATM    3  C7  UNL     1      11.343  -8.466  26.053  1.00  0.00     0.082 C 
HETATM    4  C8  UNL     1      11.888  -8.271  27.472  1.00  0.00     0.233 C 
HETATM    5  O3  UNL     1      11.015  -8.717  28.509  1.00  0.00    -0.333 OA
HETATM    6  C9  UNL     1       9.630  -8.288  28.473  1.00  0.00     0.168 C 
HETATM    7  C10 UNL     1       8.960  -9.519  29.130  1.00  0.00     0.074 C 
ENDROOT
BRANCH   2   8
HETATM    8  N1  UNL     1       9.290  -9.161  24.730  1.00  0.00    -0.349 N 
HETATM    9  C4  UNL     1       8.123 -10.032  24.594  1.00  0.00     0.153 C 
HETATM   10  C5  UNL     1       9.874  -8.693  23.551  1.00  0.00     0.215 C 
HETATM   11  C6  UNL     1      11.066  -7.775  23.680  1.00  0.00     0.117 C 
HETATM   12  O2  UNL     1       9.453  -8.981  22.431  1.00  0.00    -0.274 OA
ENDBRANCH   2   8
BRANCH   1  13
HETATM   13  O1  UNL     1       9.221  -6.749  26.549  1.00  0.00    -0.384 OA
HETATM   14  C1  UNL     1      10.532  -6.230  26.734  1.00  0.00     0.202 C 
ENDBRANCH   1  13
BRANCH   6  15
HETATM   15  N2  UNL     1       9.498  -7.067  29.287  1.00  0.00    -0.308 N 
HETATM   16  C11 UNL     1      10.473  -6.418  30.048  1.00  0.00     0.049 A 
HETATM   17  C12 UNL     1      11.831  -6.695  30.297  1.00  0.00     0.030 A 
HETATM   18  C16 UNL     1       9.857  -5.302  30.648  1.00  0.00     0.004 A 
HETATM   19  C13 UNL     1      12.571  -5.824  31.103  1.00  0.00     0.002 A 
HETATM   20  C14 UNL     1      11.984  -4.702  31.670  1.00  0.00     0.001 A 
HETATM   21  C15 UNL     1      10.630  -4.438  31.455  1.00  0.00     0.014 A 
HETATM   22  C17 UNL     1       8.477  -5.335  30.313  1.00  0.00     0.015 A 
HETATM   23  C18 UNL     1       7.329  -4.588  30.623  1.00  0.00    -0.010 A 
HETATM   24  C28 UNL     1       8.299  -6.433  29.498  1.00  0.00     0.077 A 
HETATM   25  C19 UNL     1       6.032  -4.960  30.149  1.00  0.00     0.054 A 
HETATM   26  C30 UNL     1       7.207  -3.360  31.476  1.00  0.00     0.163 A 
HETATM   27  C20 UNL     1       5.764  -6.071  29.335  1.00  0.00     0.022 A 
HETATM   28  C29 UNL     1       5.079  -3.978  30.685  1.00  0.00     0.253 A 
HETATM   29  C21 UNL     1       4.646  -6.716  28.722  1.00  0.00     0.004 A 
HETATM   30  C27 UNL     1       6.879  -6.815  28.984  1.00  0.00     0.077 A 
HETATM   31  C22 UNL     1       3.255  -6.472  28.698  1.00  0.00     0.014 A 
HETATM   32  C26 UNL     1       5.135  -7.821  28.005  1.00  0.00     0.048 A 
HETATM   33  C23 UNL     1       2.404  -7.316  27.978  1.00  0.00     0.001 A 
HETATM   34  C24 UNL     1       2.913  -8.402  27.277  1.00  0.00     0.002 A 
HETATM   35  C25 UNL     1       4.283  -8.673  27.278  1.00  0.00     0.030 A 
HETATM   36  N3  UNL     1       6.511  -7.844  28.174  1.00  0.00    -0.316 N 
HETATM   37  O4  UNL     1       3.878  -3.931  30.518  1.00  0.00    -0.268 OA
HETATM   38  N4  UNL     1       5.799  -3.078  31.439  1.00  0.00    -0.353 N 
HETATM   39  H26 UNL     1       5.339  -2.307  31.905  1.00  0.00     0.163 HD
ENDBRANCH   6  15
TORSDOF 4
ENDMDL
MODEL 2
REMARK minimizedAffinity -9.81295109
REMARK CNNscore 0.833817303
REMARK CNNaffinity 7.7207675
REMARK  4 active torsions:
REMARK  status: ('A' for Active; 'I' for Inactive)
REMARK    1  A    between atoms: O1_2  and  C2_3 
REMARK    2  A    between atoms: C3_4  and  N1_5 
REMARK       I    between atoms: N1_5  and  C5_7 
REMARK    3  A    between atoms: C8_11  and  N3_32 
REMARK    4  A    between atoms: C9_13  and  N2_15 
ROOT
HETATM    1  C2  UNL     1       9.925  -9.077  26.816  1.00  0.00     0.199 C 
HETATM    2  C3  UNL     1      11.391  -8.601  26.678  1.00  0.00     0.124 C 
HETATM    3  C7  UNL     1      11.395  -7.071  26.599  1.00  0.00     0.082 C 
HETATM    4  C8  UNL     1      10.580  -6.451  27.739  1.00  0.00     0.233 C 
HETATM    5  O3  UNL     1      10.081  -7.391  28.690  1.00  0.00    -0.333 OA
HETATM    6  C9  UNL     1       9.384  -8.564  28.196  1.00  0.00     0.168 C 
HETATM    7  C10 UNL     1       9.763  -9.576  29.304  1.00  0.00     0.074 C 
ENDROOT
BRANCH   2   8
HETATM    8  N1  UNL     1      12.118  -9.277  25.568  1.00  0.00    -0.349 N 
HETATM    9  C4  UNL     1      12.399  -8.519  24.349  1.00  0.00     0.153 C 
HETATM   10  C5  UNL     1      12.374 -10.649  25.535  1.00  0.00     0.215 C 
HETATM   11  C6  UNL     1      12.109 -11.438  26.795  1.00  0.00     0.117 C 
HETATM   12  O2  UNL     1      12.814 -11.228  24.542  1.00  0.00    -0.274 OA
ENDBRANCH   2   8
BRANCH   1  13
HETATM   13  O1  UNL     1       9.198  -8.511  25.706  1.00  0.00    -0.384 OA
HETATM   14  C1  UNL     1       9.104  -9.385  24.587  1.00  0.00     0.202 C 
ENDBRANCH   1  13
BRANCH   6  15
HETATM   15  N2  UNL     1       7.941  -8.271  28.163  1.00  0.00    -0.308 N 
HETATM   16  C11 UNL     1       6.942  -8.898  27.417  1.00  0.00     0.049 A 
HETATM   17  C12 UNL     1       6.966  -9.955  26.485  1.00  0.00     0.030 A 
HETATM   18  C16 UNL     1       5.727  -8.253  27.722  1.00  0.00     0.004 A 
HETATM   19  C13 UNL     1       5.767 -10.387  25.908  1.00  0.00     0.002 A 
HETATM   20  C14 UNL     1       4.561  -9.782  26.229  1.00  0.00     0.001 A 
HETATM   21  C15 UNL     1       4.532  -8.714  27.126  1.00  0.00     0.014 A 
HETATM   22  C17 UNL     1       6.018  -7.170  28.594  1.00  0.00     0.015 A 
HETATM   23  C18 UNL     1       5.304  -6.125  29.203  1.00  0.00    -0.010 A 
HETATM   24  C28 UNL     1       7.377  -7.208  28.823  1.00  0.00     0.077 A 
HETATM   25  C19 UNL     1       5.953  -5.127  29.995  1.00  0.00     0.054 A 
HETATM   26  C30 UNL     1       3.836  -5.823  29.138  1.00  0.00     0.163 A 
HETATM   27  C20 UNL     1       7.331  -5.082  30.259  1.00  0.00     0.022 A 
HETATM   28  C29 UNL     1       4.913  -4.191  30.446  1.00  0.00     0.253 A 
HETATM   29  C21 UNL     1       8.270  -4.262  30.958  1.00  0.00     0.004 A 
HETATM   30  C27 UNL     1       8.063  -6.115  29.698  1.00  0.00     0.077 A 
HETATM   31  C22 UNL     1       8.174  -3.074  31.715  1.00  0.00     0.014 A 
HETATM   32  C26 UNL     1       9.538  -4.847  30.805  1.00  0.00     0.048 A 
HETATM   33  C23 UNL     1       9.318  -2.509  32.288  1.00  0.00     0.001 A 
HETATM   34  C24 UNL     1      10.560  -3.108  32.122  1.00  0.00     0.002 A 
HETATM   35  C25 UNL     1      10.692  -4.285  31.380  1.00  0.00     0.030 A 
HETATM   36  N3  UNL     1       9.373  -5.992  30.039  1.00  0.00    -0.316 N 
HETATM   37  O4  UNL     1       5.042  -3.205  31.140  1.00  0.00    -0.268 OA
HETATM   38  N4  UNL     1       3.714  -4.632  29.930  1.00  0.00    -0.353 N 
HETATM   39  H26 UNL     1       2.854  -4.133  30.117  1.00  0.00     0.163 HD
ENDBRANCH   6  15
TORSDOF 4
ENDMDL
MODEL 3
REMARK minimizedAffinity -9.22233677
REMARK CNNscore 0.833668113
REMARK CNNaffinity 7.87334633
REMARK  4 active torsions:
REMARK  status: ('A' for Active; 'I' for Inactive)
REMARK    1  A    between atoms: O1_2  and  C2_3 
REMARK    2  A    between atoms: C3_4  and  N1_5 
REMARK       I    between atoms: N1_5  and  C5_7 
REMARK    3  A    between atoms: C8_11  and  N3_32 
REMARK    4  A    between atoms: C9_13  and  N2_15 
ROOT
HETATM    1  C2  UNL     1      10.421  -8.544  28.878  1.00  0.00     0.199 C 
HETATM    2  C3  UNL     1      11.671  -9.332  28.417  1.00  0.00     0.124 C 
HETATM    3  C7  UNL     1      11.220 -10.420  27.437  1.00  0.00     0.082 C 
HETATM    4  C8  UNL     1      10.331  -9.842  26.331  1.00  0.00     0.233 C 
HETATM    5  O3  UNL     1      10.190  -8.422  26.366  1.00  0.00    -0.333 OA
HETATM    6  C9  UNL     1       9.840  -7.797  27.627  1.00  0.00     0.168 C 
HETATM    7  C10 UNL     1      10.567  -6.442  27.456  1.00  0.00     0.074 C 
ENDROOT
BRANCH   2   8
HETATM    8  N1  UNL     1      12.494  -9.830  29.553  1.00  0.00    -0.349 N 
HETATM    9  C4  UNL     1      12.329 -11.218  29.984  1.00  0.00     0.153 C 
HETATM   10  C5  UNL     1      13.270  -9.001  30.366  1.00  0.00     0.215 C 
HETATM   11  C6  UNL     1      13.465  -7.572  29.919  1.00  0.00     0.117 C 
HETATM   12  O2  UNL     1      13.804  -9.387  31.405  1.00  0.00    -0.274 OA
ENDBRANCH   2   8
BRANCH   1  13
HETATM   13  O1  UNL     1       9.493  -9.512  29.409  1.00  0.00    -0.384 OA
HETATM   14  C1  UNL     1       9.296 -10.634  28.555  1.00  0.00     0.202 C 
ENDBRANCH   1  13
BRANCH   6  15
HETATM   15  N2  UNL     1       8.375  -7.652  27.686  1.00  0.00    -0.308 N 
HETATM   16  C11 UNL     1       7.404  -8.307  26.926  1.00  0.00     0.049 A 
HETATM   17  C12 UNL     1       7.483  -9.263  25.895  1.00  0.00     0.030 A 
HETATM   18  C16 UNL     1       6.150  -7.822  27.347  1.00  0.00     0.004 A 
HETATM   19  C13 UNL     1       6.303  -9.761  25.331  1.00  0.00     0.002 A 
HETATM   20  C14 UNL     1       5.062  -9.317  25.763  1.00  0.00     0.001 A 
HETATM   21  C15 UNL     1       4.976  -8.346  26.762  1.00  0.00     0.014 A 
HETATM   22  C17 UNL     1       6.379  -6.802  28.309  1.00  0.00     0.015 A 
HETATM   23  C18 UNL     1       5.600  -5.898  29.049  1.00  0.00    -0.010 A 
HETATM   24  C28 UNL     1       7.745  -6.720  28.473  1.00  0.00     0.077 A 
HETATM   25  C19 UNL     1       6.188  -4.917  29.907  1.00  0.00     0.054 A 
HETATM   26  C30 UNL     1       4.107  -5.745  29.079  1.00  0.00     0.163 A 
HETATM   27  C20 UNL     1       7.567  -4.755  30.113  1.00  0.00     0.022 A 
HETATM   28  C29 UNL     1       5.086  -4.140  30.493  1.00  0.00     0.253 A 
HETATM   29  C21 UNL     1       8.457  -3.912  30.848  1.00  0.00     0.004 A 
HETATM   30  C27 UNL     1       8.366  -5.650  29.420  1.00  0.00     0.077 A 
HETATM   31  C22 UNL     1       8.286  -2.817  31.722  1.00  0.00     0.014 A 
HETATM   32  C26 UNL     1       9.767  -4.346  30.581  1.00  0.00     0.048 A 
HETATM   33  C23 UNL     1       9.398  -2.193  32.298  1.00  0.00     0.001 A 
HETATM   34  C24 UNL     1      10.682  -2.642  32.018  1.00  0.00     0.002 A 
HETATM   35  C25 UNL     1      10.889  -3.724  31.159  1.00  0.00     0.030 A 
HETATM   36  N3  UNL     1       9.674  -5.425  29.714  1.00  0.00    -0.316 N 
HETATM   37  O4  UNL     1       5.155  -3.216  31.276  1.00  0.00    -0.268 OA
HETATM   38  N4  UNL     1       3.911  -4.652  29.990  1.00  0.00    -0.353 N 
HETATM   39  H26 UNL     1       3.018  -4.265  30.263  1.00  0.00     0.163 HD
ENDBRANCH   6  15
TORSDOF 4
ENDMDL
MODEL 4
REMARK minimizedAffinity -8.10774708
REMARK CNNscore 0.733429193
REMARK CNNaffinity 6.40947342
REMARK  4 active torsions:
REMARK  status: ('A' for Active; 'I' for Inactive)
REMARK    1  A    between atoms: O1_2  and  C2_3 
REMARK    2  A    between atoms: C3_4  and  N1_5 
REMARK       I    between atoms: N1_5  and  C5_7 
REMARK    3  A    between atoms: C8_11  and  N3_32 
REMARK    4  A    between atoms: C9_13  and  N2_15 
ROOT
HETATM    1  C2  UNL     1       3.253   9.900  35.562  1.00  0.00     0.199 C 
HETATM    2  C3  UNL     1       2.186   9.323  34.600  1.00  0.00     0.124 C 
HETATM    3  C7  UNL     1       2.206   7.796  34.719  1.00  0.00     0.082 C 
HETATM    4  C8  UNL     1       2.120   7.348  36.182  1.00  0.00     0.233 C 
HETATM    5  O3  UNL     1       1.932   8.411  37.116  1.00  0.00    -0.333 OA
HETATM    6  C9  UNL     1       2.805   9.567  37.028  1.00  0.00     0.168 C 
HETATM    7  C10 UNL     1       1.834  10.663  37.529  1.00  0.00     0.074 C 
ENDROOT
BRANCH   2   8
HETATM    8  N1  UNL     1       2.324   9.834  33.208  1.00  0.00    -0.349 N 
HETATM    9  C4  UNL     1       1.736  11.131  32.876  1.00  0.00     0.153 C 
HETATM   10  C5  UNL     1       2.804   9.064  32.147  1.00  0.00     0.215 C 
HETATM   11  C6  UNL     1       3.432   7.732  32.480  1.00  0.00     0.117 C 
HETATM   12  O2  UNL     1       2.749   9.428  30.973  1.00  0.00    -0.274 OA
ENDBRANCH   2   8
BRANCH   1  13
HETATM   13  O1  UNL     1       4.504   9.266  35.222  1.00  0.00    -0.384 OA
HETATM   14  C1  UNL     1       5.297  10.029  34.319  1.00  0.00     0.202 C 
ENDBRANCH   1  13
BRANCH   6  15
HETATM   15  N2  UNL     1       3.947   9.360  37.934  1.00  0.00    -0.308 N 
HETATM   16  C11 UNL     1       5.204   9.967  37.904  1.00  0.00     0.049 A 
HETATM   17  C12 UNL     1       5.785  10.917  37.041  1.00  0.00     0.030 A 
HETATM   18  C16 UNL     1       5.950   9.432  38.972  1.00  0.00     0.004 A 
HETATM   19  C13 UNL     1       7.089  11.360  37.289  1.00  0.00     0.002 A 
HETATM   20  C14 UNL     1       7.820  10.866  38.360  1.00  0.00     0.001 A 
HETATM   21  C15 UNL     1       7.264   9.900  39.199  1.00  0.00     0.014 A 
HETATM   22  C17 UNL     1       5.160   8.430  39.596  1.00  0.00     0.015 A 
HETATM   23  C18 UNL     1       5.318   7.499  40.635  1.00  0.00    -0.010 A 
HETATM   24  C28 UNL     1       3.956   8.408  38.923  1.00  0.00     0.077 A 
HETATM   25  C19 UNL     1       4.300   6.551  40.964  1.00  0.00     0.054 A 
HETATM   26  C30 UNL     1       6.500   7.283  41.534  1.00  0.00     0.163 A 
HETATM   27  C20 UNL     1       3.059   6.449  40.316  1.00  0.00     0.022 A 
HETATM   28  C29 UNL     1       4.814   5.732  42.071  1.00  0.00     0.253 A 
HETATM   29  C21 UNL     1       1.874   5.651  40.371  1.00  0.00     0.004 A 
HETATM   30  C27 UNL     1       2.856   7.372  39.304  1.00  0.00     0.077 A 
HETATM   31  C22 UNL     1       1.456   4.556  41.158  1.00  0.00     0.014 A 
HETATM   32  C26 UNL     1       0.990   6.138  39.394  1.00  0.00     0.048 A 
HETATM   33  C23 UNL     1       0.195   3.985  40.958  1.00  0.00     0.001 A 
HETATM   34  C24 UNL     1      -0.661   4.486  39.985  1.00  0.00     0.002 A 
HETATM   35  C25 UNL     1      -0.280   5.569  39.189  1.00  0.00     0.030 A 
HETATM   36  N3  UNL     1       1.617   7.205  38.768  1.00  0.00    -0.316 N 
HETATM   37  O4  UNL     1       4.262   4.817  42.646  1.00  0.00    -0.268 OA
HETATM   38  N4  UNL     1       6.080   6.190  42.365  1.00  0.00    -0.353 N 
HETATM   39  H26 UNL     1       6.626   5.766  43.104  1.00  0.00     0.163 HD
ENDBRANCH   6  15
TORSDOF 4
ENDMDL
MODEL 5
REMARK minimizedAffinity -7.98808193
REMARK CNNscore 0.706976712
REMARK CNNaffinity 6.29705429
REMARK  4 active torsions:
REMARK  status: ('A' for Active; 'I' for Inactive)
REMARK    1  A    between atoms: O1_2  and  C2_3 
REMARK    2  A    between atoms: C3_4  and  N1_5 
REMARK       I    between atoms: N1_5  and  C5_7 
REMARK    3  A    between atoms: C8_11  and  N3_32 
REMARK    4  A    between atoms: C9_13  and  N2_15 
ROOT
HETATM    1  C2  UNL     1       1.276   7.846  35.979  1.00  0.00     0.199 C 
HETATM    2  C3  UNL     1       0.132   7.945  34.942  1.00  0.00     0.124 C 
HETATM    3  C7  UNL     1      -0.811   6.755  35.148  1.00  0.00     0.082 C 
HETATM    4  C8  UNL     1      -1.229   6.623  36.617  1.00  0.00     0.233 C 
HETATM    5  O3  UNL     1      -0.760   7.672  37.463  1.00  0.00    -0.333 OA
HETATM    6  C9  UNL     1       0.646   8.026  37.404  1.00  0.00     0.168 C 
HETATM    7  C10 UNL     1       0.547   9.535  37.734  1.00  0.00     0.074 C 
ENDROOT
BRANCH   2   8
HETATM    8  N1  UNL     1       0.627   8.103  33.546  1.00  0.00    -0.349 N 
HETATM    9  C4  UNL     1       1.073   9.424  33.105  1.00  0.00     0.153 C 
HETATM   10  C5  UNL     1       0.504   7.115  32.567  1.00  0.00     0.215 C 
HETATM   11  C6  UNL     1       0.065   5.741  33.014  1.00  0.00     0.117 C 
HETATM   12  O2  UNL     1       0.751   7.313  31.378  1.00  0.00    -0.274 OA
ENDBRANCH   2   8
BRANCH   1  13
HETATM   13  O1  UNL     1       1.874   6.544  35.814  1.00  0.00    -0.384 OA
HETATM   14  C1  UNL     1       3.101   6.573  35.094  1.00  0.00     0.202 C 
ENDBRANCH   1  13
BRANCH   6  15
HETATM   15  N2  UNL     1       1.363   7.264  38.439  1.00  0.00    -0.308 N 
HETATM   16  C11 UNL     1       0.865   6.290  39.307  1.00  0.00     0.049 A 
HETATM   17  C12 UNL     1      -0.420   5.744  39.492  1.00  0.00     0.030 A 
HETATM   18  C16 UNL     1       1.937   5.864  40.116  1.00  0.00     0.004 A 
HETATM   19  C13 UNL     1      -0.606   4.740  40.449  1.00  0.00     0.002 A 
HETATM   20  C14 UNL     1       0.451   4.287  41.225  1.00  0.00     0.001 A 
HETATM   21  C15 UNL     1       1.720   4.847  41.071  1.00  0.00     0.014 A 
HETATM   22  C17 UNL     1       3.071   6.655  39.786  1.00  0.00     0.015 A 
HETATM   23  C18 UNL     1       4.392   6.792  40.241  1.00  0.00    -0.010 A 
HETATM   24  C28 UNL     1       2.673   7.504  38.775  1.00  0.00     0.077 A 
HETATM   25  C19 UNL     1       5.277   7.781  39.709  1.00  0.00     0.054 A 
HETATM   26  C30 UNL     1       5.102   6.024  41.316  1.00  0.00     0.163 A 
HETATM   27  C20 UNL     1       4.945   8.694  38.696  1.00  0.00     0.022 A 
HETATM   28  C29 UNL     1       6.552   7.651  40.429  1.00  0.00     0.253 A 
HETATM   29  C21 UNL     1       5.545   9.772  37.974  1.00  0.00     0.004 A 
HETATM   30  C27 UNL     1       3.657   8.569  38.202  1.00  0.00     0.077 A 
HETATM   31  C22 UNL     1       6.810  10.398  38.004  1.00  0.00     0.014 A 
HETATM   32  C26 UNL     1       4.594  10.247  37.055  1.00  0.00     0.048 A 
HETATM   33  C23 UNL     1       7.091  11.460  37.138  1.00  0.00     0.001 A 
HETATM   34  C24 UNL     1       6.134  11.910  36.238  1.00  0.00     0.002 A 
HETATM   35  C25 UNL     1       4.872  11.312  36.180  1.00  0.00     0.030 A 
HETATM   36  N3  UNL     1       3.452   9.475  37.210  1.00  0.00    -0.316 N 
HETATM   37  O4  UNL     1       7.566   8.299  40.280  1.00  0.00    -0.268 OA
HETATM   38  N4  UNL     1       6.405   6.628  41.341  1.00  0.00    -0.353 N 
HETATM   39  H26 UNL     1       7.167   6.363  41.950  1.00  0.00     0.163 HD
ENDBRANCH   6  15
TORSDOF 4
ENDMDL
MODEL 6
REMARK minimizedAffinity -10.1030779
REMARK CNNscore 0.640045822
REMARK CNNaffinity 7.58303642
REMARK  4 active torsions:
REMARK  status: ('A' for Active; 'I' for Inactive)
REMARK    1  A    between atoms: O1_2  and  C2_3 
REMARK    2  A    between atoms: C3_4  and  N1_5 
REMARK       I    between atoms: N1_5  and  C5_7 
REMARK    3  A    between atoms: C8_11  and  N3_32 
REMARK    4  A    between atoms: C9_13  and  N2_15 
ROOT
HETATM    1  C2  UNL     1       7.013  -9.500  26.927  1.00  0.00     0.199 C 
HETATM    2  C3  UNL     1       8.292  -9.866  26.137  1.00  0.00     0.124 C 
HETATM    3  C7  UNL     1       8.945  -8.570  25.648  1.00  0.00     0.082 C 
HETATM    4  C8  UNL     1       9.113  -7.564  26.792  1.00  0.00     0.233 C 
HETATM    5  O3  UNL     1       8.740  -8.060  28.077  1.00  0.00    -0.333 OA
HETATM    6  C9  UNL     1       7.454  -8.717  28.213  1.00  0.00     0.168 C 
HETATM    7  C10 UNL     1       7.795  -9.727  29.335  1.00  0.00     0.074 C 
ENDROOT
BRANCH   2   8
HETATM    8  N1  UNL     1       8.045 -10.872  25.067  1.00  0.00    -0.349 N 
HETATM    9  C4  UNL     1       6.782 -11.610  25.076  1.00  0.00     0.153 C 
HETATM   10  C5  UNL     1       9.024 -11.301  24.169  1.00  0.00     0.215 C 
HETATM   11  C6  UNL     1      10.324 -10.533  24.135  1.00  0.00     0.117 C 
HETATM   12  O2  UNL     1       8.867 -12.254  23.407  1.00  0.00    -0.274 OA
ENDBRANCH   2   8
BRANCH   1  13
HETATM   13  O1  UNL     1       6.203  -8.688  26.051  1.00  0.00    -0.384 OA
HETATM   14  C1  UNL     1       6.947  -8.059  25.015  1.00  0.00     0.202 C 
ENDBRANCH   1  13
BRANCH   6  15
HETATM   15  N2  UNL     1       6.459  -7.716  28.633  1.00  0.00    -0.308 N 
HETATM   16  C11 UNL     1       5.109  -7.630  28.286  1.00  0.00     0.049 A 
HETATM   17  C12 UNL     1       4.285  -8.415  27.457  1.00  0.00     0.030 A 
HETATM   18  C16 UNL     1       4.585  -6.493  28.932  1.00  0.00     0.004 A 
HETATM   19  C13 UNL     1       2.932  -8.083  27.324  1.00  0.00     0.002 A 
HETATM   20  C14 UNL     1       2.397  -6.986  27.984  1.00  0.00     0.001 A 
HETATM   21  C15 UNL     1       3.215  -6.184  28.782  1.00  0.00     0.014 A 
HETATM   22  C17 UNL     1       5.655  -5.841  29.602  1.00  0.00     0.015 A 
HETATM   23  C18 UNL     1       5.832  -4.667  30.351  1.00  0.00    -0.010 A 
HETATM   24  C28 UNL     1       6.779  -6.609  29.380  1.00  0.00     0.077 A 
HETATM   25  C19 UNL     1       7.116  -4.263  30.834  1.00  0.00     0.054 A 
HETATM   26  C30 UNL     1       4.812  -3.641  30.748  1.00  0.00     0.163 A 
HETATM   27  C20 UNL     1       8.308  -4.975  30.634  1.00  0.00     0.022 A 
HETATM   28  C29 UNL     1       6.928  -2.990  31.544  1.00  0.00     0.253 A 
HETATM   29  C21 UNL     1       9.699  -4.861  30.945  1.00  0.00     0.004 A 
HETATM   30  C27 UNL     1       8.167  -6.156  29.924  1.00  0.00     0.077 A 
HETATM   31  C22 UNL     1      10.485  -3.906  31.626  1.00  0.00     0.014 A 
HETATM   32  C26 UNL     1      10.344  -5.995  30.422  1.00  0.00     0.048 A 
HETATM   33  C23 UNL     1      11.863  -4.097  31.765  1.00  0.00     0.001 A 
HETATM   34  C24 UNL     1      12.476  -5.227  31.239  1.00  0.00     0.002 A 
HETATM   35  C25 UNL     1      11.729  -6.194  30.561  1.00  0.00     0.030 A 
HETATM   36  N3  UNL     1       9.372  -6.777  29.816  1.00  0.00    -0.316 N 
HETATM   37  O4  UNL     1       7.766  -2.314  32.104  1.00  0.00    -0.268 OA
HETATM   38  N4  UNL     1       5.590  -2.673  31.470  1.00  0.00    -0.353 N 
HETATM   39  H26 UNL     1       5.232  -1.828  31.897  1.00  0.00     0.163 HD
ENDBRANCH   6  15
TORSDOF 4
ENDMDL
MODEL 7
REMARK minimizedAffinity -8.38222027
REMARK CNNscore 0.590041637
REMARK CNNaffinity 7.47357607
REMARK  4 active torsions:
REMARK  status: ('A' for Active; 'I' for Inactive)
REMARK    1  A    between atoms: O1_2  and  C2_3 
REMARK    2  A    between atoms: C3_4  and  N1_5 
REMARK       I    between atoms: N1_5  and  C5_7 
REMARK    3  A    between atoms: C8_11  and  N3_32 
REMARK    4  A    between atoms: C9_13  and  N2_15 
ROOT
HETATM    1  C2  UNL     1       9.445  -8.988  27.067  1.00  0.00     0.199 C 
HETATM    2  C3  UNL     1      10.313  -9.941  26.211  1.00  0.00     0.124 C 
HETATM    3  C7  UNL     1       9.402 -11.020  25.616  1.00  0.00     0.082 C 
HETATM    4  C8  UNL     1       8.182 -10.401  24.925  1.00  0.00     0.233 C 
HETATM    5  O3  UNL     1       8.189  -8.975  24.876  1.00  0.00    -0.333 OA
HETATM    6  C9  UNL     1       8.456  -8.246  26.102  1.00  0.00     0.168 C 
HETATM    7  C10 UNL     1       9.155  -6.997  25.513  1.00  0.00     0.074 C 
ENDROOT
BRANCH   2   8
HETATM    8  N1  UNL     1      11.493 -10.471  26.948  1.00  0.00    -0.349 N 
HETATM    9  C4  UNL     1      12.661  -9.606  27.117  1.00  0.00     0.153 C 
HETATM   10  C5  UNL     1      11.637 -11.810  27.316  1.00  0.00     0.215 C 
HETATM   11  C6  UNL     1      10.431 -12.707  27.167  1.00  0.00     0.117 C 
HETATM   12  O2  UNL     1      12.684 -12.276  27.764  1.00  0.00    -0.274 OA
ENDBRANCH   2   8
BRANCH   1  13
HETATM   13  O1  UNL     1       8.749  -9.811  28.026  1.00  0.00    -0.384 OA
HETATM   14  C1  UNL     1       9.173  -9.598  29.367  1.00  0.00     0.202 C 
ENDBRANCH   1  13
BRANCH   6  15
HETATM   15  N2  UNL     1       7.171  -7.928  26.746  1.00  0.00    -0.308 N 
HETATM   16  C11 UNL     1       5.894  -8.387  26.417  1.00  0.00     0.049 A 
HETATM   17  C12 UNL     1       5.420  -9.249  25.409  1.00  0.00     0.030 A 
HETATM   18  C16 UNL     1       4.991  -7.791  27.319  1.00  0.00     0.004 A 
HETATM   19  C13 UNL     1       4.054  -9.545  25.348  1.00  0.00     0.002 A 
HETATM   20  C14 UNL     1       3.162  -8.992  26.254  1.00  0.00     0.001 A 
HETATM   21  C15 UNL     1       3.618  -8.111  27.235  1.00  0.00     0.014 A 
HETATM   22  C17 UNL     1       5.727  -6.896  28.143  1.00  0.00     0.015 A 
HETATM   23  C18 UNL     1       5.444  -5.973  29.162  1.00  0.00    -0.010 A 
HETATM   24  C28 UNL     1       7.045  -6.999  27.749  1.00  0.00     0.077 A 
HETATM   25  C19 UNL     1       6.460  -5.153  29.744  1.00  0.00     0.054 A 
HETATM   26  C30 UNL     1       4.122  -5.641  29.791  1.00  0.00     0.163 A 
HETATM   27  C20 UNL     1       7.816  -5.181  29.387  1.00  0.00     0.022 A 
HETATM   28  C29 UNL     1       5.803  -4.301  30.747  1.00  0.00     0.253 A 
HETATM   29  C21 UNL     1       9.038  -4.523  29.732  1.00  0.00     0.004 A 
HETATM   30  C27 UNL     1       8.138  -6.102  28.404  1.00  0.00     0.077 A 
HETATM   31  C22 UNL     1       9.387  -3.498  30.638  1.00  0.00     0.014 A 
HETATM   32  C26 UNL     1      10.059  -5.090  28.950  1.00  0.00     0.048 A 
HETATM   33  C23 UNL     1      10.714  -3.070  30.741  1.00  0.00     0.001 A 
HETATM   34  C24 UNL     1      11.705  -3.648  29.957  1.00  0.00     0.002 A 
HETATM   35  C25 UNL     1      11.396  -4.665  29.051  1.00  0.00     0.030 A 
HETATM   36  N3  UNL     1       9.475  -6.067  28.158  1.00  0.00    -0.316 N 
HETATM   37  O4  UNL     1       6.310  -3.466  31.467  1.00  0.00    -0.268 OA
HETATM   38  N4  UNL     1       4.463  -4.618  30.739  1.00  0.00    -0.353 N 
HETATM   39  H26 UNL     1       3.816  -4.148  31.359  1.00  0.00     0.163 HD
ENDBRANCH   6  15
TORSDOF 4
ENDMDL
MODEL 8
REMARK minimizedAffinity -7.47636127
REMARK CNNscore 0.58893913
REMARK CNNaffinity 6.55613089
REMARK  4 active torsions:
REMARK  status: ('A' for Active; 'I' for Inactive)
REMARK    1  A    between atoms: O1_2  and  C2_3 
REMARK    2  A    between atoms: C3_4  and  N1_5 
REMARK       I    between atoms: N1_5  and  C5_7 
REMARK    3  A    between atoms: C8_11  and  N3_32 
REMARK    4  A    between atoms: C9_13  and  N2_15 
ROOT
HETATM    1  C2  UNL     1       2.152   6.178  42.901  1.00  0.00     0.199 C 
HETATM    2  C3  UNL     1       1.246   5.015  43.371  1.00  0.00     0.124 C 
HETATM    3  C7  UNL     1       0.112   4.846  42.354  1.00  0.00     0.082 C 
HETATM    4  C8  UNL     1       0.655   4.755  40.924  1.00  0.00     0.233 C 
HETATM    5  O3  UNL     1       2.079   4.734  40.830  1.00  0.00    -0.333 OA
HETATM    6  C9  UNL     1       2.830   5.742  41.555  1.00  0.00     0.168 C 
HETATM    7  C10 UNL     1       4.113   4.935  41.866  1.00  0.00     0.074 C 
ENDROOT
BRANCH   2   8
HETATM    8  N1  UNL     1       0.790   5.168  44.781  1.00  0.00    -0.349 N 
HETATM    9  C4  UNL     1       1.446   6.165  45.626  1.00  0.00     0.153 C 
HETATM   10  C5  UNL     1      -0.087   4.281  45.409  1.00  0.00     0.215 C 
HETATM   11  C6  UNL     1      -0.786   3.261  44.543  1.00  0.00     0.117 C 
HETATM   12  O2  UNL     1      -0.320   4.309  46.617  1.00  0.00    -0.274 OA
ENDBRANCH   2   8
BRANCH   1  13
HETATM   13  O1  UNL     1       1.297   7.327  42.728  1.00  0.00    -0.384 OA
HETATM   14  C1  UNL     1       0.038   7.197  43.378  1.00  0.00     0.202 C 
ENDBRANCH   1  13
BRANCH   6  15
HETATM   15  N2  UNL     1       3.077   6.879  40.654  1.00  0.00    -0.308 N 
HETATM   16  C11 UNL     1       2.401   7.225  39.482  1.00  0.00     0.049 A 
HETATM   17  C12 UNL     1       1.325   6.635  38.791  1.00  0.00     0.030 A 
HETATM   18  C16 UNL     1       3.015   8.387  38.974  1.00  0.00     0.004 A 
HETATM   19  C13 UNL     1       0.841   7.244  37.628  1.00  0.00     0.002 A 
HETATM   20  C14 UNL     1       1.416   8.408  37.139  1.00  0.00     0.001 A 
HETATM   21  C15 UNL     1       2.504   8.981  37.799  1.00  0.00     0.014 A 
HETATM   22  C17 UNL     1       4.128   8.689  39.805  1.00  0.00     0.015 A 
HETATM   23  C18 UNL     1       5.164   9.636  39.826  1.00  0.00    -0.010 A 
HETATM   24  C28 UNL     1       4.138   7.738  40.803  1.00  0.00     0.077 A 
HETATM   25  C19 UNL     1       6.201   9.602  40.810  1.00  0.00     0.054 A 
HETATM   26  C30 UNL     1       5.418  10.775  38.883  1.00  0.00     0.163 A 
HETATM   27  C20 UNL     1       6.295   8.658  41.844  1.00  0.00     0.022 A 
HETATM   28  C29 UNL     1       7.115  10.715  40.512  1.00  0.00     0.253 A 
HETATM   29  C21 UNL     1       7.160   8.335  42.935  1.00  0.00     0.004 A 
HETATM   30  C27 UNL     1       5.272   7.725  41.873  1.00  0.00     0.077 A 
HETATM   31  C22 UNL     1       8.362   8.878  43.439  1.00  0.00     0.014 A 
HETATM   32  C26 UNL     1       6.611   7.222  43.594  1.00  0.00     0.048 A 
HETATM   33  C23 UNL     1       8.975   8.312  44.561  1.00  0.00     0.001 A 
HETATM   34  C24 UNL     1       8.412   7.212  45.194  1.00  0.00     0.002 A 
HETATM   35  C25 UNL     1       7.223   6.649  44.725  1.00  0.00     0.030 A 
HETATM   36  N3  UNL     1       5.444   6.883  42.926  1.00  0.00    -0.316 N 
HETATM   37  O4  UNL     1       8.120  11.038  41.108  1.00  0.00    -0.268 OA
HETATM   38  N4  UNL     1       6.624  11.360  39.398  1.00  0.00    -0.353 N 
HETATM   39  H26 UNL     1       7.101  12.165  39.014  1.00  0.00     0.163 HD
ENDBRANCH   6  15
TORSDOF 4
ENDMDL
MODEL 9
REMARK minimizedAffinity -7.40867853
REMARK CNNscore 0.518173814
REMARK CNNaffinity 6.10280371
REMARK  4 active torsions:
REMARK  status: ('A' for Active; 'I' for Inactive)
REMARK    1  A    between atoms: O1_2  and  C2_3 
REMARK    2  A    between atoms: C3_4  and  N1_5 
REMARK       I    between atoms: N1_5  and  C5_7 
REMARK    3  A    between atoms: C8_11  and  N3_32 
REMARK    4  A    between atoms: C9_13  and  N2_15 
ROOT
HETATM    1  C2  UNL     1       6.639   8.486  42.315  1.00  0.00     0.199 C 
HETATM    2  C3  UNL     1       6.288   8.373  43.818  1.00  0.00     0.124 C 
HETATM    3  C7  UNL     1       4.910   9.006  44.040  1.00  0.00     0.082 C 
HETATM    4  C8  UNL     1       3.877   8.454  43.053  1.00  0.00     0.233 C 
HETATM    5  O3  UNL     1       4.359   7.404  42.215  1.00  0.00    -0.333 OA
HETATM    6  C9  UNL     1       5.616   7.604  41.518  1.00  0.00     0.168 C 
HETATM    7  C10 UNL     1       6.124   6.143  41.474  1.00  0.00     0.074 C 
ENDROOT
BRANCH   2   8
HETATM    8  N1  UNL     1       7.359   8.904  44.706  1.00  0.00    -0.349 N 
HETATM    9  C4  UNL     1       7.527  10.353  44.813  1.00  0.00     0.153 C 
HETATM   10  C5  UNL     1       8.346   8.106  45.287  1.00  0.00     0.215 C 
HETATM   11  C6  UNL     1       8.171   6.609  45.202  1.00  0.00     0.117 C 
HETATM   12  O2  UNL     1       9.326   8.567  45.871  1.00  0.00    -0.274 OA
ENDBRANCH   2   8
BRANCH   1  13
HETATM   13  O1  UNL     1       6.534   9.883  41.968  1.00  0.00    -0.384 OA
HETATM   14  C1  UNL     1       5.410  10.528  42.555  1.00  0.00     0.202 C 
ENDBRANCH   1  13
BRANCH   6  15
HETATM   15  N2  UNL     1       5.327   8.146  40.179  1.00  0.00    -0.308 N 
HETATM   16  C11 UNL     1       6.050   9.089  39.446  1.00  0.00     0.049 A 
HETATM   17  C12 UNL     1       7.226   9.814  39.720  1.00  0.00     0.030 A 
HETATM   18  C16 UNL     1       5.365   9.285  38.231  1.00  0.00     0.004 A 
HETATM   19  C13 UNL     1       7.732  10.690  38.754  1.00  0.00     0.002 A 
HETATM   20  C14 UNL     1       7.085  10.863  37.539  1.00  0.00     0.001 A 
HETATM   21  C15 UNL     1       5.901  10.174  37.272  1.00  0.00     0.014 A 
HETATM   22  C17 UNL     1       4.171   8.516  38.275  1.00  0.00     0.015 A 
HETATM   23  C18 UNL     1       3.050   8.317  37.454  1.00  0.00    -0.010 A 
HETATM   24  C28 UNL     1       4.180   7.852  39.484  1.00  0.00     0.077 A 
HETATM   25  C19 UNL     1       1.952   7.494  37.859  1.00  0.00     0.054 A 
HETATM   26  C30 UNL     1       2.757   8.898  36.102  1.00  0.00     0.163 A 
HETATM   27  C20 UNL     1       1.875   6.803  39.077  1.00  0.00     0.022 A 
HETATM   28  C29 UNL     1       0.960   7.536  36.775  1.00  0.00     0.253 A 
HETATM   29  C21 UNL     1       0.968   5.948  39.778  1.00  0.00     0.004 A 
HETATM   30  C27 UNL     1       2.978   6.952  39.901  1.00  0.00     0.077 A 
HETATM   31  C22 UNL     1      -0.314   5.427  39.500  1.00  0.00     0.014 A 
HETATM   32  C26 UNL     1       1.572   5.600  40.998  1.00  0.00     0.048 A 
HETATM   33  C23 UNL     1      -0.951   4.590  40.422  1.00  0.00     0.001 A 
HETATM   34  C24 UNL     1      -0.331   4.261  41.621  1.00  0.00     0.002 A 
HETATM   35  C25 UNL     1       0.937   4.757  41.929  1.00  0.00     0.030 A 
HETATM   36  N3  UNL     1       2.812   6.220  41.035  1.00  0.00    -0.316 N 
HETATM   37  O4  UNL     1      -0.113   6.973  36.720  1.00  0.00    -0.268 OA
HETATM   38  N4  UNL     1       1.466   8.353  35.788  1.00  0.00    -0.353 N 
HETATM   39  H26 UNL     1       0.943   8.525  34.939  1.00  0.00     0.163 HD
ENDBRANCH   6  15
TORSDOF 4
ENDMDL
