MODEL 1
REMARK minimizedAffinity -7.96522522
REMARK  3 active torsions:
REMARK  status: ('A' for Active; 'I' for Inactive)
REMARK    1  A    between atoms: C4_5  and  C5_6 
REMARK    2  A    between atoms: N2_9  and  C6_10 
REMARK    3  A    between atoms: C12_16  and  C13_17 
ROOT
HETATM    1  C5  UNL     1      13.564  57.462   1.103  1.00  0.00     0.038 C 
HETATM    2  N1  UNL     1      13.694  56.363   1.784  1.00  0.00    -0.301 N 
ATOM      3  H1  UNL     1      13.269  55.462   1.566  1.00  0.00     0.187 HD
HETATM    4  N2  UNL     1      14.508  56.643   2.846  1.00  0.00    -0.283 N 
HETATM    5  C12 UNL     1      14.832  58.066   2.962  1.00  0.00     0.147 C 
HETATM    6  C23 UNL     1      14.364  58.628   1.617  1.00  0.00     0.091 C 
ENDROOT
BRANCH   5   7
HETATM    7  C13 UNL     1      14.121  58.764   4.113  1.00  0.00    -0.032 A 
HETATM    8  C14 UNL     1      14.261  58.263   5.416  1.00  0.00     0.010 A 
HETATM    9  C15 UNL     1      13.643  58.898   6.495  1.00  0.00     0.013 A 
HETATM   10  C16 UNL     1      12.872  60.053   6.304  1.00  0.00    -0.026 A 
HETATM   11  C17 UNL     1      12.241  60.701   7.378  1.00  0.00     0.012 A 
HETATM   12  C21 UNL     1      12.727  60.576   5.000  1.00  0.00    -0.025 A 
HETATM   13  C18 UNL     1      11.475  61.850   7.168  1.00  0.00     0.001 A 
HETATM   14  C19 UNL     1      11.332  62.364   5.884  1.00  0.00     0.001 A 
HETATM   15  C20 UNL     1      11.954  61.733   4.805  1.00  0.00     0.012 A 
HETATM   16  C22 UNL     1      13.356  59.928   3.924  1.00  0.00     0.021 A 
ENDBRANCH   5   7
BRANCH   4  17
HETATM   17  C6  UNL     1      14.978  55.626   3.676  1.00  0.00     0.051 A 
HETATM   18  C7  UNL     1      14.087  54.847   4.435  1.00  0.00     0.031 A 
HETATM   19  C8  UNL     1      14.531  53.823   5.279  1.00  0.00     0.002 A 
HETATM   20  C9  UNL     1      15.891  53.551   5.384  1.00  0.00     0.000 A 
HETATM   21  C10 UNL     1      16.798  54.302   4.646  1.00  0.00     0.002 A 
HETATM   22  C11 UNL     1      16.343  55.325   3.802  1.00  0.00     0.031 A 
ENDBRANCH   4  17
BRANCH   1  23
HETATM   23  C4  UNL     1      12.718  57.566  -0.109  1.00  0.00    -0.012 A 
HETATM   24  C3  UNL     1      12.662  58.744  -0.862  1.00  0.00     0.015 A 
HETATM   25  C2  UNL     1      11.849  58.810  -1.998  1.00  0.00     0.024 A 
HETATM   26  C1  UNL     1      11.096  57.701  -2.381  1.00  0.00     0.034 A 
HETATM   27 CL1  UNL     1      10.096  57.787  -3.778  1.00  0.00    -0.084 Cl
HETATM   28  C25 UNL     1      11.148  56.524  -1.638  1.00  0.00     0.024 A 
HETATM   29  C24 UNL     1      11.961  56.455  -0.504  1.00  0.00     0.015 A 
ENDBRANCH   1  23
TORSDOF 3
ENDMDL
MODEL 2
REMARK minimizedAffinity -7.90816927
REMARK  3 active torsions:
REMARK  status: ('A' for Active; 'I' for Inactive)
REMARK    1  A    between atoms: C4_5  and  C5_6 
REMARK    2  A    between atoms: N2_9  and  C6_10 
REMARK    3  A    between atoms: C12_16  and  C13_17 
ROOT
HETATM    1  C5  UNL     1      13.441  58.902   5.607  1.00  0.00     0.038 C 
HETATM    2  N1  UNL     1      12.877  58.607   4.475  1.00  0.00    -0.301 N 
ATOM      3  H1  UNL     1      11.893  58.729   4.238  1.00  0.00     0.187 HD
HETATM    4  N2  UNL     1      13.853  58.101   3.661  1.00  0.00    -0.283 N 
HETATM    5  C12 UNL     1      15.132  57.914   4.347  1.00  0.00     0.147 C 
HETATM    6  C23 UNL     1      14.928  58.683   5.655  1.00  0.00     0.091 C 
ENDROOT
BRANCH   5   7
HETATM    7  C13 UNL     1      15.471  56.456   4.626  1.00  0.00    -0.032 A 
HETATM    8  C14 UNL     1      14.449  55.572   5.001  1.00  0.00     0.010 A 
HETATM    9  C15 UNL     1      14.726  54.223   5.238  1.00  0.00     0.013 A 
HETATM   10  C16 UNL     1      16.028  53.721   5.102  1.00  0.00    -0.026 A 
HETATM   11  C17 UNL     1      16.322  52.368   5.340  1.00  0.00     0.012 A 
HETATM   12  C21 UNL     1      17.067  54.597   4.717  1.00  0.00    -0.025 A 
HETATM   13  C18 UNL     1      17.625  51.887   5.202  1.00  0.00     0.001 A 
HETATM   14  C19 UNL     1      18.648  52.750   4.823  1.00  0.00     0.001 A 
HETATM   15  C20 UNL     1      18.372  54.097   4.581  1.00  0.00     0.012 A 
HETATM   16  C22 UNL     1      16.774  55.950   4.480  1.00  0.00     0.021 A 
ENDBRANCH   5   7
BRANCH   4  17
HETATM   17  C6  UNL     1      13.600  57.846   2.314  1.00  0.00     0.051 A 
HETATM   18  C7  UNL     1      13.668  56.538   1.804  1.00  0.00     0.031 A 
HETATM   19  C8  UNL     1      13.423  56.254   0.455  1.00  0.00     0.002 A 
HETATM   20  C9  UNL     1      13.102  57.282  -0.423  1.00  0.00     0.000 A 
HETATM   21  C10 UNL     1      13.027  58.587   0.049  1.00  0.00     0.002 A 
HETATM   22  C11 UNL     1      13.272  58.862   1.402  1.00  0.00     0.031 A 
ENDBRANCH   4  17
BRANCH   1  23
HETATM   23  C4  UNL     1      12.692  59.444   6.765  1.00  0.00    -0.012 A 
HETATM   24  C3  UNL     1      12.910  58.971   8.064  1.00  0.00     0.015 A 
HETATM   25  C2  UNL     1      12.182  59.502   9.134  1.00  0.00     0.024 A 
HETATM   26  C1  UNL     1      11.240  60.505   8.906  1.00  0.00     0.034 A 
HETATM   27 CL1  UNL     1      10.345  61.153  10.224  1.00  0.00    -0.084 Cl
HETATM   28  C25 UNL     1      11.018  60.982   7.616  1.00  0.00     0.024 A 
HETATM   29  C24 UNL     1      11.746  60.455   6.547  1.00  0.00     0.015 A 
ENDBRANCH   1  23
TORSDOF 3
ENDMDL
MODEL 3
REMARK minimizedAffinity -7.89709187
REMARK  3 active torsions:
REMARK  status: ('A' for Active; 'I' for Inactive)
REMARK    1  A    between atoms: C4_5  and  C5_6 
REMARK    2  A    between atoms: N2_9  and  C6_10 
REMARK    3  A    between atoms: C12_16  and  C13_17 
ROOT
HETATM    1  C5  UNL     1      13.142  57.598   0.492  1.00  0.00     0.038 C 
HETATM    2  N1  UNL     1      13.254  56.592   1.307  1.00  0.00    -0.301 N 
ATOM      3  H1  UNL     1      12.800  55.684   1.214  1.00  0.00     0.187 HD
HETATM    4  N2  UNL     1      14.098  56.982   2.311  1.00  0.00    -0.283 N 
HETATM    5  C12 UNL     1      14.463  58.397   2.236  1.00  0.00     0.147 C 
HETATM    6  C23 UNL     1      13.985  58.795   0.838  1.00  0.00     0.091 C 
ENDROOT
BRANCH   5   7
HETATM    7  C13 UNL     1      13.796  59.259   3.299  1.00  0.00    -0.032 A 
HETATM    8  C14 UNL     1      13.204  60.476   2.928  1.00  0.00     0.010 A 
HETATM    9  C15 UNL     1      12.561  61.275   3.876  1.00  0.00     0.013 A 
HETATM   10  C16 UNL     1      12.488  60.880   5.219  1.00  0.00    -0.026 A 
HETATM   11  C17 UNL     1      11.849  61.674   6.185  1.00  0.00     0.012 A 
HETATM   12  C21 UNL     1      13.072  59.654   5.609  1.00  0.00    -0.025 A 
HETATM   13  C18 UNL     1      11.788  61.265   7.519  1.00  0.00     0.001 A 
HETATM   14  C19 UNL     1      12.364  60.057   7.902  1.00  0.00     0.001 A 
HETATM   15  C20 UNL     1      13.002  59.256   6.953  1.00  0.00     0.012 A 
HETATM   16  C22 UNL     1      13.714  58.859   4.644  1.00  0.00     0.021 A 
ENDBRANCH   5   7
BRANCH   4  17
HETATM   17  C6  UNL     1      14.555  56.066   3.257  1.00  0.00     0.051 A 
HETATM   18  C7  UNL     1      15.931  55.877   3.470  1.00  0.00     0.031 A 
HETATM   19  C8  UNL     1      16.418  54.962   4.410  1.00  0.00     0.002 A 
HETATM   20  C9  UNL     1      15.530  54.206   5.167  1.00  0.00     0.000 A 
HETATM   21  C10 UNL     1      14.162  54.369   4.981  1.00  0.00     0.002 A 
HETATM   22  C11 UNL     1      13.684  55.289   4.038  1.00  0.00     0.031 A 
ENDBRANCH   4  17
BRANCH   1  23
HETATM   23  C4  UNL     1      12.275  57.571  -0.709  1.00  0.00    -0.012 A 
HETATM   24  C3  UNL     1      12.198  58.665  -1.579  1.00  0.00     0.015 A 
HETATM   25  C2  UNL     1      11.366  58.608  -2.702  1.00  0.00     0.024 A 
HETATM   26  C1  UNL     1      10.614  57.460  -2.955  1.00  0.00     0.034 A 
HETATM   27 CL1  UNL     1       9.591  57.396  -4.336  1.00  0.00    -0.084 Cl
HETATM   28  C25 UNL     1      10.687  56.367  -2.094  1.00  0.00     0.024 A 
HETATM   29  C24 UNL     1      11.520  56.421  -0.974  1.00  0.00     0.015 A 
ENDBRANCH   1  23
TORSDOF 3
ENDMDL
MODEL 4
REMARK minimizedAffinity -7.76328516
REMARK  3 active torsions:
REMARK  status: ('A' for Active; 'I' for Inactive)
REMARK    1  A    between atoms: C4_5  and  C5_6 
REMARK    2  A    between atoms: N2_9  and  C6_10 
REMARK    3  A    between atoms: C12_16  and  C13_17 
ROOT
HETATM    1  C5  UNL     1      17.136  52.233   5.411  1.00  0.00     0.038 C 
HETATM    2  N1  UNL     1      16.662  51.054   5.680  1.00  0.00    -0.301 N 
ATOM      3  H1  UNL     1      15.681  50.776   5.654  1.00  0.00     0.187 HD
HETATM    4  N2  UNL     1      17.726  50.257   6.002  1.00  0.00    -0.283 N 
HETATM    5  C12 UNL     1      18.987  50.994   6.092  1.00  0.00     0.147 C 
HETATM    6  C23 UNL     1      18.636  52.343   5.459  1.00  0.00     0.091 C 
ENDROOT
BRANCH   5   7
HETATM    7  C13 UNL     1      19.486  51.182   7.519  1.00  0.00    -0.032 A 
HETATM    8  C14 UNL     1      19.068  52.302   8.252  1.00  0.00     0.010 A 
HETATM    9  C15 UNL     1      19.488  52.488   9.572  1.00  0.00     0.013 A 
HETATM   10  C16 UNL     1      20.333  51.559  10.195  1.00  0.00    -0.026 A 
HETATM   11  C17 UNL     1      20.767  51.733  11.519  1.00  0.00     0.012 A 
HETATM   12  C21 UNL     1      20.757  50.421   9.473  1.00  0.00    -0.025 A 
HETATM   13  C18 UNL     1      21.610  50.798  12.122  1.00  0.00     0.001 A 
HETATM   14  C19 UNL     1      22.028  49.678  11.411  1.00  0.00     0.001 A 
HETATM   15  C20 UNL     1      21.604  49.490  10.094  1.00  0.00     0.012 A 
HETATM   16  C22 UNL     1      20.325  50.246   8.147  1.00  0.00     0.021 A 
ENDBRANCH   5   7
BRANCH   4  17
HETATM   17  C6  UNL     1      17.564  48.884   6.177  1.00  0.00     0.051 A 
HETATM   18  C7  UNL     1      18.656  48.069   6.524  1.00  0.00     0.031 A 
HETATM   19  C8  UNL     1      18.523  46.687   6.702  1.00  0.00     0.002 A 
HETATM   20  C9  UNL     1      17.283  46.082   6.535  1.00  0.00     0.000 A 
HETATM   21  C10 UNL     1      16.183  46.860   6.193  1.00  0.00     0.002 A 
HETATM   22  C11 UNL     1      16.325  48.244   6.019  1.00  0.00     0.031 A 
ENDBRANCH   4  17
BRANCH   1  23
HETATM   23  C4  UNL     1      16.278  53.387   5.053  1.00  0.00    -0.012 A 
HETATM   24  C3  UNL     1      14.901  53.378   5.299  1.00  0.00     0.015 A 
HETATM   25  C2  UNL     1      14.119  54.482   4.944  1.00  0.00     0.024 A 
HETATM   26  C1  UNL     1      14.713  55.593   4.347  1.00  0.00     0.034 A 
HETATM   27 CL1  UNL     1      13.748  56.948   3.911  1.00  0.00    -0.084 Cl
HETATM   28  C25 UNL     1      16.085  55.611   4.101  1.00  0.00     0.024 A 
HETATM   29  C24 UNL     1      16.867  54.510   4.457  1.00  0.00     0.015 A 
ENDBRANCH   1  23
TORSDOF 3
ENDMDL
MODEL 5
REMARK minimizedAffinity -7.67569017
REMARK  3 active torsions:
REMARK  status: ('A' for Active; 'I' for Inactive)
REMARK    1  A    between atoms: C4_5  and  C5_6 
REMARK    2  A    between atoms: N2_9  and  C6_10 
REMARK    3  A    between atoms: C12_16  and  C13_17 
ROOT
HETATM    1  C5  UNL     1      17.188  52.200   5.427  1.00  0.00     0.038 C 
HETATM    2  N1  UNL     1      16.688  51.025   5.661  1.00  0.00    -0.301 N 
ATOM      3  H1  UNL     1      15.705  50.760   5.597  1.00  0.00     0.187 HD
HETATM    4  N2  UNL     1      17.728  50.208   6.009  1.00  0.00    -0.283 N 
HETATM    5  C12 UNL     1      18.996  50.925   6.156  1.00  0.00     0.147 C 
HETATM    6  C23 UNL     1      18.686  52.287   5.530  1.00  0.00     0.091 C 
ENDROOT
BRANCH   5   7
HETATM    7  C13 UNL     1      19.446  51.086   7.601  1.00  0.00    -0.032 A 
HETATM    8  C14 UNL     1      20.133  50.037   8.230  1.00  0.00     0.010 A 
HETATM    9  C15 UNL     1      20.582  50.166   9.547  1.00  0.00     0.013 A 
HETATM   10  C16 UNL     1      20.360  51.347  10.269  1.00  0.00    -0.026 A 
HETATM   11  C17 UNL     1      20.802  51.491  11.595  1.00  0.00     0.012 A 
HETATM   12  C21 UNL     1      19.677  52.416   9.648  1.00  0.00    -0.025 A 
HETATM   13  C18 UNL     1      20.570  52.674  12.299  1.00  0.00     0.001 A 
HETATM   14  C19 UNL     1      19.896  53.727  11.688  1.00  0.00     0.001 A 
HETATM   15  C20 UNL     1      19.452  53.600  10.370  1.00  0.00     0.012 A 
HETATM   16  C22 UNL     1      19.233  52.273   8.323  1.00  0.00     0.021 A 
ENDBRANCH   5   7
BRANCH   4  17
HETATM   17  C6  UNL     1      17.542  48.835   6.158  1.00  0.00     0.051 A 
HETATM   18  C7  UNL     1      16.258  48.269   6.073  1.00  0.00     0.031 A 
HETATM   19  C8  UNL     1      16.041  46.894   6.223  1.00  0.00     0.002 A 
HETATM   20  C9  UNL     1      17.115  46.045   6.465  1.00  0.00     0.000 A 
HETATM   21  C10 UNL     1      18.398  46.573   6.554  1.00  0.00     0.002 A 
HETATM   22  C11 UNL     1      18.605  47.951   6.401  1.00  0.00     0.031 A 
ENDBRANCH   4  17
BRANCH   1  23
HETATM   23  C4  UNL     1      16.359  53.371   5.056  1.00  0.00    -0.012 A 
HETATM   24  C3  UNL     1      16.924  54.510   4.471  1.00  0.00     0.015 A 
HETATM   25  C2  UNL     1      16.113  55.600   4.137  1.00  0.00     0.024 A 
HETATM   26  C1  UNL     1      14.741  55.550   4.386  1.00  0.00     0.034 A 
HETATM   27 CL1  UNL     1      13.749  56.893   3.975  1.00  0.00    -0.084 Cl
HETATM   28  C25 UNL     1      14.172  54.419   4.966  1.00  0.00     0.024 A 
HETATM   29  C24 UNL     1      14.980  53.328   5.297  1.00  0.00     0.015 A 
ENDBRANCH   1  23
TORSDOF 3
ENDMDL
MODEL 6
REMARK minimizedAffinity -7.65974903
REMARK  3 active torsions:
REMARK  status: ('A' for Active; 'I' for Inactive)
REMARK    1  A    between atoms: C4_5  and  C5_6 
REMARK    2  A    between atoms: N2_9  and  C6_10 
REMARK    3  A    between atoms: C12_16  and  C13_17 
ROOT
HETATM    1  C5  UNL     1      18.330  50.542   6.368  1.00  0.00     0.038 C 
HETATM    2  N1  UNL     1      18.469  51.295   7.417  1.00  0.00    -0.301 N 
ATOM      3  H1  UNL     1      18.441  50.990   8.390  1.00  0.00     0.187 HD
HETATM    4  N2  UNL     1      18.660  52.573   6.971  1.00  0.00    -0.283 N 
HETATM    5  C12 UNL     1      18.496  52.706   5.523  1.00  0.00     0.147 C 
HETATM    6  C23 UNL     1      18.488  51.250   5.050  1.00  0.00     0.091 C 
ENDROOT
BRANCH   5   7
HETATM    7  C13 UNL     1      17.210  53.412   5.113  1.00  0.00    -0.032 A 
HETATM    8  C14 UNL     1      15.975  52.867   5.492  1.00  0.00     0.010 A 
HETATM    9  C15 UNL     1      14.780  53.506   5.153  1.00  0.00     0.013 A 
HETATM   10  C16 UNL     1      14.787  54.709   4.431  1.00  0.00    -0.026 A 
HETATM   11  C17 UNL     1      13.594  55.361   4.080  1.00  0.00     0.012 A 
HETATM   12  C21 UNL     1      16.023  55.275   4.049  1.00  0.00    -0.025 A 
HETATM   13  C18 UNL     1      13.620  56.557   3.359  1.00  0.00     0.001 A 
HETATM   14  C19 UNL     1      14.838  57.114   2.982  1.00  0.00     0.001 A 
HETATM   15  C20 UNL     1      16.033  56.478   3.325  1.00  0.00     0.012 A 
HETATM   16  C22 UNL     1      17.217  54.622   4.398  1.00  0.00     0.021 A 
ENDBRANCH   5   7
BRANCH   4  17
HETATM   17  C6  UNL     1      19.009  53.595   7.853  1.00  0.00     0.051 A 
HETATM   18  C7  UNL     1      19.403  53.305   9.171  1.00  0.00     0.031 A 
HETATM   19  C8  UNL     1      19.755  54.311  10.078  1.00  0.00     0.002 A 
HETATM   20  C9  UNL     1      19.720  55.644   9.685  1.00  0.00     0.000 A 
HETATM   21  C10 UNL     1      19.335  55.964   8.388  1.00  0.00     0.002 A 
HETATM   22  C11 UNL     1      18.986  54.950   7.486  1.00  0.00     0.031 A 
ENDBRANCH   4  17
BRANCH   1  23
HETATM   23  C4  UNL     1      18.067  49.086   6.448  1.00  0.00    -0.012 A 
HETATM   24  C3  UNL     1      16.894  48.526   5.929  1.00  0.00     0.015 A 
HETATM   25  C2  UNL     1      16.674  47.148   6.026  1.00  0.00     0.024 A 
HETATM   26  C1  UNL     1      17.626  46.332   6.637  1.00  0.00     0.034 A 
HETATM   27 CL1  UNL     1      17.350  44.638   6.756  1.00  0.00    -0.084 Cl
HETATM   28  C25 UNL     1      18.797  46.882   7.154  1.00  0.00     0.024 A 
HETATM   29  C24 UNL     1      19.019  48.257   7.056  1.00  0.00     0.015 A 
ENDBRANCH   1  23
TORSDOF 3
ENDMDL
MODEL 7
REMARK minimizedAffinity -7.61282206
REMARK  3 active torsions:
REMARK  status: ('A' for Active; 'I' for Inactive)
REMARK    1  A    between atoms: C4_5  and  C5_6 
REMARK    2  A    between atoms: N2_9  and  C6_10 
REMARK    3  A    between atoms: C12_16  and  C13_17 
ROOT
HETATM    1  C5  UNL     1      14.977  57.192   4.463  1.00  0.00     0.038 C 
HETATM    2  N1  UNL     1      13.977  57.735   5.090  1.00  0.00    -0.301 N 
ATOM      3  H1  UNL     1      13.396  57.292   5.802  1.00  0.00     0.187 HD
HETATM    4  N2  UNL     1      13.851  59.011   4.615  1.00  0.00    -0.283 N 
HETATM    5  C12 UNL     1      14.741  59.295   3.489  1.00  0.00     0.147 C 
HETATM    6  C23 UNL     1      15.703  58.103   3.511  1.00  0.00     0.091 C 
ENDROOT
BRANCH   5   7
HETATM    7  C13 UNL     1      14.025  59.383   2.148  1.00  0.00    -0.032 A 
HETATM    8  C14 UNL     1      13.865  60.634   1.534  1.00  0.00     0.010 A 
HETATM    9  C15 UNL     1      13.235  60.743   0.292  1.00  0.00     0.013 A 
HETATM   10  C16 UNL     1      12.754  59.606  -0.373  1.00  0.00    -0.026 A 
HETATM   11  C17 UNL     1      12.116  59.700  -1.621  1.00  0.00     0.012 A 
HETATM   12  C21 UNL     1      12.915  58.338   0.228  1.00  0.00    -0.025 A 
HETATM   13  C18 UNL     1      11.641  58.556  -2.266  1.00  0.00     0.001 A 
HETATM   14  C19 UNL     1      11.800  57.307  -1.675  1.00  0.00     0.001 A 
HETATM   15  C20 UNL     1      12.433  57.197  -0.435  1.00  0.00     0.012 A 
HETATM   16  C22 UNL     1      13.552  58.243   1.477  1.00  0.00     0.021 A 
ENDBRANCH   5   7
BRANCH   4  17
HETATM   17  C6  UNL     1      12.971  59.913   5.211  1.00  0.00     0.051 A 
HETATM   18  C7  UNL     1      12.661  61.135   4.589  1.00  0.00     0.031 A 
HETATM   19  C8  UNL     1      11.785  62.061   5.167  1.00  0.00     0.002 A 
HETATM   20  C9  UNL     1      11.192  61.783   6.393  1.00  0.00     0.000 A 
HETATM   21  C10 UNL     1      11.476  60.582   7.034  1.00  0.00     0.002 A 
HETATM   22  C11 UNL     1      12.354  59.661   6.447  1.00  0.00     0.031 A 
ENDBRANCH   4  17
BRANCH   1  23
HETATM   23  C4  UNL     1      15.402  55.790   4.682  1.00  0.00    -0.012 A 
HETATM   24  C3  UNL     1      14.482  54.791   5.023  1.00  0.00     0.015 A 
HETATM   25  C2  UNL     1      14.917  53.478   5.226  1.00  0.00     0.024 A 
HETATM   26  C1  UNL     1      16.269  53.163   5.088  1.00  0.00     0.034 A 
HETATM   27 CL1  UNL     1      16.801  51.547   5.341  1.00  0.00    -0.084 Cl
HETATM   28  C25 UNL     1      17.191  54.151   4.747  1.00  0.00     0.024 A 
HETATM   29  C24 UNL     1      16.757  55.462   4.540  1.00  0.00     0.015 A 
ENDBRANCH   1  23
TORSDOF 3
ENDMDL
MODEL 8
REMARK minimizedAffinity -7.60393429
REMARK  3 active torsions:
REMARK  status: ('A' for Active; 'I' for Inactive)
REMARK    1  A    between atoms: C4_5  and  C5_6 
REMARK    2  A    between atoms: N2_9  and  C6_10 
REMARK    3  A    between atoms: C12_16  and  C13_17 
ROOT
HETATM    1  C5  UNL     1      14.329  36.918  17.687  1.00  0.00     0.038 C 
HETATM    2  N1  UNL     1      14.327  37.891  16.826  1.00  0.00    -0.301 N 
ATOM      3  H1  UNL     1      13.510  38.398  16.486  1.00  0.00     0.187 HD
HETATM    4  N2  UNL     1      15.628  38.107  16.463  1.00  0.00    -0.283 N 
HETATM    5  C12 UNL     1      16.550  37.114  17.014  1.00  0.00     0.147 C 
HETATM    6  C23 UNL     1      15.691  36.402  18.062  1.00  0.00     0.091 C 
ENDROOT
BRANCH   5   7
HETATM    7  C13 UNL     1      17.073  36.123  15.982  1.00  0.00    -0.032 A 
HETATM    8  C14 UNL     1      18.306  35.490  16.198  1.00  0.00     0.010 A 
HETATM    9  C15 UNL     1      18.798  34.557  15.282  1.00  0.00     0.013 A 
HETATM   10  C16 UNL     1      18.071  34.228  14.129  1.00  0.00    -0.026 A 
HETATM   11  C17 UNL     1      18.554  33.294  13.198  1.00  0.00     0.012 A 
HETATM   12  C21 UNL     1      16.823  34.850  13.902  1.00  0.00    -0.025 A 
HETATM   13  C18 UNL     1      17.816  32.981  12.055  1.00  0.00     0.001 A 
HETATM   14  C19 UNL     1      16.587  33.594  11.830  1.00  0.00     0.001 A 
HETATM   15  C20 UNL     1      16.093  34.523  12.748  1.00  0.00     0.012 A 
HETATM   16  C22 UNL     1      16.339  35.785  14.832  1.00  0.00     0.021 A 
ENDBRANCH   5   7
BRANCH   4  17
HETATM   17  C6  UNL     1      15.978  39.203  15.675  1.00  0.00     0.051 A 
HETATM   18  C7  UNL     1      16.071  39.085  14.277  1.00  0.00     0.031 A 
HETATM   19  C8  UNL     1      16.424  40.166  13.463  1.00  0.00     0.002 A 
HETATM   20  C9  UNL     1      16.696  41.405  14.033  1.00  0.00     0.000 A 
HETATM   21  C10 UNL     1      16.613  41.555  15.413  1.00  0.00     0.002 A 
HETATM   22  C11 UNL     1      16.256  40.466  16.220  1.00  0.00     0.031 A 
ENDBRANCH   4  17
BRANCH   1  23
HETATM   23  C4  UNL     1      13.091  36.369  18.287  1.00  0.00    -0.012 A 
HETATM   24  C3  UNL     1      12.868  36.407  19.668  1.00  0.00     0.015 A 
HETATM   25  C2  UNL     1      11.690  35.874  20.202  1.00  0.00     0.024 A 
HETATM   26  C1  UNL     1      10.736  35.307  19.357  1.00  0.00     0.034 A 
HETATM   27 CL1  UNL     1       9.290  34.652  20.018  1.00  0.00    -0.084 Cl
HETATM   28  C25 UNL     1      10.950  35.267  17.981  1.00  0.00     0.024 A 
HETATM   29  C24 UNL     1      12.124  35.801  17.446  1.00  0.00     0.015 A 
ENDBRANCH   1  23
TORSDOF 3
ENDMDL
MODEL 9
REMARK minimizedAffinity -7.47698402
REMARK  3 active torsions:
REMARK  status: ('A' for Active; 'I' for Inactive)
REMARK    1  A    between atoms: C4_5  and  C5_6 
REMARK    2  A    between atoms: N2_9  and  C6_10 
REMARK    3  A    between atoms: C12_16  and  C13_17 
ROOT
HETATM    1  C5  UNL     1      14.589  58.763   2.877  1.00  0.00     0.038 C 
HETATM    2  N1  UNL     1      14.538  57.469   2.983  1.00  0.00    -0.301 N 
ATOM      3  H1  UNL     1      14.151  56.820   2.298  1.00  0.00     0.187 HD
HETATM    4  N2  UNL     1      15.100  57.143   4.186  1.00  0.00    -0.283 N 
HETATM    5  C12 UNL     1      15.422  58.313   5.005  1.00  0.00     0.147 C 
HETATM    6  C23 UNL     1      15.281  59.468   4.012  1.00  0.00     0.091 C 
ENDROOT
BRANCH   5   7
HETATM    7  C13 UNL     1      14.488  58.506   6.192  1.00  0.00    -0.032 A 
HETATM    8  C14 UNL     1      14.822  57.938   7.431  1.00  0.00     0.010 A 
HETATM    9  C15 UNL     1      13.998  58.121   8.544  1.00  0.00     0.013 A 
HETATM   10  C16 UNL     1      12.822  58.879   8.452  1.00  0.00    -0.026 A 
HETATM   11  C17 UNL     1      11.982  59.069   9.561  1.00  0.00     0.012 A 
HETATM   12  C21 UNL     1      12.476  59.464   7.214  1.00  0.00    -0.025 A 
HETATM   13  C18 UNL     1      10.813  59.824   9.449  1.00  0.00     0.001 A 
HETATM   14  C19 UNL     1      10.472  60.400   8.230  1.00  0.00     0.001 A 
HETATM   15  C20 UNL     1      11.298  60.222   7.118  1.00  0.00     0.012 A 
HETATM   16  C22 UNL     1      13.314  59.273   6.103  1.00  0.00     0.021 A 
ENDBRANCH   5   7
BRANCH   4  17
HETATM   17  C6  UNL     1      15.349  55.813   4.523  1.00  0.00     0.051 A 
HETATM   18  C7  UNL     1      16.647  55.280   4.440  1.00  0.00     0.031 A 
HETATM   19  C8  UNL     1      16.924  53.948   4.768  1.00  0.00     0.002 A 
HETATM   20  C9  UNL     1      15.898  53.110   5.190  1.00  0.00     0.000 A 
HETATM   21  C10 UNL     1      14.604  53.606   5.284  1.00  0.00     0.002 A 
HETATM   22  C11 UNL     1      14.336  54.942   4.955  1.00  0.00     0.031 A 
ENDBRANCH   4  17
BRANCH   1  23
HETATM   23  C4  UNL     1      14.038  59.501   1.716  1.00  0.00    -0.012 A 
HETATM   24  C3  UNL     1      14.513  59.281   0.418  1.00  0.00     0.015 A 
HETATM   25  C2  UNL     1      13.973  59.998  -0.655  1.00  0.00     0.024 A 
HETATM   26  C1  UNL     1      12.961  60.931  -0.431  1.00  0.00     0.034 A 
HETATM   27 CL1  UNL     1      12.302  61.812  -1.753  1.00  0.00    -0.084 Cl
HETATM   28  C25 UNL     1      12.482  61.154   0.858  1.00  0.00     0.024 A 
HETATM   29  C24 UNL     1      13.017  60.436   1.931  1.00  0.00     0.015 A 
ENDBRANCH   1  23
TORSDOF 3
ENDMDL
