MODEL 1
REMARK minimizedAffinity -8.56476307
REMARK  8 active torsions:
REMARK  status: ('A' for Active; 'I' for Inactive)
REMARK    1  A    between atoms: C4_4  and  N1_5 
REMARK    2  A    between atoms: N1_5  and  C5_6 
REMARK    3  A    between atoms: C5_6  and  C6_7 
REMARK    4  A    between atoms: C6_7  and  N2_8 
REMARK    5  A    between atoms: N2_8  and  C7_9 
REMARK    6  A    between atoms: N2_8  and  N7_30 
REMARK    7  A    between atoms: C11_17  and  N5_18 
REMARK    8  A    between atoms: N5_18  and  C12_19 
ROOT
HETATM    1  C7  UNL     1      15.565  37.511  15.802  1.00  0.00     0.095 A 
HETATM    2  C8  UNL     1      16.268  36.629  16.607  1.00  0.00     0.069 A 
HETATM    3  C9  UNL     1      15.459  35.652  17.255  1.00  0.00     0.056 A 
HETATM    4  N3  UNL     1      15.921  34.673  18.068  1.00  0.00    -0.351 N 
ATOM      5  H3  UNL     1      16.907  34.560  18.301  1.00  0.00     0.166 HD
HETATM    6  C10 UNL     1      14.965  33.868  18.536  1.00  0.00     0.182 A 
HETATM    7  N4  UNL     1      13.649  33.935  18.291  1.00  0.00    -0.337 N 
ATOM      8  H4  UNL     1      13.012  33.256  18.707  1.00  0.00     0.168 HD
HETATM    9  C11 UNL     1      13.172  34.914  17.488  1.00  0.00     0.126 A 
HETATM   10  C20 UNL     1      14.116  35.807  16.953  1.00  0.00     0.077 A 
HETATM   11  S1  UNL     1      13.882  37.151  15.913  1.00  0.00    -0.065 SA
ENDROOT
BRANCH   1  12
HETATM   12  N2  UNL     1      16.095  38.533  15.046  1.00  0.00    -0.279 N 
BRANCH  12  13
HETATM   13  C6  UNL     1      17.055  38.307  13.945  1.00  0.00     0.165 C 
BRANCH  13  14
HETATM   14  C5  UNL     1      17.346  36.805  13.720  1.00  0.00     0.114 C 
BRANCH  14  15
HETATM   15  N1  UNL     1      16.792  36.366  12.438  1.00  0.00    -0.291 NA
HETATM   16  H4  UNL     1      16.874  37.098  11.732  1.00  0.00     0.127 HD
BRANCH  15  17
HETATM   17  C4  UNL     1      17.171  35.118  11.929  1.00  0.00     0.008 A 
HETATM   18  C3  UNL     1      18.273  34.925  11.087  1.00  0.00     0.023 A 
HETATM   19  C2  UNL     1      18.650  33.644  10.667  1.00  0.00     0.002 A 
HETATM   20  C1  UNL     1      17.948  32.528  11.110  1.00  0.00     0.000 A 
HETATM   21  C26 UNL     1      16.878  32.693  11.984  1.00  0.00     0.002 A 
HETATM   22  C25 UNL     1      16.505  33.977  12.398  1.00  0.00     0.023 A 
ENDBRANCH  15  17
ENDBRANCH  14  15
ENDBRANCH  13  14
ENDBRANCH  12  13
BRANCH  12  23
HETATM   23  N7  UNL     1      16.132  39.835  15.539  1.00  0.00    -0.276 N 
HETATM   24  C21 UNL     1      16.668  40.924  14.896  1.00  0.00     0.116 A 
HETATM   25  C22 UNL     1      16.510  42.028  15.704  1.00  0.00     0.021 A 
HETATM   26  C23 UNL     1      15.862  41.593  16.884  1.00  0.00     0.021 A 
HETATM   27  C24 UNL     1      15.649  40.237  16.758  1.00  0.00     0.116 A 
ENDBRANCH  12  23
ENDBRANCH   1  12
BRANCH   9  28
HETATM   28  N5  UNL     1      11.810  35.048  17.183  1.00  0.00    -0.341 N 
HETATM   29  H11 UNL     1      11.624  34.948  16.192  1.00  0.00     0.167 HD
BRANCH  28  30
HETATM   30  C12 UNL     1      10.668  35.312  17.962  1.00  0.00     0.034 A 
HETATM   31  C13 UNL     1       9.591  35.974  17.353  1.00  0.00     0.032 A 
HETATM   32  C14 UNL     1       8.407  36.282  18.038  1.00  0.00     0.033 A 
HETATM   33  C15 UNL     1       8.326  35.902  19.377  1.00  0.00     0.042 A 
HETATM   34  N6  UNL     1       7.311  36.069  20.292  1.00  0.00    -0.365 N 
HETATM   35  C18 UNL     1       9.361  35.234  20.026  1.00  0.00    -0.006 A 
HETATM   36  C16 UNL     1       7.665  35.519  21.494  1.00  0.00     0.089 A 
HETATM   37  H14 UNL     1       6.432  36.525  20.093  1.00  0.00     0.165 HD
HETATM   38  C17 UNL     1       8.930  34.996  21.362  1.00  0.00     0.030 A 
HETATM   39  C19 UNL     1      10.538  34.936  19.307  1.00  0.00     0.043 A 
ENDBRANCH  28  30
ENDBRANCH   9  28
TORSDOF 8
ENDMDL
MODEL 2
REMARK minimizedAffinity -8.29219055
REMARK  8 active torsions:
REMARK  status: ('A' for Active; 'I' for Inactive)
REMARK    1  A    between atoms: C4_4  and  N1_5 
REMARK    2  A    between atoms: N1_5  and  C5_6 
REMARK    3  A    between atoms: C5_6  and  C6_7 
REMARK    4  A    between atoms: C6_7  and  N2_8 
REMARK    5  A    between atoms: N2_8  and  C7_9 
REMARK    6  A    between atoms: N2_8  and  N7_30 
REMARK    7  A    between atoms: C11_17  and  N5_18 
REMARK    8  A    between atoms: N5_18  and  C12_19 
ROOT
HETATM    1  C7  UNL     1      16.169  35.546  15.980  1.00  0.00     0.095 A 
HETATM    2  C8  UNL     1      16.682  35.140  17.203  1.00  0.00     0.069 A 
HETATM    3  C9  UNL     1      15.694  34.792  18.168  1.00  0.00     0.056 A 
HETATM    4  N3  UNL     1      15.951  34.345  19.420  1.00  0.00    -0.351 N 
ATOM      5  H3  UNL     1      16.896  34.233  19.789  1.00  0.00     0.166 HD
HETATM    6  C10 UNL     1      14.855  34.064  20.126  1.00  0.00     0.182 A 
HETATM    7  N4  UNL     1      13.579  34.181  19.733  1.00  0.00    -0.337 N 
ATOM      8  H4  UNL     1      12.820  33.930  20.366  1.00  0.00     0.168 HD
HETATM    9  C11 UNL     1      13.307  34.634  18.488  1.00  0.00     0.126 A 
HETATM   10  C20 UNL     1      14.409  34.954  17.677  1.00  0.00     0.077 A 
HETATM   11  S1  UNL     1      14.447  35.550  16.069  1.00  0.00    -0.065 SA
ENDROOT
BRANCH   1  12
HETATM   12  N2  UNL     1      16.893  35.915  14.868  1.00  0.00    -0.279 N 
BRANCH  12  13
HETATM   13  C6  UNL     1      17.021  37.317  14.419  1.00  0.00     0.165 C 
BRANCH  13  14
HETATM   14  C5  UNL     1      16.157  38.284  15.262  1.00  0.00     0.114 C 
BRANCH  14  15
HETATM   15  N1  UNL     1      15.642  39.368  14.423  1.00  0.00    -0.291 NA
HETATM   16  H4  UNL     1      14.622  39.376  14.418  1.00  0.00     0.127 HD
BRANCH  15  17
HETATM   17  C4  UNL     1      16.164  40.657  14.588  1.00  0.00     0.008 A 
HETATM   18  C3  UNL     1      16.242  41.311  15.823  1.00  0.00     0.023 A 
HETATM   19  C2  UNL     1      16.841  42.571  15.941  1.00  0.00     0.002 A 
HETATM   20  C1  UNL     1      17.402  43.185  14.826  1.00  0.00     0.000 A 
HETATM   21  C26 UNL     1      17.376  42.534  13.598  1.00  0.00     0.002 A 
HETATM   22  C25 UNL     1      16.774  41.275  13.486  1.00  0.00     0.023 A 
ENDBRANCH  15  17
ENDBRANCH  14  15
ENDBRANCH  13  14
ENDBRANCH  12  13
BRANCH  12  23
HETATM   23  N7  UNL     1      17.157  34.995  13.856  1.00  0.00    -0.276 N 
HETATM   24  C21 UNL     1      16.638  35.026  12.586  1.00  0.00     0.116 A 
HETATM   25  C22 UNL     1      17.140  33.952  11.884  1.00  0.00     0.021 A 
HETATM   26  C23 UNL     1      17.987  33.238  12.763  1.00  0.00     0.021 A 
HETATM   27  C24 UNL     1      17.973  33.900  13.973  1.00  0.00     0.116 A 
ENDBRANCH  12  23
ENDBRANCH   1  12
BRANCH   9  28
HETATM   28  N5  UNL     1      11.998  34.780  18.004  1.00  0.00    -0.341 N 
HETATM   29  H11 UNL     1      11.937  34.628  17.004  1.00  0.00     0.167 HD
BRANCH  28  30
HETATM   30  C12 UNL     1      10.775  35.115  18.614  1.00  0.00     0.034 A 
HETATM   31  C13 UNL     1       9.939  36.034  17.961  1.00  0.00     0.032 A 
HETATM   32  C14 UNL     1       8.700  36.432  18.481  1.00  0.00     0.033 A 
HETATM   33  C15 UNL     1       8.308  35.875  19.698  1.00  0.00     0.042 A 
HETATM   34  N6  UNL     1       7.169  36.072  20.444  1.00  0.00    -0.365 N 
HETATM   35  C18 UNL     1       9.095  34.951  20.382  1.00  0.00    -0.006 A 
HETATM   36  C16 UNL     1       7.203  35.298  21.570  1.00  0.00     0.089 A 
HETATM   37  H14 UNL     1       6.418  36.696  20.185  1.00  0.00     0.165 HD
HETATM   38  C17 UNL     1       8.384  34.593  21.563  1.00  0.00     0.030 A 
HETATM   39  C19 UNL     1      10.336  34.570  19.829  1.00  0.00     0.043 A 
ENDBRANCH  28  30
ENDBRANCH   9  28
TORSDOF 8
ENDMDL
MODEL 3
REMARK minimizedAffinity -8.18284321
REMARK  8 active torsions:
REMARK  status: ('A' for Active; 'I' for Inactive)
REMARK    1  A    between atoms: C4_4  and  N1_5 
REMARK    2  A    between atoms: N1_5  and  C5_6 
REMARK    3  A    between atoms: C5_6  and  C6_7 
REMARK    4  A    between atoms: C6_7  and  N2_8 
REMARK    5  A    between atoms: N2_8  and  C7_9 
REMARK    6  A    between atoms: N2_8  and  N7_30 
REMARK    7  A    between atoms: C11_17  and  N5_18 
REMARK    8  A    between atoms: N5_18  and  C12_19 
ROOT
HETATM    1  C7  UNL     1      14.286  36.225  17.357  1.00  0.00     0.095 A 
HETATM    2  C8  UNL     1      14.376  37.576  17.658  1.00  0.00     0.069 A 
HETATM    3  C9  UNL     1      15.069  38.349  16.684  1.00  0.00     0.056 A 
HETATM    4  N3  UNL     1      15.262  39.688  16.746  1.00  0.00    -0.351 N 
ATOM      5  H3  UNL     1      14.934  40.264  17.522  1.00  0.00     0.166 HD
HETATM    6  C10 UNL     1      15.923  40.185  15.699  1.00  0.00     0.182 A 
HETATM    7  N4  UNL     1      16.396  39.514  14.639  1.00  0.00    -0.337 N 
ATOM      8  H4  UNL     1      16.886  40.008  13.894  1.00  0.00     0.168 HD
HETATM    9  C11 UNL     1      16.218  38.175  14.568  1.00  0.00     0.126 A 
HETATM   10  C20 UNL     1      15.530  37.572  15.634  1.00  0.00     0.077 A 
HETATM   11  S1  UNL     1      15.127  35.923  15.883  1.00  0.00    -0.065 SA
ENDROOT
BRANCH   1  12
HETATM   12  N2  UNL     1      13.654  35.257  18.106  1.00  0.00    -0.279 N 
BRANCH  12  13
HETATM   13  C6  UNL     1      12.334  34.696  17.750  1.00  0.00     0.165 C 
BRANCH  13  14
HETATM   14  C5  UNL     1      11.330  35.788  17.316  1.00  0.00     0.114 C 
BRANCH  14  15
HETATM   15  N1  UNL     1      10.754  36.444  18.492  1.00  0.00    -0.291 NA
HETATM   16  H4  UNL     1      10.765  37.459  18.390  1.00  0.00     0.127 HD
BRANCH  15  17
HETATM   17  C4  UNL     1       9.522  35.993  18.982  1.00  0.00     0.008 A 
HETATM   18  C3  UNL     1       9.392  35.026  19.985  1.00  0.00     0.023 A 
HETATM   19  C2  UNL     1       8.136  34.665  20.489  1.00  0.00     0.002 A 
HETATM   20  C1  UNL     1       6.988  35.293  20.017  1.00  0.00     0.000 A 
HETATM   21  C26 UNL     1       7.097  36.289  19.053  1.00  0.00     0.002 A 
HETATM   22  C25 UNL     1       8.356  36.643  18.552  1.00  0.00     0.023 A 
ENDBRANCH  15  17
ENDBRANCH  14  15
ENDBRANCH  13  14
ENDBRANCH  12  13
BRANCH  12  23
HETATM   23  N7  UNL     1      13.974  35.079  19.450  1.00  0.00    -0.276 N 
HETATM   24  C21 UNL     1      13.342  35.675  20.513  1.00  0.00     0.116 A 
HETATM   25  C22 UNL     1      13.945  35.244  21.674  1.00  0.00     0.021 A 
HETATM   26  C23 UNL     1      14.986  34.362  21.303  1.00  0.00     0.021 A 
HETATM   27  C24 UNL     1      14.985  34.285  19.926  1.00  0.00     0.116 A 
ENDBRANCH  12  23
ENDBRANCH   1  12
BRANCH   9  28
HETATM   28  N5  UNL     1      16.680  37.405  13.491  1.00  0.00    -0.341 N 
HETATM   29  H11 UNL     1      16.566  37.877  12.601  1.00  0.00     0.167 HD
BRANCH  28  30
HETATM   30  C12 UNL     1      17.243  36.119  13.395  1.00  0.00     0.034 A 
HETATM   31  C13 UNL     1      18.424  35.859  14.109  1.00  0.00     0.032 A 
HETATM   32  C14 UNL     1      19.063  34.612  14.084  1.00  0.00     0.033 A 
HETATM   33  C15 UNL     1      18.479  33.609  13.311  1.00  0.00     0.042 A 
HETATM   34  N6  UNL     1      18.872  32.308  13.093  1.00  0.00    -0.365 N 
HETATM   35  C18 UNL     1      17.304  33.811  12.593  1.00  0.00    -0.006 A 
HETATM   36  C16 UNL     1      17.981  31.678  12.269  1.00  0.00     0.089 A 
HETATM   37  H14 UNL     1      19.698  31.886  13.494  1.00  0.00     0.165 HD
HETATM   38  C17 UNL     1      16.999  32.583  11.940  1.00  0.00     0.030 A 
HETATM   39  C19 UNL     1      16.684  35.078  12.641  1.00  0.00     0.043 A 
ENDBRANCH  28  30
ENDBRANCH   9  28
TORSDOF 8
ENDMDL
MODEL 4
REMARK minimizedAffinity -7.79020882
REMARK  8 active torsions:
REMARK  status: ('A' for Active; 'I' for Inactive)
REMARK    1  A    between atoms: C4_4  and  N1_5 
REMARK    2  A    between atoms: N1_5  and  C5_6 
REMARK    3  A    between atoms: C5_6  and  C6_7 
REMARK    4  A    between atoms: C6_7  and  N2_8 
REMARK    5  A    between atoms: N2_8  and  C7_9 
REMARK    6  A    between atoms: N2_8  and  N7_30 
REMARK    7  A    between atoms: C11_17  and  N5_18 
REMARK    8  A    between atoms: N5_18  and  C12_19 
ROOT
HETATM    1  C7  UNL     1      15.129  36.344  16.900  1.00  0.00     0.095 A 
HETATM    2  C8  UNL     1      16.048  37.354  17.139  1.00  0.00     0.069 A 
HETATM    3  C9  UNL     1      16.873  37.673  16.023  1.00  0.00     0.056 A 
HETATM    4  N3  UNL     1      17.824  38.638  16.007  1.00  0.00    -0.351 N 
ATOM      5  H3  UNL     1      18.043  39.218  16.817  1.00  0.00     0.166 HD
HETATM    6  C10 UNL     1      18.447  38.759  14.834  1.00  0.00     0.182 A 
HETATM    7  N4  UNL     1      18.234  38.046  13.719  1.00  0.00    -0.337 N 
ATOM      8  H4  UNL     1      18.775  38.235  12.876  1.00  0.00     0.168 HD
HETATM    9  C11 UNL     1      17.293  37.074  13.722  1.00  0.00     0.126 A 
HETATM   10  C20 UNL     1      16.589  36.881  14.923  1.00  0.00     0.077 A 
HETATM   11  S1  UNL     1      15.348  35.757  15.294  1.00  0.00    -0.065 SA
ENDROOT
BRANCH   1  12
HETATM   12  N2  UNL     1      14.198  35.854  17.788  1.00  0.00    -0.279 N 
BRANCH  12  13
HETATM   13  C6  UNL     1      12.787  36.295  17.802  1.00  0.00     0.165 C 
BRANCH  13  14
HETATM   14  C5  UNL     1      11.801  35.111  17.669  1.00  0.00     0.114 C 
BRANCH  14  15
HETATM   15  N1  UNL     1      10.475  35.594  17.282  1.00  0.00    -0.291 NA
HETATM   16  H4  UNL     1      10.109  35.069  16.488  1.00  0.00     0.127 HD
BRANCH  15  17
HETATM   17  C4  UNL     1       9.502  35.767  18.274  1.00  0.00     0.008 A 
HETATM   18  C3  UNL     1       8.277  36.408  18.056  1.00  0.00     0.023 A 
HETATM   19  C2  UNL     1       7.309  36.488  19.066  1.00  0.00     0.002 A 
HETATM   20  C1  UNL     1       7.541  35.897  20.304  1.00  0.00     0.000 A 
HETATM   21  C26 UNL     1       8.733  35.216  20.527  1.00  0.00     0.002 A 
HETATM   22  C25 UNL     1       9.697  35.142  19.514  1.00  0.00     0.023 A 
ENDBRANCH  15  17
ENDBRANCH  14  15
ENDBRANCH  13  14
ENDBRANCH  12  13
BRANCH  12  23
HETATM   23  N7  UNL     1      14.599  35.283  18.994  1.00  0.00    -0.276 N 
HETATM   24  C21 UNL     1      15.217  34.066  19.141  1.00  0.00     0.116 A 
HETATM   25  C22 UNL     1      15.456  33.859  20.482  1.00  0.00     0.021 A 
HETATM   26  C23 UNL     1      14.956  34.987  21.174  1.00  0.00     0.021 A 
HETATM   27  C24 UNL     1      14.428  35.844  20.233  1.00  0.00     0.116 A 
ENDBRANCH  12  23
ENDBRANCH   1  12
BRANCH   9  28
HETATM   28  N5  UNL     1      17.011  36.289  12.595  1.00  0.00    -0.341 N 
HETATM   29  H11 UNL     1      16.270  36.682  12.026  1.00  0.00     0.167 HD
BRANCH  28  30
HETATM   30  C12 UNL     1      17.526  35.071  12.113  1.00  0.00     0.034 A 
HETATM   31  C13 UNL     1      18.670  35.113  11.301  1.00  0.00     0.032 A 
HETATM   32  C14 UNL     1      19.265  33.958  10.772  1.00  0.00     0.033 A 
HETATM   33  C15 UNL     1      18.674  32.735  11.083  1.00  0.00     0.042 A 
HETATM   34  N6  UNL     1      19.022  31.456  10.714  1.00  0.00    -0.365 N 
HETATM   35  C18 UNL     1      17.544  32.637  11.892  1.00  0.00    -0.006 A 
HETATM   36  C16 UNL     1      18.159  30.552  11.270  1.00  0.00     0.089 A 
HETATM   37  H14 UNL     1      19.809  31.226  10.123  1.00  0.00     0.165 HD
HETATM   38  C17 UNL     1      17.230  31.253  12.004  1.00  0.00     0.030 A 
HETATM   39  C19 UNL     1      16.972  33.818  12.411  1.00  0.00     0.043 A 
ENDBRANCH  28  30
ENDBRANCH   9  28
TORSDOF 8
ENDMDL
MODEL 5
REMARK minimizedAffinity -7.64999199
REMARK  8 active torsions:
REMARK  status: ('A' for Active; 'I' for Inactive)
REMARK    1  A    between atoms: C4_4  and  N1_5 
REMARK    2  A    between atoms: N1_5  and  C5_6 
REMARK    3  A    between atoms: C5_6  and  C6_7 
REMARK    4  A    between atoms: C6_7  and  N2_8 
REMARK    5  A    between atoms: N2_8  and  C7_9 
REMARK    6  A    between atoms: N2_8  and  N7_30 
REMARK    7  A    between atoms: C11_17  and  N5_18 
REMARK    8  A    between atoms: N5_18  and  C12_19 
ROOT
HETATM    1  C7  UNL     1      17.622  47.007   5.878  1.00  0.00     0.095 A 
HETATM    2  C8  UNL     1      18.690  47.459   6.639  1.00  0.00     0.069 A 
HETATM    3  C9  UNL     1      18.692  48.863   6.873  1.00  0.00     0.056 A 
HETATM    4  N3  UNL     1      19.615  49.530   7.607  1.00  0.00    -0.351 N 
ATOM      5  H3  UNL     1      20.413  49.072   8.048  1.00  0.00     0.166 HD
HETATM    6  C10 UNL     1      19.385  50.841   7.697  1.00  0.00     0.182 A 
HETATM    7  N4  UNL     1      18.373  51.532   7.154  1.00  0.00    -0.337 N 
ATOM      8  H4  UNL     1      18.300  52.538   7.298  1.00  0.00     0.168 HD
HETATM    9  C11 UNL     1      17.448  50.880   6.412  1.00  0.00     0.126 A 
HETATM   10  C20 UNL     1      17.618  49.493   6.266  1.00  0.00     0.077 A 
HETATM   11  S1  UNL     1      16.660  48.358   5.408  1.00  0.00    -0.065 SA
ENDROOT
BRANCH   1  12
HETATM   12  N2  UNL     1      17.362  45.703   5.521  1.00  0.00    -0.279 N 
BRANCH  12  13
HETATM   13  C6  UNL     1      18.013  44.545   6.170  1.00  0.00     0.165 C 
BRANCH  13  14
HETATM   14  C5  UNL     1      17.496  44.312   7.609  1.00  0.00     0.114 C 
BRANCH  14  15
HETATM   15  N1  UNL     1      18.348  45.008   8.574  1.00  0.00    -0.291 NA
HETATM   16  H4  UNL     1      17.790  45.555   9.231  1.00  0.00     0.127 HD
BRANCH  15  17
HETATM   17  C4  UNL     1      19.352  44.287   9.233  1.00  0.00     0.008 A 
HETATM   18  C3  UNL     1      19.352  44.036  10.610  1.00  0.00     0.023 A 
HETATM   19  C2  UNL     1      20.344  43.247  11.205  1.00  0.00     0.002 A 
HETATM   20  C1  UNL     1      21.337  42.668  10.423  1.00  0.00     0.000 A 
HETATM   21  C26 UNL     1      21.331  42.867   9.046  1.00  0.00     0.002 A 
HETATM   22  C25 UNL     1      20.338  43.659   8.459  1.00  0.00     0.023 A 
ENDBRANCH  15  17
ENDBRANCH  14  15
ENDBRANCH  13  14
ENDBRANCH  12  13
BRANCH  12  23
HETATM   23  N7  UNL     1      16.846  45.401   4.263  1.00  0.00    -0.276 N 
HETATM   24  C21 UNL     1      17.410  44.548   3.347  1.00  0.00     0.116 A 
HETATM   25  C22 UNL     1      16.602  44.511   2.233  1.00  0.00     0.021 A 
HETATM   26  C23 UNL     1      15.513  45.380   2.477  1.00  0.00     0.021 A 
HETATM   27  C24 UNL     1      15.694  45.919   3.733  1.00  0.00     0.116 A 
ENDBRANCH  12  23
ENDBRANCH   1  12
BRANCH   9  28
HETATM   28  N5  UNL     1      16.360  51.533   5.814  1.00  0.00    -0.341 N 
HETATM   29  H11 UNL     1      15.538  50.943   5.758  1.00  0.00     0.167 HD
BRANCH  28  30
HETATM   30  C12 UNL     1      16.188  52.816   5.263  1.00  0.00     0.034 A 
HETATM   31  C13 UNL     1      17.334  53.523   4.864  1.00  0.00     0.032 A 
HETATM   32  C14 UNL     1      17.274  54.806   4.302  1.00  0.00     0.033 A 
HETATM   33  C15 UNL     1      16.011  55.376   4.144  1.00  0.00     0.042 A 
HETATM   34  N6  UNL     1      15.643  56.601   3.636  1.00  0.00    -0.365 N 
HETATM   35  C18 UNL     1      14.843  54.715   4.514  1.00  0.00    -0.006 A 
HETATM   36  C16 UNL     1      14.281  56.732   3.661  1.00  0.00     0.089 A 
HETATM   37  H14 UNL     1      16.291  57.293   3.288  1.00  0.00     0.165 HD
HETATM   38  C17 UNL     1      13.757  55.581   4.202  1.00  0.00     0.030 A 
HETATM   39  C19 UNL     1      14.938  53.423   5.074  1.00  0.00     0.043 A 
ENDBRANCH  28  30
ENDBRANCH   9  28
TORSDOF 8
ENDMDL
MODEL 6
REMARK minimizedAffinity -7.63550472
REMARK  8 active torsions:
REMARK  status: ('A' for Active; 'I' for Inactive)
REMARK    1  A    between atoms: C4_4  and  N1_5 
REMARK    2  A    between atoms: N1_5  and  C5_6 
REMARK    3  A    between atoms: C5_6  and  C6_7 
REMARK    4  A    between atoms: C6_7  and  N2_8 
REMARK    5  A    between atoms: N2_8  and  C7_9 
REMARK    6  A    between atoms: N2_8  and  N7_30 
REMARK    7  A    between atoms: C11_17  and  N5_18 
REMARK    8  A    between atoms: N5_18  and  C12_19 
ROOT
HETATM    1  C7  UNL     1      14.434  35.486  17.439  1.00  0.00     0.095 A 
HETATM    2  C8  UNL     1      15.570  34.789  17.055  1.00  0.00     0.069 A 
HETATM    3  C9  UNL     1      16.389  35.476  16.115  1.00  0.00     0.056 A 
HETATM    4  N3  UNL     1      17.558  35.010  15.613  1.00  0.00    -0.351 N 
ATOM      5  H3  UNL     1      17.948  34.101  15.861  1.00  0.00     0.166 HD
HETATM    6  C10 UNL     1      18.151  35.851  14.764  1.00  0.00     0.182 A 
HETATM    7  N4  UNL     1      17.719  37.059  14.375  1.00  0.00    -0.337 N 
ATOM      8  H4  UNL     1      18.266  37.615  13.718  1.00  0.00     0.168 HD
HETATM    9  C11 UNL     1      16.549  37.533  14.861  1.00  0.00     0.126 A 
HETATM   10  C20 UNL     1      15.859  36.707  15.764  1.00  0.00     0.077 A 
HETATM   11  S1  UNL     1      14.368  36.973  16.570  1.00  0.00    -0.065 SA
ENDROOT
BRANCH   1  12
HETATM   12  N2  UNL     1      13.485  35.071  18.347  1.00  0.00    -0.279 N 
BRANCH  12  13
HETATM   13  C6  UNL     1      12.131  34.627  17.950  1.00  0.00     0.165 C 
BRANCH  13  14
HETATM   14  C5  UNL     1      11.238  35.803  17.494  1.00  0.00     0.114 C 
BRANCH  14  15
HETATM   15  N1  UNL     1      10.600  36.435  18.650  1.00  0.00    -0.291 NA
HETATM   16  H4  UNL     1      10.559  37.449  18.540  1.00  0.00     0.127 HD
BRANCH  15  17
HETATM   17  C4  UNL     1       9.383  35.921  19.114  1.00  0.00     0.008 A 
HETATM   18  C3  UNL     1       9.283  34.945  20.112  1.00  0.00     0.023 A 
HETATM   19  C2  UNL     1       8.037  34.520  20.590  1.00  0.00     0.002 A 
HETATM   20  C1  UNL     1       6.868  35.092  20.099  1.00  0.00     0.000 A 
HETATM   21  C26 UNL     1       6.945  36.096  19.140  1.00  0.00     0.002 A 
HETATM   22  C25 UNL     1       8.194  36.514  18.665  1.00  0.00     0.023 A 
ENDBRANCH  15  17
ENDBRANCH  14  15
ENDBRANCH  13  14
ENDBRANCH  12  13
BRANCH  12  23
HETATM   23  N7  UNL     1      13.557  35.466  19.680  1.00  0.00    -0.276 N 
HETATM   24  C21 UNL     1      13.381  34.651  20.771  1.00  0.00     0.116 A 
HETATM   25  C22 UNL     1      13.533  35.410  21.910  1.00  0.00     0.021 A 
HETATM   26  C23 UNL     1      13.802  36.735  21.496  1.00  0.00     0.021 A 
HETATM   27  C24 UNL     1      13.803  36.741  20.118  1.00  0.00     0.116 A 
ENDBRANCH  12  23
ENDBRANCH   1  12
BRANCH   9  28
HETATM   28  N5  UNL     1      16.033  38.788  14.504  1.00  0.00    -0.341 N 
HETATM   29  H11 UNL     1      15.456  38.746  13.672  1.00  0.00     0.167 HD
BRANCH  28  30
HETATM   30  C12 UNL     1      16.171  40.079  15.047  1.00  0.00     0.034 A 
HETATM   31  C13 UNL     1      15.538  40.352  16.270  1.00  0.00     0.032 A 
HETATM   32  C14 UNL     1      15.615  41.603  16.898  1.00  0.00     0.033 A 
HETATM   33  C15 UNL     1      16.357  42.595  16.259  1.00  0.00     0.042 A 
HETATM   34  N6  UNL     1      16.605  43.899  16.624  1.00  0.00    -0.365 N 
HETATM   35  C18 UNL     1      17.012  42.373  15.050  1.00  0.00    -0.006 A 
HETATM   36  C16 UNL     1      17.403  44.505  15.693  1.00  0.00     0.089 A 
HETATM   37  H14 UNL     1      16.251  44.334  17.464  1.00  0.00     0.165 HD
HETATM   38  C17 UNL     1      17.671  43.587  14.704  1.00  0.00     0.030 A 
HETATM   39  C19 UNL     1      16.917  41.102  14.446  1.00  0.00     0.043 A 
ENDBRANCH  28  30
ENDBRANCH   9  28
TORSDOF 8
ENDMDL
MODEL 7
REMARK minimizedAffinity -7.58901072
REMARK  8 active torsions:
REMARK  status: ('A' for Active; 'I' for Inactive)
REMARK    1  A    between atoms: C4_4  and  N1_5 
REMARK    2  A    between atoms: N1_5  and  C5_6 
REMARK    3  A    between atoms: C5_6  and  C6_7 
REMARK    4  A    between atoms: C6_7  and  N2_8 
REMARK    5  A    between atoms: N2_8  and  C7_9 
REMARK    6  A    between atoms: N2_8  and  N7_30 
REMARK    7  A    between atoms: C11_17  and  N5_18 
REMARK    8  A    between atoms: N5_18  and  C12_19 
ROOT
HETATM    1  C7  UNL     1      14.975  36.272  16.547  1.00  0.00     0.095 A 
HETATM    2  C8  UNL     1      16.014  35.571  15.953  1.00  0.00     0.069 A 
HETATM    3  C9  UNL     1      16.744  36.314  14.982  1.00  0.00     0.056 A 
HETATM    4  N3  UNL     1      17.812  35.853  14.289  1.00  0.00    -0.351 N 
ATOM      5  H3  UNL     1      18.181  34.908  14.398  1.00  0.00     0.166 HD
HETATM    6  C10 UNL     1      18.338  36.749  13.452  1.00  0.00     0.182 A 
HETATM    7  N4  UNL     1      17.925  38.006  13.238  1.00  0.00    -0.337 N 
ATOM      8  H4  UNL     1      18.414  38.602  12.570  1.00  0.00     0.168 HD
HETATM    9  C11 UNL     1      16.854  38.478  13.917  1.00  0.00     0.126 A 
HETATM   10  C20 UNL     1      16.240  37.595  14.821  1.00  0.00     0.077 A 
HETATM   11  S1  UNL     1      14.880  37.840  15.837  1.00  0.00    -0.065 SA
ENDROOT
BRANCH   1  12
HETATM   12  N2  UNL     1      14.127  35.808  17.528  1.00  0.00    -0.279 N 
BRANCH  12  13
HETATM   13  C6  UNL     1      12.707  36.207  17.620  1.00  0.00     0.165 C 
BRANCH  13  14
HETATM   14  C5  UNL     1      11.764  34.991  17.769  1.00  0.00     0.114 C 
BRANCH  14  15
HETATM   15  N1  UNL     1      10.405  35.348  17.359  1.00  0.00    -0.291 NA
HETATM   16  H4  UNL     1      10.041  34.687  16.672  1.00  0.00     0.127 HD
BRANCH  15  17
HETATM   17  C4  UNL     1       9.454  35.633  18.348  1.00  0.00     0.008 A 
HETATM   18  C3  UNL     1       8.223  36.245  18.087  1.00  0.00     0.023 A 
HETATM   19  C2  UNL     1       7.279  36.441  19.103  1.00  0.00     0.002 A 
HETATM   20  C1  UNL     1       7.541  35.995  20.394  1.00  0.00     0.000 A 
HETATM   21  C26 UNL     1       8.739  35.344  20.666  1.00  0.00     0.002 A 
HETATM   22  C25 UNL     1       9.679  35.154  19.646  1.00  0.00     0.023 A 
ENDBRANCH  15  17
ENDBRANCH  14  15
ENDBRANCH  13  14
ENDBRANCH  12  13
BRANCH  12  23
HETATM   23  N7  UNL     1      14.633  35.321  18.731  1.00  0.00    -0.276 N 
HETATM   24  C21 UNL     1      14.994  34.021  18.985  1.00  0.00     0.116 A 
HETATM   25  C22 UNL     1      15.449  33.941  20.282  1.00  0.00     0.021 A 
HETATM   26  C23 UNL     1      15.351  35.237  20.840  1.00  0.00     0.021 A 
HETATM   27  C24 UNL     1      14.839  36.065  19.864  1.00  0.00     0.116 A 
ENDBRANCH  12  23
ENDBRANCH   1  12
BRANCH   9  28
HETATM   28  N5  UNL     1      16.365  39.782  13.749  1.00  0.00    -0.341 N 
HETATM   29  H11 UNL     1      15.622  39.831  13.063  1.00  0.00     0.167 HD
BRANCH  28  30
HETATM   30  C12 UNL     1      16.710  41.022  14.318  1.00  0.00     0.034 A 
HETATM   31  C13 UNL     1      17.094  42.061  13.456  1.00  0.00     0.032 A 
HETATM   32  C14 UNL     1      17.454  43.334  13.919  1.00  0.00     0.033 A 
HETATM   33  C15 UNL     1      17.418  43.547  15.297  1.00  0.00     0.042 A 
HETATM   34  N6  UNL     1      17.716  44.671  16.034  1.00  0.00    -0.365 N 
HETATM   35  C18 UNL     1      17.035  42.554  16.195  1.00  0.00    -0.006 A 
HETATM   36  C16 UNL     1      17.523  44.426  17.365  1.00  0.00     0.089 A 
HETATM   37  H14 UNL     1      18.023  45.548  15.639  1.00  0.00     0.165 HD
HETATM   38  C17 UNL     1      17.104  43.122  17.498  1.00  0.00     0.030 A 
HETATM   39  C19 UNL     1      16.676  41.284  15.695  1.00  0.00     0.043 A 
ENDBRANCH  28  30
ENDBRANCH   9  28
TORSDOF 8
ENDMDL
MODEL 8
REMARK minimizedAffinity -7.55980015
REMARK  8 active torsions:
REMARK  status: ('A' for Active; 'I' for Inactive)
REMARK    1  A    between atoms: C4_4  and  N1_5 
REMARK    2  A    between atoms: N1_5  and  C5_6 
REMARK    3  A    between atoms: C5_6  and  C6_7 
REMARK    4  A    between atoms: C6_7  and  N2_8 
REMARK    5  A    between atoms: N2_8  and  C7_9 
REMARK    6  A    between atoms: N2_8  and  N7_30 
REMARK    7  A    between atoms: C11_17  and  N5_18 
REMARK    8  A    between atoms: N5_18  and  C12_19 
ROOT
HETATM    1  C7  UNL     1      14.166  35.985  19.120  1.00  0.00     0.095 A 
HETATM    2  C8  UNL     1      14.354  37.347  18.938  1.00  0.00     0.069 A 
HETATM    3  C9  UNL     1      14.706  37.719  17.610  1.00  0.00     0.056 A 
HETATM    4  N3  UNL     1      14.915  38.988  17.185  1.00  0.00    -0.351 N 
ATOM      5  H3  UNL     1      14.851  39.799  17.800  1.00  0.00     0.166 HD
HETATM    6  C10 UNL     1      15.212  39.079  15.888  1.00  0.00     0.182 A 
HETATM    7  N4  UNL     1      15.322  38.077  15.004  1.00  0.00    -0.337 N 
ATOM      8  H4  UNL     1      15.553  38.273  14.030  1.00  0.00     0.168 HD
HETATM    9  C11 UNL     1      15.124  36.804  15.415  1.00  0.00     0.126 A 
HETATM   10  C20 UNL     1      14.807  36.620  16.772  1.00  0.00     0.077 A 
HETATM   11  S1  UNL     1      14.496  35.171  17.636  1.00  0.00    -0.065 SA
ENDROOT
BRANCH   1  12
HETATM   12  N2  UNL     1      13.801  35.355  20.289  1.00  0.00    -0.279 N 
BRANCH  12  13
HETATM   13  C6  UNL     1      12.955  34.144  20.321  1.00  0.00     0.165 C 
BRANCH  13  14
HETATM   14  C5  UNL     1      11.673  34.301  19.471  1.00  0.00     0.114 C 
BRANCH  14  15
HETATM   15  N1  UNL     1      10.487  34.262  20.329  1.00  0.00    -0.291 NA
HETATM   16  H4  UNL     1      10.722  34.499  21.293  1.00  0.00     0.127 HD
BRANCH  15  17
HETATM   17  C4  UNL     1       9.326  34.924  19.907  1.00  0.00     0.008 A 
HETATM   18  C3  UNL     1       8.092  34.816  20.559  1.00  0.00     0.023 A 
HETATM   19  C2  UNL     1       6.981  35.558  20.137  1.00  0.00     0.002 A 
HETATM   20  C1  UNL     1       7.097  36.445  19.073  1.00  0.00     0.000 A 
HETATM   21  C26 UNL     1       8.326  36.602  18.440  1.00  0.00     0.002 A 
HETATM   22  C25 UNL     1       9.431  35.856  18.865  1.00  0.00     0.023 A 
ENDBRANCH  15  17
ENDBRANCH  14  15
ENDBRANCH  13  14
ENDBRANCH  12  13
BRANCH  12  23
HETATM   23  N7  UNL     1      13.804  36.046  21.499  1.00  0.00    -0.276 N 
HETATM   24  C21 UNL     1      14.875  36.176  22.348  1.00  0.00     0.116 A 
HETATM   25  C22 UNL     1      14.482  36.931  23.431  1.00  0.00     0.021 A 
HETATM   26  C23 UNL     1      13.122  37.264  23.237  1.00  0.00     0.021 A 
HETATM   27  C24 UNL     1      12.728  36.699  22.042  1.00  0.00     0.116 A 
ENDBRANCH  12  23
ENDBRANCH   1  12
BRANCH   9  28
HETATM   28  N5  UNL     1      15.219  35.704  14.550  1.00  0.00    -0.341 N 
HETATM   29  H11 UNL     1      14.316  35.288  14.353  1.00  0.00     0.167 HD
BRANCH  28  30
HETATM   30  C12 UNL     1      16.302  35.057  13.926  1.00  0.00     0.034 A 
HETATM   31  C13 UNL     1      16.122  34.576  12.620  1.00  0.00     0.032 A 
HETATM   32  C14 UNL     1      17.136  33.920  11.908  1.00  0.00     0.033 A 
HETATM   33  C15 UNL     1      18.363  33.754  12.550  1.00  0.00     0.042 A 
HETATM   34  N6  UNL     1      19.523  33.157  12.115  1.00  0.00    -0.365 N 
HETATM   35  C18 UNL     1      18.597  34.221  13.841  1.00  0.00    -0.006 A 
HETATM   36  C16 UNL     1      20.487  33.240  13.081  1.00  0.00     0.089 A 
HETATM   37  H14 UNL     1      19.640  32.729  11.207  1.00  0.00     0.165 HD
HETATM   38  C17 UNL     1      19.944  33.891  14.164  1.00  0.00     0.030 A 
HETATM   39  C19 UNL     1      17.556  34.880  14.528  1.00  0.00     0.043 A 
ENDBRANCH  28  30
ENDBRANCH   9  28
TORSDOF 8
ENDMDL
MODEL 9
REMARK minimizedAffinity -7.50140285
REMARK  8 active torsions:
REMARK  status: ('A' for Active; 'I' for Inactive)
REMARK    1  A    between atoms: C4_4  and  N1_5 
REMARK    2  A    between atoms: N1_5  and  C5_6 
REMARK    3  A    between atoms: C5_6  and  C6_7 
REMARK    4  A    between atoms: C6_7  and  N2_8 
REMARK    5  A    between atoms: N2_8  and  C7_9 
REMARK    6  A    between atoms: N2_8  and  N7_30 
REMARK    7  A    between atoms: C11_17  and  N5_18 
REMARK    8  A    between atoms: N5_18  and  C12_19 
ROOT
HETATM    1  C7  UNL     1      15.495  35.546  17.213  1.00  0.00     0.095 A 
HETATM    2  C8  UNL     1      16.398  34.533  16.927  1.00  0.00     0.069 A 
HETATM    3  C9  UNL     1      17.121  34.716  15.714  1.00  0.00     0.056 A 
HETATM    4  N3  UNL     1      18.070  33.876  15.238  1.00  0.00    -0.351 N 
ATOM      5  H3  UNL     1      18.341  33.014  15.713  1.00  0.00     0.166 HD
HETATM    6  C10 UNL     1      18.619  34.278  14.091  1.00  0.00     0.182 A 
HETATM    7  N4  UNL     1      18.330  35.386  13.392  1.00  0.00    -0.337 N 
ATOM      8  H4  UNL     1      18.823  35.590  12.524  1.00  0.00     0.168 HD
HETATM    9  C11 UNL     1      17.378  36.230  13.851  1.00  0.00     0.126 A 
HETATM   10  C20 UNL     1      16.748  35.877  15.057  1.00  0.00     0.077 A 
HETATM   11  S1  UNL     1      15.513  36.692  15.925  1.00  0.00    -0.065 SA
ENDROOT
BRANCH   1  12
HETATM   12  N2  UNL     1      14.687  35.636  18.324  1.00  0.00    -0.279 N 
BRANCH  12  13
HETATM   13  C6  UNL     1      13.247  35.963  18.249  1.00  0.00     0.165 C 
BRANCH  13  14
HETATM   14  C5  UNL     1      12.361  34.697  18.186  1.00  0.00     0.114 C 
BRANCH  14  15
HETATM   15  N1  UNL     1      11.100  34.993  17.504  1.00  0.00    -0.291 NA
HETATM   16  H4  UNL     1      10.839  34.238  16.869  1.00  0.00     0.127 HD
BRANCH  15  17
HETATM   17  C4  UNL     1      10.005  35.424  18.264  1.00  0.00     0.008 A 
HETATM   18  C3  UNL     1       8.952  36.185  17.745  1.00  0.00     0.023 A 
HETATM   19  C2  UNL     1       7.845  36.526  18.532  1.00  0.00     0.002 A 
HETATM   20  C1  UNL     1       7.760  36.082  19.848  1.00  0.00     0.000 A 
HETATM   21  C26 UNL     1       8.774  35.286  20.370  1.00  0.00     0.002 A 
HETATM   22  C25 UNL     1       9.879  34.951  19.578  1.00  0.00     0.023 A 
ENDBRANCH  15  17
ENDBRANCH  14  15
ENDBRANCH  13  14
ENDBRANCH  12  13
BRANCH  12  23
HETATM   23  N7  UNL     1      15.234  35.881  19.582  1.00  0.00    -0.276 N 
HETATM   24  C21 UNL     1      15.788  34.941  20.415  1.00  0.00     0.116 A 
HETATM   25  C22 UNL     1      16.218  35.575  21.560  1.00  0.00     0.021 A 
HETATM   26  C23 UNL     1      15.906  36.947  21.421  1.00  0.00     0.021 A 
HETATM   27  C24 UNL     1      15.293  37.105  20.196  1.00  0.00     0.116 A 
ENDBRANCH  12  23
ENDBRANCH   1  12
BRANCH   9  28
HETATM   28  N5  UNL     1      17.022  37.408  13.178  1.00  0.00    -0.341 N 
HETATM   29  H11 UNL     1      16.389  37.237  12.406  1.00  0.00     0.167 HD
BRANCH  28  30
HETATM   30  C12 UNL     1      17.380  38.759  13.344  1.00  0.00     0.034 A 
HETATM   31  C13 UNL     1      16.364  39.725  13.281  1.00  0.00     0.032 A 
HETATM   32  C14 UNL     1      16.612  41.096  13.435  1.00  0.00     0.033 A 
HETATM   33  C15 UNL     1      17.932  41.485  13.659  1.00  0.00     0.042 A 
HETATM   34  N6  UNL     1      18.475  42.737  13.841  1.00  0.00    -0.365 N 
HETATM   35  C18 UNL     1      18.976  40.567  13.740  1.00  0.00    -0.006 A 
HETATM   36  C16 UNL     1      19.824  42.641  14.045  1.00  0.00     0.089 A 
HETATM   37  H14 UNL     1      17.944  43.596  13.832  1.00  0.00     0.165 HD
HETATM   38  C17 UNL     1      20.166  41.310  13.985  1.00  0.00     0.030 A 
HETATM   39  C19 UNL     1      18.691  39.194  13.583  1.00  0.00     0.043 A 
ENDBRANCH  28  30
ENDBRANCH   9  28
TORSDOF 8
ENDMDL
