MODEL 1
REMARK minimizedAffinity -6.34592247
REMARK CNNscore 0.442039728
REMARK CNNaffinity 5.830019
REMARK  1 active torsions:
REMARK  status: ('A' for Active; 'I' for Inactive)
REMARK    1  A    between atoms: C2_2  and  C3_3 
REMARK       I    between atoms: C3_3  and  N1_5 
ROOT
HETATM    1  C3  UNL     1      -9.647  17.678   6.322  1.00  0.00     0.247 C 
HETATM    2  O1  UNL     1     -10.182  17.073   7.252  1.00  0.00    -0.268 OA
HETATM    3  N1  UNL     1      -8.331  18.177   6.340  1.00  0.00    -0.315 N 
HETATM    4  C4  UNL     1      -7.652  18.675   5.129  1.00  0.00     0.132 C 
HETATM    5  C5  UNL     1      -7.306  17.567   4.123  1.00  0.00     0.020 C 
HETATM    6  C6  UNL     1      -6.967  18.167   2.755  1.00  0.00     0.002 C 
HETATM    7  C7  UNL     1      -6.824  17.123   1.640  1.00  0.00     0.002 C 
HETATM    8  C8  UNL     1      -5.664  16.141   1.810  1.00  0.00     0.020 C 
HETATM    9  C9  UNL     1      -4.288  16.802   1.683  1.00  0.00     0.128 C 
HETATM   10  N2  UNL     1      -3.412  16.446   2.788  1.00  0.00    -0.355 N 
HETATM   11  C10 UNL     1      -3.353  17.147   3.962  1.00  0.00     0.106 A 
HETATM   12  C11 UNL     1      -2.474  16.502   4.808  1.00  0.00     0.019 A 
HETATM   13  C12 UNL     1      -1.969  15.363   4.101  1.00  0.00     0.005 A 
HETATM   14  C13 UNL     1      -1.076  14.315   4.426  1.00  0.00     0.014 A 
HETATM   15  C14 UNL     1      -0.794  13.321   3.483  1.00  0.00     0.001 A 
HETATM   16  C15 UNL     1      -1.393  13.347   2.228  1.00  0.00     0.002 A 
HETATM   17  C16 UNL     1      -2.293  14.360   1.884  1.00  0.00     0.030 A 
HETATM   18  C17 UNL     1      -2.568  15.358   2.835  1.00  0.00     0.045 A 
HETATM   19  C18 UNL     1      -2.203  16.982   6.153  1.00  0.00     0.063 A 
HETATM   20  C19 UNL     1      -0.918  17.003   6.645  1.00  0.00     0.048 A 
HETATM   21  C20 UNL     1      -0.793  17.466   7.926  1.00  0.00     0.108 A 
HETATM   22  N3  UNL     1      -1.837  17.868   8.672  1.00  0.00    -0.202 N 
ATOM     23  H3  UNL     1      -1.708  18.199   9.628  1.00  0.00     0.183 HD
HETATM   24  C21 UNL     1      -3.059  17.817   8.110  1.00  0.00     0.683 A 
HETATM   25  N4  UNL     1      -3.274  17.401   6.859  1.00  0.00    -0.191 N 
ATOM     26  H4  UNL     1      -4.211  17.401   6.454  1.00  0.00     0.184 HD
HETATM   27  N5  UNL     1      -4.091  18.208   8.956  1.00  0.00    -0.192 N 
HETATM   28  C22 UNL     1      -5.483  18.299   8.844  1.00  0.00     0.051 A 
HETATM   29  C23 UNL     1      -6.214  18.519  10.021  1.00  0.00     0.030 A 
HETATM   30  C24 UNL     1      -7.602  18.599  10.001  1.00  0.00     0.004 A 
HETATM   31  C25 UNL     1      -8.286  18.467   8.794  1.00  0.00     0.030 A 
HETATM   32  C26 UNL     1      -7.602  18.251   7.589  1.00  0.00     0.039 A 
HETATM   33  C27 UNL     1      -6.195  18.162   7.640  1.00  0.00     0.059 A 
HETATM   34  H23 UNL     1      -3.694  18.406   9.863  1.00  0.00     0.184 HD
ENDROOT
BRANCH   1  35
HETATM   35  C2  UNL     1     -10.444  17.878   5.070  1.00  0.00     0.064 C 
HETATM   36  C1  UNL     1     -10.920  16.822   4.393  1.00  0.00     0.017 C 
ENDBRANCH   1  35
TORSDOF 1
ENDMDL
MODEL 2
REMARK minimizedAffinity -10.751461
REMARK CNNscore 0.344748795
REMARK CNNaffinity 7.4629035
REMARK  1 active torsions:
REMARK  status: ('A' for Active; 'I' for Inactive)
REMARK    1  A    between atoms: C2_2  and  C3_3 
REMARK       I    between atoms: C3_3  and  N1_5 
ROOT
HETATM    1  C3  UNL     1      -8.089   6.306  13.795  1.00  0.00     0.247 C 
HETATM    2  O1  UNL     1      -8.942   6.178  12.915  1.00  0.00    -0.268 OA
HETATM    3  N1  UNL     1      -6.947   5.496  13.931  1.00  0.00    -0.315 N 
HETATM    4  C4  UNL     1      -5.836   5.832  14.841  1.00  0.00     0.132 C 
HETATM    5  C5  UNL     1      -5.019   7.049  14.384  1.00  0.00     0.020 C 
HETATM    6  C6  UNL     1      -4.149   7.577  15.529  1.00  0.00     0.002 C 
HETATM    7  C7  UNL     1      -3.470   8.917  15.224  1.00  0.00     0.002 C 
HETATM    8  C8  UNL     1      -2.447   8.887  14.087  1.00  0.00     0.020 C 
HETATM    9  C9  UNL     1      -1.197   8.068  14.421  1.00  0.00     0.128 C 
HETATM   10  N2  UNL     1      -0.876   7.118  13.368  1.00  0.00    -0.355 N 
HETATM   11  C10 UNL     1      -1.380   5.846  13.319  1.00  0.00     0.106 A 
HETATM   12  C11 UNL     1      -0.925   5.244  12.163  1.00  0.00     0.019 A 
HETATM   13  C12 UNL     1      -0.095   6.199  11.490  1.00  0.00     0.005 A 
HETATM   14  C13 UNL     1       0.625   6.198  10.273  1.00  0.00     0.014 A 
HETATM   15  C14 UNL     1       1.350   7.331   9.890  1.00  0.00     0.001 A 
HETATM   16  C15 UNL     1       1.362   8.467  10.692  1.00  0.00     0.002 A 
HETATM   17  C16 UNL     1       0.647   8.504  11.893  1.00  0.00     0.030 A 
HETATM   18  C17 UNL     1      -0.075   7.360  12.273  1.00  0.00     0.045 A 
HETATM   19  C18 UNL     1      -1.301   3.889  11.798  1.00  0.00     0.063 A 
HETATM   20  C19 UNL     1      -0.366   3.013  11.295  1.00  0.00     0.048 A 
HETATM   21  C20 UNL     1      -0.844   1.770  10.979  1.00  0.00     0.108 A 
HETATM   22  N3  UNL     1      -2.131   1.412  11.131  1.00  0.00    -0.202 N 
ATOM     23  H3  UNL     1      -2.454   0.479  10.876  1.00  0.00     0.183 HD
HETATM   24  C21 UNL     1      -2.977   2.331  11.633  1.00  0.00     0.683 A 
HETATM   25  N4  UNL     1      -2.596   3.561  11.990  1.00  0.00    -0.191 N 
ATOM     26  H4  UNL     1      -3.258   4.225  12.393  1.00  0.00     0.184 HD
HETATM   27  N5  UNL     1      -4.297   1.902  11.720  1.00  0.00    -0.192 N 
HETATM   28  C22 UNL     1      -5.501   2.481  12.137  1.00  0.00     0.051 A 
HETATM   29  C23 UNL     1      -6.686   1.788  11.849  1.00  0.00     0.030 A 
HETATM   30  C24 UNL     1      -7.926   2.304  12.208  1.00  0.00     0.004 A 
HETATM   31  C25 UNL     1      -8.001   3.527  12.872  1.00  0.00     0.030 A 
HETATM   32  C26 UNL     1      -6.847   4.257  13.188  1.00  0.00     0.039 A 
HETATM   33  C27 UNL     1      -5.602   3.715  12.802  1.00  0.00     0.059 A 
HETATM   34  H23 UNL     1      -4.351   0.974  11.327  1.00  0.00     0.184 HD
ENDROOT
BRANCH   1  35
HETATM   35  C2  UNL     1      -8.267   7.421  14.780  1.00  0.00     0.064 C 
HETATM   36  C1  UNL     1      -8.933   7.215  15.926  1.00  0.00     0.017 C 
ENDBRANCH   1  35
TORSDOF 1
ENDMDL
MODEL 3
REMARK minimizedAffinity -6.29989958
REMARK CNNscore 0.172117874
REMARK CNNaffinity 5.531775
REMARK  1 active torsions:
REMARK  status: ('A' for Active; 'I' for Inactive)
REMARK    1  A    between atoms: C2_2  and  C3_3 
REMARK       I    between atoms: C3_3  and  N1_5 
ROOT
HETATM    1  C3  UNL     1       2.162  19.049  22.806  1.00  0.00     0.247 C 
HETATM    2  O1  UNL     1       2.101  19.533  23.938  1.00  0.00    -0.268 OA
HETATM    3  N1  UNL     1       3.215  18.244  22.332  1.00  0.00    -0.315 N 
HETATM    4  C4  UNL     1       3.133  17.492  21.067  1.00  0.00     0.132 C 
HETATM    5  C5  UNL     1       2.147  16.316  21.117  1.00  0.00     0.020 C 
HETATM    6  C6  UNL     1       1.819  15.824  19.703  1.00  0.00     0.002 C 
HETATM    7  C7  UNL     1       0.679  14.801  19.653  1.00  0.00     0.002 C 
HETATM    8  C8  UNL     1       0.963  13.471  20.353  1.00  0.00     0.020 C 
HETATM    9  C9  UNL     1       2.046  12.641  19.657  1.00  0.00     0.128 C 
HETATM   10  N2  UNL     1       3.060  12.182  20.592  1.00  0.00    -0.355 N 
HETATM   11  C10 UNL     1       4.180  12.903  20.907  1.00  0.00     0.106 A 
HETATM   12  C11 UNL     1       4.888  12.208  21.866  1.00  0.00     0.019 A 
HETATM   13  C12 UNL     1       4.163  11.001  22.132  1.00  0.00     0.005 A 
HETATM   14  C13 UNL     1       4.349   9.910  23.012  1.00  0.00     0.014 A 
HETATM   15  C14 UNL     1       3.422   8.863  23.032  1.00  0.00     0.001 A 
HETATM   16  C15 UNL     1       2.309   8.889  22.199  1.00  0.00     0.002 A 
HETATM   17  C16 UNL     1       2.088   9.962  21.330  1.00  0.00     0.030 A 
HETATM   18  C17 UNL     1       3.026  11.008  21.312  1.00  0.00     0.045 A 
HETATM   19  C18 UNL     1       6.124  12.718  22.436  1.00  0.00     0.063 A 
HETATM   20  C19 UNL     1       7.200  11.885  22.636  1.00  0.00     0.048 A 
HETATM   21  C20 UNL     1       8.302  12.480  23.188  1.00  0.00     0.108 A 
HETATM   22  N3  UNL     1       8.348  13.780  23.527  1.00  0.00    -0.202 N 
ATOM     23  H3  UNL     1       9.184  14.188  23.946  1.00  0.00     0.183 HD
HETATM   24  C21 UNL     1       7.250  14.523  23.294  1.00  0.00     0.683 A 
HETATM   25  N4  UNL     1       6.138  14.033  22.739  1.00  0.00    -0.191 N 
ATOM     26  H4  UNL     1       5.332  14.630  22.550  1.00  0.00     0.184 HD
HETATM   27  N5  UNL     1       7.358  15.845  23.710  1.00  0.00    -0.192 N 
HETATM   28  C22 UNL     1       6.509  16.957  23.707  1.00  0.00     0.051 A 
HETATM   29  C23 UNL     1       6.911  18.081  24.444  1.00  0.00     0.030 A 
HETATM   30  C24 UNL     1       6.115  19.219  24.512  1.00  0.00     0.004 A 
HETATM   31  C25 UNL     1       4.899  19.255  23.833  1.00  0.00     0.030 A 
HETATM   32  C26 UNL     1       4.453  18.160  23.078  1.00  0.00     0.039 A 
HETATM   33  C27 UNL     1       5.276  17.014  23.035  1.00  0.00     0.059 A 
HETATM   34  H23 UNL     1       8.254  15.958  24.162  1.00  0.00     0.184 HD
ENDROOT
BRANCH   1  35
HETATM   35  C2  UNL     1       1.023  19.318  21.871  1.00  0.00     0.064 C 
HETATM   36  C1  UNL     1      -0.226  19.443  22.343  1.00  0.00     0.017 C 
ENDBRANCH   1  35
TORSDOF 1
ENDMDL
MODEL 4
REMARK minimizedAffinity -6.78913212
REMARK CNNscore 0.122828163
REMARK CNNaffinity 4.96869516
REMARK  1 active torsions:
REMARK  status: ('A' for Active; 'I' for Inactive)
REMARK    1  A    between atoms: C2_2  and  C3_3 
REMARK       I    between atoms: C3_3  and  N1_5 
ROOT
HETATM    1  C3  UNL     1     -10.819  -6.515   0.498  1.00  0.00     0.247 C 
HETATM    2  O1  UNL     1     -10.537  -5.368   0.150  1.00  0.00    -0.268 OA
HETATM    3  N1  UNL     1     -10.223  -7.681  -0.017  1.00  0.00    -0.315 N 
HETATM    4  C4  UNL     1     -10.412  -9.009   0.596  1.00  0.00     0.132 C 
HETATM    5  C5  UNL     1      -9.720  -9.158   1.959  1.00  0.00     0.020 C 
HETATM    6  C6  UNL     1     -10.258 -10.382   2.707  1.00  0.00     0.002 C 
HETATM    7  C7  UNL     1      -9.781 -10.478   4.161  1.00  0.00     0.002 C 
HETATM    8  C8  UNL     1      -8.275 -10.678   4.342  1.00  0.00     0.020 C 
HETATM    9  C9  UNL     1      -7.783 -12.042   3.850  1.00  0.00     0.128 C 
HETATM   10  N2  UNL     1      -6.629 -11.917   2.974  1.00  0.00    -0.355 N 
HETATM   11  C10 UNL     1      -6.723 -11.752   1.619  1.00  0.00     0.106 A 
HETATM   12  C11 UNL     1      -5.448 -11.604   1.111  1.00  0.00     0.019 A 
HETATM   13  C12 UNL     1      -4.541 -11.699   2.216  1.00  0.00     0.005 A 
HETATM   14  C13 UNL     1      -3.137 -11.604   2.353  1.00  0.00     0.014 A 
HETATM   15  C14 UNL     1      -2.547 -11.737   3.614  1.00  0.00     0.001 A 
HETATM   16  C15 UNL     1      -3.332 -11.953   4.741  1.00  0.00     0.002 A 
HETATM   17  C16 UNL     1      -4.724 -12.035   4.641  1.00  0.00     0.030 A 
HETATM   18  C17 UNL     1      -5.309 -11.904   3.370  1.00  0.00     0.045 A 
HETATM   19  C18 UNL     1      -5.200 -11.384  -0.304  1.00  0.00     0.063 A 
HETATM   20  C19 UNL     1      -4.178 -12.042  -0.948  1.00  0.00     0.048 A 
HETATM   21  C20 UNL     1      -4.040 -11.744  -2.277  1.00  0.00     0.108 A 
HETATM   22  N3  UNL     1      -4.827 -10.867  -2.923  1.00  0.00    -0.202 N 
ATOM     23  H3  UNL     1      -4.688 -10.661  -3.913  1.00  0.00     0.183 HD
HETATM   24  C21 UNL     1      -5.805 -10.270  -2.216  1.00  0.00     0.683 A 
HETATM   25  N4  UNL     1      -6.029 -10.516  -0.923  1.00  0.00    -0.191 N 
ATOM     26  H4  UNL     1      -6.797 -10.067  -0.422  1.00  0.00     0.184 HD
HETATM   27  N5  UNL     1      -6.548  -9.346  -2.942  1.00  0.00    -0.192 N 
HETATM   28  C22 UNL     1      -7.614  -8.486  -2.652  1.00  0.00     0.051 A 
HETATM   29  C23 UNL     1      -7.943  -7.517  -3.612  1.00  0.00     0.030 A 
HETATM   30  C24 UNL     1      -8.973  -6.608  -3.393  1.00  0.00     0.004 A 
HETATM   31  C25 UNL     1      -9.700  -6.659  -2.206  1.00  0.00     0.030 A 
HETATM   32  C26 UNL     1      -9.414  -7.610  -1.216  1.00  0.00     0.039 A 
HETATM   33  C27 UNL     1      -8.357  -8.513  -1.459  1.00  0.00     0.059 A 
HETATM   34  H23 UNL     1      -6.149  -9.279  -3.866  1.00  0.00     0.184 HD
ENDROOT
BRANCH   1  35
HETATM   35  C2  UNL     1     -11.857  -6.684   1.565  1.00  0.00     0.064 C 
HETATM   36  C1  UNL     1     -12.106  -5.692   2.432  1.00  0.00     0.017 C 
ENDBRANCH   1  35
TORSDOF 1
ENDMDL
MODEL 5
REMARK minimizedAffinity -6.78847361
REMARK CNNscore 0.121040419
REMARK CNNaffinity 4.73234558
REMARK  1 active torsions:
REMARK  status: ('A' for Active; 'I' for Inactive)
REMARK    1  A    between atoms: C2_2  and  C3_3 
REMARK       I    between atoms: C3_3  and  N1_5 
ROOT
HETATM    1  C3  UNL     1      13.068  -2.527   4.006  1.00  0.00     0.247 C 
HETATM    2  O1  UNL     1      12.497  -1.436   4.065  1.00  0.00    -0.268 OA
HETATM    3  N1  UNL     1      14.462  -2.708   4.067  1.00  0.00    -0.315 N 
HETATM    4  C4  UNL     1      15.085  -4.034   4.238  1.00  0.00     0.132 C 
HETATM    5  C5  UNL     1      14.864  -4.638   5.632  1.00  0.00     0.020 C 
HETATM    6  C6  UNL     1      15.186  -6.135   5.630  1.00  0.00     0.002 C 
HETATM    7  C7  UNL     1      14.783  -6.857   6.921  1.00  0.00     0.002 C 
HETATM    8  C8  UNL     1      15.532  -6.412   8.179  1.00  0.00     0.020 C 
HETATM    9  C9  UNL     1      17.017  -6.785   8.162  1.00  0.00     0.128 C 
HETATM   10  N2  UNL     1      17.864  -5.650   8.492  1.00  0.00    -0.355 N 
HETATM   11  C10 UNL     1      18.341  -4.767   7.561  1.00  0.00     0.106 A 
HETATM   12  C11 UNL     1      19.050  -3.783   8.221  1.00  0.00     0.019 A 
HETATM   13  C12 UNL     1      19.008  -4.099   9.617  1.00  0.00     0.005 A 
HETATM   14  C13 UNL     1      19.509  -3.479  10.786  1.00  0.00     0.014 A 
HETATM   15  C14 UNL     1      19.278  -4.059  12.037  1.00  0.00     0.001 A 
HETATM   16  C15 UNL     1      18.548  -5.238  12.146  1.00  0.00     0.002 A 
HETATM   17  C16 UNL     1      18.025  -5.864  11.011  1.00  0.00     0.030 A 
HETATM   18  C17 UNL     1      18.265  -5.279   9.757  1.00  0.00     0.045 A 
HETATM   19  C18 UNL     1      19.670  -2.673   7.516  1.00  0.00     0.063 A 
HETATM   20  C19 UNL     1      20.936  -2.251   7.848  1.00  0.00     0.048 A 
HETATM   21  C20 UNL     1      21.406  -1.191   7.121  1.00  0.00     0.108 A 
HETATM   22  N3  UNL     1      20.695  -0.585   6.154  1.00  0.00    -0.202 N 
ATOM     23  H3  UNL     1      21.073   0.209   5.638  1.00  0.00     0.183 HD
HETATM   24  C21 UNL     1      19.465  -1.066   5.892  1.00  0.00     0.683 A 
HETATM   25  N4  UNL     1      18.933  -2.110   6.535  1.00  0.00    -0.191 N 
ATOM     26  H4  UNL     1      18.009  -2.467   6.293  1.00  0.00     0.184 HD
HETATM   27  N5  UNL     1      18.776  -0.362   4.911  1.00  0.00    -0.192 N 
HETATM   28  C22 UNL     1      17.506  -0.458   4.330  1.00  0.00     0.051 A 
HETATM   29  C23 UNL     1      17.084   0.605   3.518  1.00  0.00     0.030 A 
HETATM   30  C24 UNL     1      15.827   0.599   2.922  1.00  0.00     0.004 A 
HETATM   31  C25 UNL     1      14.971  -0.481   3.123  1.00  0.00     0.030 A 
HETATM   32  C26 UNL     1      15.346  -1.571   3.922  1.00  0.00     0.039 A 
HETATM   33  C27 UNL     1      16.622  -1.533   4.524  1.00  0.00     0.059 A 
HETATM   34  H23 UNL     1      19.347   0.421   4.628  1.00  0.00     0.184 HD
ENDROOT
BRANCH   1  35
HETATM   35  C2  UNL     1      12.216  -3.753   3.886  1.00  0.00     0.064 C 
HETATM   36  C1  UNL     1      12.357  -4.576   2.836  1.00  0.00     0.017 C 
ENDBRANCH   1  35
TORSDOF 1
ENDMDL
MODEL 6
REMARK minimizedAffinity -7.10748148
REMARK CNNscore 0.0996710435
REMARK CNNaffinity 4.94229317
REMARK  1 active torsions:
REMARK  status: ('A' for Active; 'I' for Inactive)
REMARK    1  A    between atoms: C2_2  and  C3_3 
REMARK       I    between atoms: C3_3  and  N1_5 
ROOT
HETATM    1  C3  UNL     1     -10.944 -15.199  24.097  1.00  0.00     0.247 C 
HETATM    2  O1  UNL     1      -9.869 -15.689  24.445  1.00  0.00    -0.268 OA
HETATM    3  N1  UNL     1     -11.103 -13.904  23.570  1.00  0.00    -0.315 N 
HETATM    4  C4  UNL     1     -12.358 -13.448  22.944  1.00  0.00     0.132 C 
HETATM    5  C5  UNL     1     -12.648 -14.122  21.594  1.00  0.00     0.020 C 
HETATM    6  C6  UNL     1     -14.110 -13.911  21.188  1.00  0.00     0.002 C 
HETATM    7  C7  UNL     1     -14.537 -14.733  19.967  1.00  0.00     0.002 C 
HETATM    8  C8  UNL     1     -13.829 -14.376  18.658  1.00  0.00     0.020 C 
HETATM    9  C9  UNL     1     -14.191 -12.984  18.135  1.00  0.00     0.128 C 
HETATM   10  N2  UNL     1     -13.008 -12.207  17.799  1.00  0.00    -0.355 N 
HETATM   11  C10 UNL     1     -12.345 -11.414  18.696  1.00  0.00     0.106 A 
HETATM   12  C11 UNL     1     -11.240 -10.878  18.067  1.00  0.00     0.019 A 
HETATM   13  C12 UNL     1     -11.247 -11.364  16.719  1.00  0.00     0.005 A 
HETATM   14  C13 UNL     1     -10.388 -11.204  15.607  1.00  0.00     0.014 A 
HETATM   15  C14 UNL     1     -10.685 -11.842  14.398  1.00  0.00     0.001 A 
HETATM   16  C15 UNL     1     -11.815 -12.645  14.282  1.00  0.00     0.002 A 
HETATM   17  C16 UNL     1     -12.673 -12.836  15.368  1.00  0.00     0.030 A 
HETATM   18  C17 UNL     1     -12.372 -12.188  16.578  1.00  0.00     0.045 A 
HETATM   19  C18 UNL     1     -10.306 -10.004  18.756  1.00  0.00     0.063 A 
HETATM   20  C19 UNL     1      -9.817  -8.875  18.141  1.00  0.00     0.048 A 
HETATM   21  C20 UNL     1      -8.938  -8.139  18.888  1.00  0.00     0.108 A 
HETATM   22  N3  UNL     1      -8.558  -8.481  20.131  1.00  0.00    -0.202 N 
ATOM     23  H3  UNL     1      -7.892  -7.914  20.656  1.00  0.00     0.183 HD
HETATM   24  C21 UNL     1      -9.088  -9.601  20.658  1.00  0.00     0.683 A 
HETATM   25  N4  UNL     1      -9.970 -10.368  20.012  1.00  0.00    -0.191 N 
ATOM     26  H4  UNL     1     -10.374 -11.197  20.450  1.00  0.00     0.184 HD
HETATM   27  N5  UNL     1      -8.615  -9.912  21.927  1.00  0.00    -0.192 N 
HETATM   28  C22 UNL     1      -8.839 -10.947  22.842  1.00  0.00     0.051 A 
HETATM   29  C23 UNL     1      -7.977 -11.034  23.945  1.00  0.00     0.030 A 
HETATM   30  C24 UNL     1      -8.116 -12.047  24.889  1.00  0.00     0.004 A 
HETATM   31  C25 UNL     1      -9.130 -12.991  24.746  1.00  0.00     0.030 A 
HETATM   32  C26 UNL     1     -10.021 -12.947  23.664  1.00  0.00     0.039 A 
HETATM   33  C27 UNL     1      -9.850 -11.915  22.716  1.00  0.00     0.059 A 
HETATM   34  H23 UNL     1      -7.909  -9.233  22.174  1.00  0.00     0.184 HD
ENDROOT
BRANCH   1  35
HETATM   35  C2  UNL     1     -12.170 -16.050  24.221  1.00  0.00     0.064 C 
HETATM   36  C1  UNL     1     -12.990 -15.909  25.273  1.00  0.00     0.017 C 
ENDBRANCH   1  35
TORSDOF 1
ENDMDL
MODEL 7
REMARK minimizedAffinity -6.46068382
REMARK CNNscore 0.0898683295
REMARK CNNaffinity 4.59025383
REMARK  1 active torsions:
REMARK  status: ('A' for Active; 'I' for Inactive)
REMARK    1  A    between atoms: C2_2  and  C3_3 
REMARK       I    between atoms: C3_3  and  N1_5 
ROOT
HETATM    1  C3  UNL     1       8.000  15.610  19.085  1.00  0.00     0.247 C 
HETATM    2  O1  UNL     1       8.074  16.514  19.919  1.00  0.00    -0.268 OA
HETATM    3  N1  UNL     1       7.594  14.291  19.363  1.00  0.00    -0.315 N 
HETATM    4  C4  UNL     1       7.287  13.313  18.303  1.00  0.00     0.132 C 
HETATM    5  C5  UNL     1       5.999  13.634  17.530  1.00  0.00     0.020 C 
HETATM    6  C6  UNL     1       5.938  12.831  16.226  1.00  0.00     0.002 C 
HETATM    7  C7  UNL     1       4.797  13.253  15.293  1.00  0.00     0.002 C 
HETATM    8  C8  UNL     1       3.387  13.014  15.835  1.00  0.00     0.020 C 
HETATM    9  C9  UNL     1       3.035  11.530  15.970  1.00  0.00     0.128 C 
HETATM   10  N2  UNL     1       2.490  11.221  17.283  1.00  0.00    -0.355 N 
HETATM   11  C10 UNL     1       3.261  10.870  18.358  1.00  0.00     0.106 A 
HETATM   12  C11 UNL     1       2.434  10.711  19.451  1.00  0.00     0.019 A 
HETATM   13  C12 UNL     1       1.096  10.967  19.007  1.00  0.00     0.005 A 
HETATM   14  C13 UNL     1      -0.168  10.992  19.641  1.00  0.00     0.014 A 
HETATM   15  C14 UNL     1      -1.315  11.297  18.901  1.00  0.00     0.001 A 
HETATM   16  C15 UNL     1      -1.223  11.587  17.544  1.00  0.00     0.002 A 
HETATM   17  C16 UNL     1       0.014  11.587  16.893  1.00  0.00     0.030 A 
HETATM   18  C17 UNL     1       1.161  11.275  17.642  1.00  0.00     0.045 A 
HETATM   19  C18 UNL     1       2.948  10.359  20.764  1.00  0.00     0.063 A 
HETATM   20  C19 UNL     1       2.303   9.425  21.542  1.00  0.00     0.048 A 
HETATM   21  C20 UNL     1       2.878   9.188  22.762  1.00  0.00     0.108 A 
HETATM   22  N3  UNL     1       3.985   9.817  23.192  1.00  0.00    -0.202 N 
ATOM     23  H3  UNL     1       4.381   9.622  24.112  1.00  0.00     0.183 HD
HETATM   24  C21 UNL     1       4.553  10.713  22.364  1.00  0.00     0.683 A 
HETATM   25  N4  UNL     1       4.076  10.993  21.148  1.00  0.00    -0.191 N 
ATOM     26  H4  UNL     1       4.546  11.659  20.534  1.00  0.00     0.184 HD
HETATM   27  N5  UNL     1       5.667  11.352  22.895  1.00  0.00    -0.192 N 
HETATM   28  C22 UNL     1       6.549  12.342  22.447  1.00  0.00     0.051 A 
HETATM   29  C23 UNL     1       7.429  12.899  23.386  1.00  0.00     0.030 A 
HETATM   30  C24 UNL     1       8.322  13.904  23.028  1.00  0.00     0.004 A 
HETATM   31  C25 UNL     1       8.354  14.365  21.714  1.00  0.00     0.030 A 
HETATM   32  C26 UNL     1       7.500  13.838  20.735  1.00  0.00     0.039 A 
HETATM   33  C27 UNL     1       6.596  12.828  21.129  1.00  0.00     0.059 A 
HETATM   34  H23 UNL     1       5.789  11.032  23.845  1.00  0.00     0.184 HD
ENDROOT
BRANCH   1  35
HETATM   35  C2  UNL     1       8.345  15.941  17.666  1.00  0.00     0.064 C 
HETATM   36  C1  UNL     1       7.681  16.908  17.014  1.00  0.00     0.017 C 
ENDBRANCH   1  35
TORSDOF 1
ENDMDL
MODEL 8
REMARK minimizedAffinity -10.3048534
REMARK CNNscore 0.0888776854
REMARK CNNaffinity 6.02953291
REMARK  1 active torsions:
REMARK  status: ('A' for Active; 'I' for Inactive)
REMARK    1  A    between atoms: C2_2  and  C3_3 
REMARK       I    between atoms: C3_3  and  N1_5 
ROOT
HETATM    1  C3  UNL     1      -5.525   8.166  14.832  1.00  0.00     0.247 C 
HETATM    2  O1  UNL     1      -6.462   8.464  14.089  1.00  0.00    -0.268 OA
HETATM    3  N1  UNL     1      -4.784   6.973  14.751  1.00  0.00    -0.315 N 
HETATM    4  C4  UNL     1      -3.526   6.766  15.492  1.00  0.00     0.132 C 
HETATM    5  C5  UNL     1      -2.361   7.621  14.972  1.00  0.00     0.020 C 
HETATM    6  C6  UNL     1      -1.219   7.658  15.992  1.00  0.00     0.002 C 
HETATM    7  C7  UNL     1      -0.114   8.663  15.648  1.00  0.00     0.002 C 
HETATM    8  C8  UNL     1       0.666   8.364  14.366  1.00  0.00     0.020 C 
HETATM    9  C9  UNL     1       1.527   7.102  14.464  1.00  0.00     0.128 C 
HETATM   10  N2  UNL     1       1.317   6.215  13.331  1.00  0.00    -0.355 N 
HETATM   11  C10 UNL     1       0.354   5.242  13.300  1.00  0.00     0.106 A 
HETATM   12  C11 UNL     1       0.389   4.636  12.061  1.00  0.00     0.019 A 
HETATM   13  C12 UNL     1       1.436   5.267  11.313  1.00  0.00     0.005 A 
HETATM   14  C13 UNL     1       1.940   5.119  10.000  1.00  0.00     0.014 A 
HETATM   15  C14 UNL     1       2.997   5.924   9.563  1.00  0.00     0.001 A 
HETATM   16  C15 UNL     1       3.552   6.880  10.407  1.00  0.00     0.002 A 
HETATM   17  C16 UNL     1       3.064   7.062  11.704  1.00  0.00     0.030 A 
HETATM   18  C17 UNL     1       2.005   6.247  12.138  1.00  0.00     0.045 A 
HETATM   19  C18 UNL     1      -0.529   3.570  11.695  1.00  0.00     0.063 A 
HETATM   20  C19 UNL     1      -0.082   2.462  11.014  1.00  0.00     0.048 A 
HETATM   21  C20 UNL     1      -1.043   1.534  10.718  1.00  0.00     0.108 A 
HETATM   22  N3  UNL     1      -2.338   1.679  11.050  1.00  0.00    -0.202 N 
ATOM     23  H3  UNL     1      -3.029   0.970  10.804  1.00  0.00     0.183 HD
HETATM   24  C21 UNL     1      -2.687   2.793  11.719  1.00  0.00     0.683 A 
HETATM   25  N4  UNL     1      -1.815   3.741  12.071  1.00  0.00    -0.191 N 
ATOM     26  H4  UNL     1      -2.108   4.562  12.602  1.00  0.00     0.184 HD
HETATM   27  N5  UNL     1      -4.047   2.891  11.990  1.00  0.00    -0.192 N 
HETATM   28  C22 UNL     1      -4.867   3.838  12.615  1.00  0.00     0.051 A 
HETATM   29  C23 UNL     1      -6.255   3.681  12.482  1.00  0.00     0.030 A 
HETATM   30  C24 UNL     1      -7.139   4.590  13.052  1.00  0.00     0.004 A 
HETATM   31  C25 UNL     1      -6.647   5.673  13.777  1.00  0.00     0.030 A 
HETATM   32  C26 UNL     1      -5.269   5.873  13.944  1.00  0.00     0.039 A 
HETATM   33  C27 UNL     1      -4.394   4.942  13.345  1.00  0.00     0.059 A 
HETATM   34  H23 UNL     1      -4.509   2.099  11.567  1.00  0.00     0.184 HD
ENDROOT
BRANCH   1  35
HETATM   35  C2  UNL     1      -5.128   9.156  15.883  1.00  0.00     0.064 C 
HETATM   36  C1  UNL     1      -4.474  10.277  15.547  1.00  0.00     0.017 C 
ENDBRANCH   1  35
TORSDOF 1
ENDMDL
MODEL 9
REMARK minimizedAffinity -7.85401869
REMARK CNNscore 0.0802432969
REMARK CNNaffinity 4.79185295
REMARK  1 active torsions:
REMARK  status: ('A' for Active; 'I' for Inactive)
REMARK    1  A    between atoms: C2_2  and  C3_3 
REMARK       I    between atoms: C3_3  and  N1_5 
ROOT
HETATM    1  C3  UNL     1      -3.221 -10.496   3.957  1.00  0.00     0.247 C 
HETATM    2  O1  UNL     1      -2.797  -9.668   4.765  1.00  0.00    -0.268 OA
HETATM    3  N1  UNL     1      -4.580 -10.700   3.654  1.00  0.00    -0.315 N 
HETATM    4  C4  UNL     1      -5.027 -11.521   2.514  1.00  0.00     0.132 C 
HETATM    5  C5  UNL     1      -4.735 -10.882   1.148  1.00  0.00     0.020 C 
HETATM    6  C6  UNL     1      -4.860 -11.920   0.028  1.00  0.00     0.002 C 
HETATM    7  C7  UNL     1      -4.372 -11.419  -1.336  1.00  0.00     0.002 C 
HETATM    8  C8  UNL     1      -5.177 -10.264  -1.934  1.00  0.00     0.020 C 
HETATM    9  C9  UNL     1      -6.601 -10.661  -2.332  1.00  0.00     0.128 C 
HETATM   10  N2  UNL     1      -7.589  -9.733  -1.807  1.00  0.00    -0.355 N 
HETATM   11  C10 UNL     1      -8.173  -9.867  -0.576  1.00  0.00     0.106 A 
HETATM   12  C11 UNL     1      -9.006  -8.786  -0.372  1.00  0.00     0.019 A 
HETATM   13  C12 UNL     1      -8.928  -7.967  -1.545  1.00  0.00     0.005 A 
HETATM   14  C13 UNL     1      -9.510  -6.737  -1.932  1.00  0.00     0.014 A 
HETATM   15  C14 UNL     1      -9.210  -6.186  -3.182  1.00  0.00     0.001 A 
HETATM   16  C15 UNL     1      -8.334  -6.832  -4.047  1.00  0.00     0.002 A 
HETATM   17  C16 UNL     1      -7.730  -8.040  -3.686  1.00  0.00     0.030 A 
HETATM   18  C17 UNL     1      -8.040  -8.590  -2.431  1.00  0.00     0.045 A 
HETATM   19  C18 UNL     1      -9.762  -8.614   0.858  1.00  0.00     0.063 A 
HETATM   20  C19 UNL     1     -11.073  -8.201   0.823  1.00  0.00     0.048 A 
HETATM   21  C20 UNL     1     -11.673  -8.066   2.046  1.00  0.00     0.108 A 
HETATM   22  N3  UNL     1     -11.044  -8.305   3.209  1.00  0.00    -0.202 N 
ATOM     23  H3  UNL     1     -11.520  -8.185   4.103  1.00  0.00     0.183 HD
HETATM   24  C21 UNL     1      -9.761  -8.709   3.150  1.00  0.00     0.683 A 
HETATM   25  N4  UNL     1      -9.101  -8.890   2.003  1.00  0.00    -0.191 N 
ATOM     26  H4  UNL     1      -8.137  -9.223   1.992  1.00  0.00     0.184 HD
HETATM   27  N5  UNL     1      -9.165  -8.895   4.392  1.00  0.00    -0.192 N 
HETATM   28  C22 UNL     1      -7.892  -9.271   4.834  1.00  0.00     0.051 A 
HETATM   29  C23 UNL     1      -7.607  -9.115   6.198  1.00  0.00     0.030 A 
HETATM   30  C24 UNL     1      -6.358  -9.443   6.715  1.00  0.00     0.004 A 
HETATM   31  C25 UNL     1      -5.370  -9.943   5.871  1.00  0.00     0.030 A 
HETATM   32  C26 UNL     1      -5.604 -10.123   4.500  1.00  0.00     0.039 A 
HETATM   33  C27 UNL     1      -6.876  -9.771   4.001  1.00  0.00     0.059 A 
HETATM   34  H23 UNL     1      -9.832  -8.628   5.102  1.00  0.00     0.184 HD
ENDROOT
BRANCH   1  35
HETATM   35  C2  UNL     1      -2.217 -11.331   3.223  1.00  0.00     0.064 C 
HETATM   36  C1  UNL     1      -1.381 -10.767   2.339  1.00  0.00     0.017 C 
ENDBRANCH   1  35
TORSDOF 1
ENDMDL
