MODEL 1
REMARK minimizedAffinity -9.27159882
REMARK CNNscore 0.672989368
REMARK CNNaffinity 8.1622448
REMARK  8 active torsions:
REMARK  status: ('A' for Active; 'I' for Inactive)
REMARK    1  A    between atoms: N2_5  and  C4_6 
REMARK    2  A    between atoms: C7_9  and  N3_10 
REMARK    3  A    between atoms: N3_10  and  C8_11 
REMARK    4  A    between atoms: C11_18  and  N6_19 
REMARK    5  A    between atoms: N6_19  and  C12_20 
REMARK    6  A    between atoms: N7_26  and  C18_27 
REMARK    7  A    between atoms: N8_30  and  S1_31 
REMARK    8  A    between atoms: S1_31  and  C21_34 
ROOT
HETATM    1  C8  UNL     1       4.864  -4.982  29.280  1.00  0.00     0.684 A 
HETATM    2  N4  UNL     1       4.538  -3.945  30.079  1.00  0.00    -0.199 N 
ATOM      3  H4  UNL     1       3.611  -3.523  30.018  1.00  0.00     0.183 HD
HETATM    4  C9  UNL     1       5.446  -3.466  30.965  1.00  0.00     0.140 A 
HETATM    5  C10 UNL     1       6.698  -4.052  31.036  1.00  0.00     0.110 A 
HETATM    6  N5  UNL     1       7.794  -3.804  31.809  1.00  0.00    -0.186 N 
ATOM      7  H5  UNL     1       7.886  -3.083  32.525  1.00  0.00     0.184 HD
HETATM    8  C11 UNL     1       8.709  -4.681  31.448  1.00  0.00     0.687 A 
HETATM    9  N7  UNL     1       8.213  -5.507  30.440  1.00  0.00    -0.159 N 
HETATM   10  C25 UNL     1       6.927  -5.106  30.175  1.00  0.00     0.168 A 
HETATM   11  N9  UNL     1       6.057  -5.612  29.287  1.00  0.00    -0.173 N 
ATOM     12  H9  UNL     1       6.277  -6.399  28.675  1.00  0.00     0.186 HD
ENDROOT
BRANCH   1  13
HETATM   13  N3  UNL     1       3.956  -5.490  28.353  1.00  0.00    -0.192 N 
HETATM   14  H10 UNL     1       3.552  -4.728  27.832  1.00  0.00     0.184 HD
BRANCH  13  15
HETATM   15  C7  UNL     1       3.485  -6.772  28.054  1.00  0.00     0.049 A 
HETATM   16  C6  UNL     1       4.292  -7.829  27.640  1.00  0.00     0.032 A 
HETATM   17  C5  UNL     1       3.750  -9.095  27.358  1.00  0.00     0.031 A 
HETATM   18  C4  UNL     1       2.380  -9.369  27.475  1.00  0.00     0.030 A 
HETATM   19  C27 UNL     1       1.577  -8.297  27.882  1.00  0.00     0.031 A 
HETATM   20  C26 UNL     1       2.114  -7.030  28.167  1.00  0.00     0.032 A 
BRANCH  18  21
HETATM   21  N2  UNL     1       1.859 -10.620  27.198  1.00  0.00    -0.378 N 
HETATM   22  C3  UNL     1       0.435 -10.800  26.865  1.00  0.00     0.153 C 
HETATM   23  C2  UNL     1       0.221 -12.027  25.947  1.00  0.00     0.291 C 
HETATM   24  N1  UNL     1       0.755 -13.310  26.449  1.00  0.00     0.087 N 
HETATM   25  C1  UNL     1      -0.286 -14.123  27.075  1.00  0.00     0.310 C 
HETATM   26  C29 UNL     1       1.877 -13.094  27.388  1.00  0.00     0.291 C 
HETATM   27  C28 UNL     1       2.707 -11.820  27.105  1.00  0.00     0.153 C 
ENDBRANCH  18  21
ENDBRANCH  13  15
ENDBRANCH   1  13
BRANCH   9  28
HETATM   28  C18 UNL     1       8.931  -6.606  29.838  1.00  0.00     0.130 C 
HETATM   29  C19 UNL     1       9.917  -6.340  28.698  1.00  0.00     0.048 C 
HETATM   30  C20 UNL     1      10.181  -7.738  28.143  1.00  0.00     0.137 C 
HETATM   31  N8  UNL     1       8.930  -8.483  28.407  1.00  0.00    -0.308 N 
HETATM   32  C24 UNL     1       8.003  -7.635  29.185  1.00  0.00     0.161 C 
BRANCH  31  33
HETATM   33  S1  UNL     1       8.297  -9.473  27.202  1.00  0.00     0.232 S 
HETATM   34  O1  UNL     1       9.394 -10.239  26.656  1.00  0.00    -0.205 OA
HETATM   35  O2  UNL     1       7.125 -10.118  27.754  1.00  0.00    -0.205 OA
BRANCH  33  36
HETATM   36  C21 UNL     1       7.755  -8.375  25.854  1.00  0.00     0.129 A 
HETATM   37  C22 UNL     1       7.480  -6.961  26.294  1.00  0.00     0.023 A 
HETATM   38  C23 UNL     1       8.709  -7.273  25.482  1.00  0.00     0.023 A 
ENDBRANCH  33  36
ENDBRANCH  31  33
ENDBRANCH   9  28
BRANCH   8  39
HETATM   39  N6  UNL     1       9.965  -4.843  31.934  1.00  0.00    -0.191 N 
HETATM   40  H12 UNL     1      10.578  -5.555  31.558  1.00  0.00     0.184 HD
BRANCH  39  41
HETATM   41  C12 UNL     1      10.629  -4.080  32.925  1.00  0.00     0.049 A 
HETATM   42  C13 UNL     1      10.587  -4.357  34.296  1.00  0.00     0.030 A 
HETATM   43  C14 UNL     1      11.281  -3.564  35.219  1.00  0.00     0.002 A 
HETATM   44  C15 UNL     1      12.035  -2.479  34.784  1.00  0.00     0.000 A 
HETATM   45  C16 UNL     1      12.097  -2.187  33.426  1.00  0.00     0.002 A 
HETATM   46  C17 UNL     1      11.403  -2.981  32.508  1.00  0.00     0.030 A 
ENDBRANCH  39  41
ENDBRANCH   8  39
TORSDOF 8
ENDMDL
MODEL 2
REMARK minimizedAffinity -9.18948174
REMARK CNNscore 0.631477356
REMARK CNNaffinity 8.15739155
REMARK  8 active torsions:
REMARK  status: ('A' for Active; 'I' for Inactive)
REMARK    1  A    between atoms: N2_5  and  C4_6 
REMARK    2  A    between atoms: C7_9  and  N3_10 
REMARK    3  A    between atoms: N3_10  and  C8_11 
REMARK    4  A    between atoms: C11_18  and  N6_19 
REMARK    5  A    between atoms: N6_19  and  C12_20 
REMARK    6  A    between atoms: N7_26  and  C18_27 
REMARK    7  A    between atoms: N8_30  and  S1_31 
REMARK    8  A    between atoms: S1_31  and  C21_34 
ROOT
HETATM    1  C8  UNL     1       4.463  -5.323  29.073  1.00  0.00     0.684 A 
HETATM    2  N4  UNL     1       4.086  -4.545  30.109  1.00  0.00    -0.199 N 
ATOM      3  H4  UNL     1       3.101  -4.326  30.252  1.00  0.00     0.183 HD
HETATM    4  C9  UNL     1       5.022  -4.055  30.960  1.00  0.00     0.140 A 
HETATM    5  C10 UNL     1       6.355  -4.364  30.751  1.00  0.00     0.110 A 
HETATM    6  N5  UNL     1       7.497  -4.036  31.420  1.00  0.00    -0.186 N 
ATOM      7  H5  UNL     1       7.570  -3.456  32.257  1.00  0.00     0.184 HD
HETATM    8  C11 UNL     1       8.488  -4.615  30.772  1.00  0.00     0.687 A 
HETATM    9  N7  UNL     1       7.995  -5.327  29.678  1.00  0.00    -0.159 N 
HETATM   10  C25 UNL     1       6.631  -5.167  29.664  1.00  0.00     0.168 A 
HETATM   11  N9  UNL     1       5.737  -5.674  28.800  1.00  0.00    -0.173 N 
ATOM     12  H9  UNL     1       5.996  -6.269  28.013  1.00  0.00     0.186 HD
ENDROOT
BRANCH   1  13
HETATM   13  N3  UNL     1       3.526  -5.832  28.176  1.00  0.00    -0.192 N 
HETATM   14  H10 UNL     1       3.113  -5.072  27.660  1.00  0.00     0.184 HD
BRANCH  13  15
HETATM   15  C7  UNL     1       3.039  -7.113  27.903  1.00  0.00     0.049 A 
HETATM   16  C6  UNL     1       1.702  -7.486  28.014  1.00  0.00     0.032 A 
HETATM   17  C5  UNL     1       1.281  -8.795  27.720  1.00  0.00     0.031 A 
HETATM   18  C4  UNL     1       2.171  -9.794  27.302  1.00  0.00     0.030 A 
HETATM   19  C27 UNL     1       3.514  -9.412  27.203  1.00  0.00     0.031 A 
HETATM   20  C26 UNL     1       3.939  -8.104  27.495  1.00  0.00     0.032 A 
BRANCH  18  21
HETATM   21  N2  UNL     1       1.745 -11.078  27.013  1.00  0.00    -0.378 N 
HETATM   22  C3  UNL     1       0.376 -11.343  26.537  1.00  0.00     0.153 C 
HETATM   23  C2  UNL     1       0.324 -12.605  25.643  1.00  0.00     0.291 C 
HETATM   24  N1  UNL     1       0.864 -13.843  26.243  1.00  0.00     0.087 N 
HETATM   25  C1  UNL     1      -0.196 -14.693  26.782  1.00  0.00     0.310 C 
HETATM   26  C29 UNL     1       1.867 -13.541  27.288  1.00  0.00     0.291 C 
HETATM   27  C28 UNL     1       2.657 -12.233  27.051  1.00  0.00     0.153 C 
ENDBRANCH  18  21
ENDBRANCH  13  15
ENDBRANCH   1  13
BRANCH   9  28
HETATM   28  C18 UNL     1       8.796  -6.118  28.773  1.00  0.00     0.130 C 
HETATM   29  C19 UNL     1       9.690  -5.425  27.742  1.00  0.00     0.048 C 
HETATM   30  C20 UNL     1      10.074  -6.566  26.804  1.00  0.00     0.137 C 
HETATM   31  N8  UNL     1       8.925  -7.496  26.861  1.00  0.00    -0.308 N 
HETATM   32  C24 UNL     1       7.952  -7.018  27.866  1.00  0.00     0.161 C 
BRANCH  31  33
HETATM   33  S1  UNL     1       8.343  -8.168  25.432  1.00  0.00     0.232 S 
HETATM   34  O1  UNL     1       7.017  -7.633  25.216  1.00  0.00    -0.205 OA
HETATM   35  O2  UNL     1       9.386  -8.027  24.440  1.00  0.00    -0.205 OA
BRANCH  33  36
HETATM   36  C21 UNL     1       8.102  -9.945  25.749  1.00  0.00     0.129 A 
HETATM   37  C22 UNL     1       8.945 -10.481  26.876  1.00  0.00     0.023 A 
HETATM   38  C23 UNL     1       7.463 -10.296  27.065  1.00  0.00     0.023 A 
ENDBRANCH  33  36
ENDBRANCH  31  33
ENDBRANCH   9  28
BRANCH   8  39
HETATM   39  N6  UNL     1       9.814  -4.594  31.056  1.00  0.00    -0.191 N 
HETATM   40  H12 UNL     1      10.480  -5.059  30.453  1.00  0.00     0.184 HD
BRANCH  39  41
HETATM   41  C12 UNL     1      10.475  -3.925  32.115  1.00  0.00     0.049 A 
HETATM   42  C13 UNL     1      10.521  -4.387  33.434  1.00  0.00     0.030 A 
HETATM   43  C14 UNL     1      11.207  -3.678  34.429  1.00  0.00     0.002 A 
HETATM   44  C15 UNL     1      11.863  -2.491  34.118  1.00  0.00     0.000 A 
HETATM   45  C16 UNL     1      11.836  -2.014  32.812  1.00  0.00     0.002 A 
HETATM   46  C17 UNL     1      11.151  -2.726  31.822  1.00  0.00     0.030 A 
ENDBRANCH  39  41
ENDBRANCH   8  39
TORSDOF 8
ENDMDL
MODEL 3
REMARK minimizedAffinity -8.98624516
REMARK CNNscore 0.553289175
REMARK CNNaffinity 8.26044178
REMARK  8 active torsions:
REMARK  status: ('A' for Active; 'I' for Inactive)
REMARK    1  A    between atoms: N2_5  and  C4_6 
REMARK    2  A    between atoms: C7_9  and  N3_10 
REMARK    3  A    between atoms: N3_10  and  C8_11 
REMARK    4  A    between atoms: C11_18  and  N6_19 
REMARK    5  A    between atoms: N6_19  and  C12_20 
REMARK    6  A    between atoms: N7_26  and  C18_27 
REMARK    7  A    between atoms: N8_30  and  S1_31 
REMARK    8  A    between atoms: S1_31  and  C21_34 
ROOT
HETATM    1  C8  UNL     1       5.011  -6.102  28.830  1.00  0.00     0.684 A 
HETATM    2  N4  UNL     1       4.155  -5.360  29.562  1.00  0.00    -0.199 N 
ATOM      3  H4  UNL     1       3.148  -5.469  29.438  1.00  0.00     0.183 HD
HETATM    4  C9  UNL     1       4.637  -4.467  30.462  1.00  0.00     0.140 A 
HETATM    5  C10 UNL     1       6.005  -4.333  30.616  1.00  0.00     0.110 A 
HETATM    6  N5  UNL     1       6.773  -3.546  31.423  1.00  0.00    -0.186 N 
ATOM      7  H5  UNL     1       6.442  -2.863  32.106  1.00  0.00     0.184 HD
HETATM    8  C11 UNL     1       8.028  -3.842  31.147  1.00  0.00     0.687 A 
HETATM    9  N7  UNL     1       8.084  -4.825  30.160  1.00  0.00    -0.159 N 
HETATM   10  C25 UNL     1       6.791  -5.140  29.819  1.00  0.00     0.168 A 
HETATM   11  N9  UNL     1       6.356  -6.037  28.920  1.00  0.00    -0.173 N 
ATOM     12  H9  UNL     1       6.982  -6.615  28.359  1.00  0.00     0.186 HD
ENDROOT
BRANCH   1  13
HETATM   13  N3  UNL     1       4.546  -7.021  27.890  1.00  0.00    -0.192 N 
HETATM   14  H10 UNL     1       5.239  -7.136  27.168  1.00  0.00     0.184 HD
BRANCH  13  15
HETATM   15  C7  UNL     1       3.355  -7.735  27.735  1.00  0.00     0.049 A 
HETATM   16  C6  UNL     1       2.088  -7.210  27.968  1.00  0.00     0.032 A 
HETATM   17  C5  UNL     1       0.930  -7.987  27.790  1.00  0.00     0.031 A 
HETATM   18  C4  UNL     1       0.980  -9.324  27.371  1.00  0.00     0.030 A 
HETATM   19  C27 UNL     1       2.260  -9.846  27.149  1.00  0.00     0.031 A 
HETATM   20  C26 UNL     1       3.420  -9.072  27.325  1.00  0.00     0.032 A 
BRANCH  18  21
HETATM   21  N2  UNL     1      -0.166 -10.079  27.197  1.00  0.00    -0.378 N 
HETATM   22  C3  UNL     1      -0.101 -11.539  27.011  1.00  0.00     0.153 C 
HETATM   23  C2  UNL     1      -1.384 -12.231  27.532  1.00  0.00     0.291 C 
HETATM   24  N1  UNL     1      -2.658 -11.739  26.967  1.00  0.00     0.087 N 
HETATM   25  C1  UNL     1      -3.138 -12.595  25.885  1.00  0.00     0.310 C 
HETATM   26  C29 UNL     1      -2.535 -10.339  26.503  1.00  0.00     0.291 C 
HETATM   27  C28 UNL     1      -1.513  -9.494  27.299  1.00  0.00     0.153 C 
ENDBRANCH  18  21
ENDBRANCH  13  15
ENDBRANCH   1  13
BRANCH   9  28
HETATM   28  C18 UNL     1       9.296  -5.419  29.646  1.00  0.00     0.130 C 
HETATM   29  C19 UNL     1      10.099  -4.694  28.562  1.00  0.00     0.048 C 
HETATM   30  C20 UNL     1      11.064  -5.773  28.077  1.00  0.00     0.137 C 
HETATM   31  N8  UNL     1      10.336  -7.044  28.286  1.00  0.00    -0.308 N 
HETATM   32  C24 UNL     1       9.055  -6.773  28.971  1.00  0.00     0.161 C 
BRANCH  31  33
HETATM   33  S1  UNL     1      10.371  -8.216  27.079  1.00  0.00     0.232 S 
HETATM   34  O1  UNL     1      11.760  -8.488  26.785  1.00  0.00    -0.205 OA
HETATM   35  O2  UNL     1       9.464  -9.269  27.483  1.00  0.00    -0.205 OA
BRANCH  33  36
HETATM   36  C21 UNL     1       9.701  -7.440  25.575  1.00  0.00     0.129 A 
HETATM   37  C22 UNL     1      10.238  -8.028  24.296  1.00  0.00     0.023 A 
HETATM   38  C23 UNL     1       8.822  -8.313  24.721  1.00  0.00     0.023 A 
ENDBRANCH  33  36
ENDBRANCH  31  33
ENDBRANCH   9  28
BRANCH   8  39
HETATM   39  N6  UNL     1       9.159  -3.333  31.695  1.00  0.00    -0.191 N 
HETATM   40  H12 UNL     1       9.745  -2.693  31.174  1.00  0.00     0.184 HD
BRANCH  39  41
HETATM   41  C12 UNL     1       9.664  -3.523  33.005  1.00  0.00     0.049 A 
HETATM   42  C13 UNL     1       8.969  -4.170  34.033  1.00  0.00     0.030 A 
HETATM   43  C14 UNL     1       9.539  -4.333  35.302  1.00  0.00     0.002 A 
HETATM   44  C15 UNL     1      10.819  -3.855  35.564  1.00  0.00     0.000 A 
HETATM   45  C16 UNL     1      11.531  -3.215  34.557  1.00  0.00     0.002 A 
HETATM   46  C17 UNL     1      10.960  -3.054  33.291  1.00  0.00     0.030 A 
ENDBRANCH  39  41
ENDBRANCH   8  39
TORSDOF 8
ENDMDL
MODEL 4
REMARK minimizedAffinity -8.85105896
REMARK CNNscore 0.537944078
REMARK CNNaffinity 7.95143175
REMARK  8 active torsions:
REMARK  status: ('A' for Active; 'I' for Inactive)
REMARK    1  A    between atoms: N2_5  and  C4_6 
REMARK    2  A    between atoms: C7_9  and  N3_10 
REMARK    3  A    between atoms: N3_10  and  C8_11 
REMARK    4  A    between atoms: C11_18  and  N6_19 
REMARK    5  A    between atoms: N6_19  and  C12_20 
REMARK    6  A    between atoms: N7_26  and  C18_27 
REMARK    7  A    between atoms: N8_30  and  S1_31 
REMARK    8  A    between atoms: S1_31  and  C21_34 
ROOT
HETATM    1  C8  UNL     1       4.585  -5.514  29.028  1.00  0.00     0.684 A 
HETATM    2  N4  UNL     1       4.044  -4.717  29.972  1.00  0.00    -0.199 N 
ATOM      3  H4  UNL     1       3.033  -4.591  30.017  1.00  0.00     0.183 HD
HETATM    4  C9  UNL     1       4.849  -4.084  30.861  1.00  0.00     0.140 A 
HETATM    5  C10 UNL     1       6.219  -4.268  30.786  1.00  0.00     0.110 A 
HETATM    6  N5  UNL     1       7.260  -3.786  31.523  1.00  0.00    -0.186 N 
ATOM      7  H5  UNL     1       7.202  -3.151  32.321  1.00  0.00     0.184 HD
HETATM    8  C11 UNL     1       8.355  -4.300  31.002  1.00  0.00     0.687 A 
HETATM    9  N7  UNL     1       8.033  -5.124  29.923  1.00  0.00    -0.159 N 
HETATM   10  C25 UNL     1       6.667  -5.104  29.784  1.00  0.00     0.168 A 
HETATM   11  N9  UNL     1       5.906  -5.751  28.887  1.00  0.00    -0.173 N 
ATOM     12  H9  UNL     1       6.291  -6.364  28.167  1.00  0.00     0.186 HD
ENDROOT
BRANCH   1  13
HETATM   13  N3  UNL     1       3.786  -6.170  28.094  1.00  0.00    -0.192 N 
HETATM   14  H10 UNL     1       3.201  -5.496  27.626  1.00  0.00     0.184 HD
BRANCH  13  15
HETATM   15  C7  UNL     1       3.609  -7.509  27.734  1.00  0.00     0.049 A 
HETATM   16  C6  UNL     1       2.386  -8.173  27.749  1.00  0.00     0.032 A 
HETATM   17  C5  UNL     1       2.281  -9.523  27.372  1.00  0.00     0.031 A 
HETATM   18  C4  UNL     1       3.390 -10.276  26.962  1.00  0.00     0.030 A 
HETATM   19  C27 UNL     1       4.617  -9.603  26.961  1.00  0.00     0.031 A 
HETATM   20  C26 UNL     1       4.726  -8.252  27.336  1.00  0.00     0.032 A 
BRANCH  18  21
HETATM   21  N2  UNL     1       3.276 -11.604  26.591  1.00  0.00    -0.378 N 
HETATM   22  C3  UNL     1       2.408 -12.535  27.333  1.00  0.00     0.153 C 
HETATM   23  C2  UNL     1       1.880 -13.665  26.417  1.00  0.00     0.291 C 
HETATM   24  N1  UNL     1       2.909 -14.447  25.699  1.00  0.00     0.087 N 
HETATM   25  C1  UNL     1       3.205 -15.707  26.378  1.00  0.00     0.310 C 
HETATM   26  C29 UNL     1       4.146 -13.659  25.507  1.00  0.00     0.291 C 
HETATM   27  C28 UNL     1       3.915 -12.135  25.376  1.00  0.00     0.153 C 
ENDBRANCH  18  21
ENDBRANCH  13  15
ENDBRANCH   1  13
BRANCH   9  28
HETATM   28  C18 UNL     1       8.983  -5.883  29.145  1.00  0.00     0.130 C 
HETATM   29  C19 UNL     1       8.871  -5.909  27.619  1.00  0.00     0.048 C 
HETATM   30  C20 UNL     1       9.805  -7.052  27.229  1.00  0.00     0.137 C 
HETATM   31  N8  UNL     1       9.762  -7.977  28.382  1.00  0.00    -0.308 N 
HETATM   32  C24 UNL     1       8.949  -7.382  29.464  1.00  0.00     0.161 C 
BRANCH  31  33
HETATM   33  S1  UNL     1       9.637  -9.632  28.100  1.00  0.00     0.232 S 
HETATM   34  O1  UNL     1       8.334 -10.049  28.565  1.00  0.00    -0.205 OA
HETATM   35  O2  UNL     1      10.064  -9.864  26.737  1.00  0.00    -0.205 OA
BRANCH  33  36
HETATM   36  C21 UNL     1      10.831 -10.443  29.211  1.00  0.00     0.129 A 
HETATM   37  C22 UNL     1      11.259 -11.811  28.748  1.00  0.00     0.023 A 
HETATM   38  C23 UNL     1      12.212 -10.650  28.652  1.00  0.00     0.023 A 
ENDBRANCH  33  36
ENDBRANCH  31  33
ENDBRANCH   9  28
BRANCH   8  39
HETATM   39  N6  UNL     1       9.642  -4.127  31.393  1.00  0.00    -0.191 N 
HETATM   40  H12 UNL     1      10.387  -4.071  30.711  1.00  0.00     0.184 HD
BRANCH  39  41
HETATM   41  C12 UNL     1      10.145  -3.942  32.704  1.00  0.00     0.049 A 
HETATM   42  C13 UNL     1       9.515  -4.403  33.864  1.00  0.00     0.030 A 
HETATM   43  C14 UNL     1      10.079  -4.193  35.129  1.00  0.00     0.002 A 
HETATM   44  C15 UNL     1      11.290  -3.520  35.255  1.00  0.00     0.000 A 
HETATM   45  C16 UNL     1      11.938  -3.057  34.115  1.00  0.00     0.002 A 
HETATM   46  C17 UNL     1      11.372  -3.269  32.854  1.00  0.00     0.030 A 
ENDBRANCH  39  41
ENDBRANCH   8  39
TORSDOF 8
ENDMDL
MODEL 5
REMARK minimizedAffinity -9.12438869
REMARK CNNscore 0.535158753
REMARK CNNaffinity 7.91060114
REMARK  8 active torsions:
REMARK  status: ('A' for Active; 'I' for Inactive)
REMARK    1  A    between atoms: N2_5  and  C4_6 
REMARK    2  A    between atoms: C7_9  and  N3_10 
REMARK    3  A    between atoms: N3_10  and  C8_11 
REMARK    4  A    between atoms: C11_18  and  N6_19 
REMARK    5  A    between atoms: N6_19  and  C12_20 
REMARK    6  A    between atoms: N7_26  and  C18_27 
REMARK    7  A    between atoms: N8_30  and  S1_31 
REMARK    8  A    between atoms: S1_31  and  C21_34 
ROOT
HETATM    1  C8  UNL     1       5.277  -6.127  29.049  1.00  0.00     0.684 A 
HETATM    2  N4  UNL     1       4.432  -5.380  29.790  1.00  0.00    -0.199 N 
ATOM      3  H4  UNL     1       3.424  -5.516  29.709  1.00  0.00     0.183 HD
HETATM    4  C9  UNL     1       4.926  -4.448  30.642  1.00  0.00     0.140 A 
HETATM    5  C10 UNL     1       6.296  -4.278  30.739  1.00  0.00     0.110 A 
HETATM    6  N5  UNL     1       7.076  -3.449  31.490  1.00  0.00    -0.186 N 
ATOM      7  H5  UNL     1       6.755  -2.752  32.163  1.00  0.00     0.184 HD
HETATM    8  C11 UNL     1       8.325  -3.726  31.175  1.00  0.00     0.687 A 
HETATM    9  N7  UNL     1       8.367  -4.739  30.218  1.00  0.00    -0.159 N 
HETATM   10  C25 UNL     1       7.070  -5.094  29.938  1.00  0.00     0.168 A 
HETATM   11  N9  UNL     1       6.622  -6.028  29.085  1.00  0.00    -0.173 N 
ATOM     12  H9  UNL     1       7.240  -6.610  28.518  1.00  0.00     0.186 HD
ENDROOT
BRANCH   1  13
HETATM   13  N3  UNL     1       4.799  -7.085  28.157  1.00  0.00    -0.192 N 
HETATM   14  H10 UNL     1       5.553  -7.391  27.563  1.00  0.00     0.184 HD
BRANCH  13  15
HETATM   15  C7  UNL     1       3.539  -7.637  27.906  1.00  0.00     0.049 A 
HETATM   16  C6  UNL     1       2.335  -6.968  28.101  1.00  0.00     0.032 A 
HETATM   17  C5  UNL     1       1.102  -7.585  27.825  1.00  0.00     0.031 A 
HETATM   18  C4  UNL     1       1.011  -8.898  27.342  1.00  0.00     0.030 A 
HETATM   19  C27 UNL     1       2.228  -9.565  27.159  1.00  0.00     0.031 A 
HETATM   20  C26 UNL     1       3.462  -8.952  27.432  1.00  0.00     0.032 A 
BRANCH  18  21
HETATM   21  N2  UNL     1      -0.207  -9.495  27.072  1.00  0.00    -0.378 N 
HETATM   22  C3  UNL     1      -1.477  -8.789  27.315  1.00  0.00     0.153 C 
HETATM   23  C2  UNL     1      -2.586  -9.274  26.350  1.00  0.00     0.291 C 
HETATM   24  N1  UNL     1      -2.846 -10.729  26.346  1.00  0.00     0.087 N 
HETATM   25  C1  UNL     1      -3.998 -11.077  27.176  1.00  0.00     0.310 C 
HETATM   26  C29 UNL     1      -1.652 -11.490  26.775  1.00  0.00     0.291 C 
HETATM   27  C28 UNL     1      -0.307 -10.813  26.423  1.00  0.00     0.153 C 
ENDBRANCH  18  21
ENDBRANCH  13  15
ENDBRANCH   1  13
BRANCH   9  28
HETATM   28  C18 UNL     1       9.572  -5.321  29.677  1.00  0.00     0.130 C 
HETATM   29  C19 UNL     1       9.885  -5.176  28.185  1.00  0.00     0.048 C 
HETATM   30  C20 UNL     1      11.012  -6.185  27.975  1.00  0.00     0.137 C 
HETATM   31  N8  UNL     1      10.758  -7.240  28.980  1.00  0.00    -0.308 N 
HETATM   32  C24 UNL     1       9.619  -6.845  29.836  1.00  0.00     0.161 C 
BRANCH  31  33
HETATM   33  S1  UNL     1      10.901  -8.855  28.526  1.00  0.00     0.232 S 
HETATM   34  O1  UNL     1       9.940  -9.605  29.303  1.00  0.00    -0.205 OA
HETATM   35  O2  UNL     1      10.899  -8.892  27.080  1.00  0.00    -0.205 OA
BRANCH  33  36
HETATM   36  C21 UNL     1      12.534  -9.417  29.103  1.00  0.00     0.129 A 
HETATM   37  C22 UNL     1      12.891  -8.936  30.485  1.00  0.00     0.023 A 
HETATM   38  C23 UNL     1      12.526 -10.379  30.260  1.00  0.00     0.023 A 
ENDBRANCH  33  36
ENDBRANCH  31  33
ENDBRANCH   9  28
BRANCH   8  39
HETATM   39  N6  UNL     1       9.464  -3.174  31.663  1.00  0.00    -0.191 N 
HETATM   40  H12 UNL     1      10.005  -2.524  31.106  1.00  0.00     0.184 HD
BRANCH  39  41
HETATM   41  C12 UNL     1      10.035  -3.330  32.950  1.00  0.00     0.049 A 
HETATM   42  C13 UNL     1       9.440  -4.040  33.998  1.00  0.00     0.030 A 
HETATM   43  C14 UNL     1      10.071  -4.163  35.242  1.00  0.00     0.002 A 
HETATM   44  C15 UNL     1      11.315  -3.579  35.459  1.00  0.00     0.000 A 
HETATM   45  C16 UNL     1      11.930  -2.874  34.431  1.00  0.00     0.002 A 
HETATM   46  C17 UNL     1      11.297  -2.753  33.189  1.00  0.00     0.030 A 
ENDBRANCH  39  41
ENDBRANCH   8  39
TORSDOF 8
ENDMDL
MODEL 6
REMARK minimizedAffinity -8.74046707
REMARK CNNscore 0.492319912
REMARK CNNaffinity 7.74505377
REMARK  8 active torsions:
REMARK  status: ('A' for Active; 'I' for Inactive)
REMARK    1  A    between atoms: N2_5  and  C4_6 
REMARK    2  A    between atoms: C7_9  and  N3_10 
REMARK    3  A    between atoms: N3_10  and  C8_11 
REMARK    4  A    between atoms: C11_18  and  N6_19 
REMARK    5  A    between atoms: N6_19  and  C12_20 
REMARK    6  A    between atoms: N7_26  and  C18_27 
REMARK    7  A    between atoms: N8_30  and  S1_31 
REMARK    8  A    between atoms: S1_31  and  C21_34 
ROOT
HETATM    1  C8  UNL     1       4.897  -5.790  29.098  1.00  0.00     0.684 A 
HETATM    2  N4  UNL     1       4.202  -4.953  29.896  1.00  0.00    -0.199 N 
ATOM      3  H4  UNL     1       3.183  -4.949  29.869  1.00  0.00     0.183 HD
HETATM    4  C9  UNL     1       4.864  -4.118  30.734  1.00  0.00     0.140 A 
HETATM    5  C10 UNL     1       6.248  -4.138  30.759  1.00  0.00     0.110 A 
HETATM    6  N5  UNL     1       7.172  -3.441  31.480  1.00  0.00    -0.186 N 
ATOM      7  H5  UNL     1       6.985  -2.723  32.181  1.00  0.00     0.184 HD
HETATM    8  C11 UNL     1       8.353  -3.877  31.092  1.00  0.00     0.687 A 
HETATM    9  N7  UNL     1       8.205  -4.864  30.117  1.00  0.00    -0.159 N 
HETATM   10  C25 UNL     1       6.859  -5.032  29.903  1.00  0.00     0.168 A 
HETATM   11  N9  UNL     1       6.243  -5.877  29.061  1.00  0.00    -0.173 N 
ATOM     12  H9  UNL     1       6.745  -6.523  28.451  1.00  0.00     0.186 HD
ENDROOT
BRANCH   1  13
HETATM   13  N3  UNL     1       4.246  -6.653  28.218  1.00  0.00    -0.192 N 
HETATM   14  H10 UNL     1       3.270  -6.407  28.173  1.00  0.00     0.184 HD
BRANCH  13  15
HETATM   15  C7  UNL     1       4.648  -7.761  27.467  1.00  0.00     0.049 A 
HETATM   16  C6  UNL     1       5.793  -7.800  26.675  1.00  0.00     0.032 A 
HETATM   17  C5  UNL     1       6.138  -8.951  25.946  1.00  0.00     0.031 A 
HETATM   18  C4  UNL     1       5.361 -10.117  25.970  1.00  0.00     0.030 A 
HETATM   19  C27 UNL     1       4.207 -10.064  26.761  1.00  0.00     0.031 A 
HETATM   20  C26 UNL     1       3.859  -8.916  27.493  1.00  0.00     0.032 A 
BRANCH  18  21
HETATM   21  N2  UNL     1       5.712 -11.245  25.250  1.00  0.00    -0.378 N 
HETATM   22  C3  UNL     1       4.775 -11.871  24.301  1.00  0.00     0.153 C 
HETATM   23  C2  UNL     1       5.529 -12.593  23.158  1.00  0.00     0.291 C 
HETATM   24  N1  UNL     1       6.522 -13.604  23.578  1.00  0.00     0.087 N 
HETATM   25  C1  UNL     1       5.979 -14.959  23.511  1.00  0.00     0.310 C 
HETATM   26  C29 UNL     1       7.038 -13.319  24.935  1.00  0.00     0.291 C 
HETATM   27  C28 UNL     1       7.068 -11.817  25.301  1.00  0.00     0.153 C 
ENDBRANCH  18  21
ENDBRANCH  13  15
ENDBRANCH   1  13
BRANCH   9  28
HETATM   28  C18 UNL     1       9.289  -5.592  29.501  1.00  0.00     0.130 C 
HETATM   29  C19 UNL     1       9.390  -5.660  27.975  1.00  0.00     0.048 C 
HETATM   30  C20 UNL     1      10.423  -6.762  27.752  1.00  0.00     0.137 C 
HETATM   31  N8  UNL     1      10.266  -7.660  28.916  1.00  0.00    -0.308 N 
HETATM   32  C24 UNL     1       9.284  -7.081  29.858  1.00  0.00     0.161 C 
BRANCH  31  33
HETATM   33  S1  UNL     1      10.262  -9.325  28.672  1.00  0.00     0.232 S 
HETATM   34  O1  UNL     1       9.085  -9.852  29.326  1.00  0.00    -0.205 OA
HETATM   35  O2  UNL     1      10.507  -9.549  27.264  1.00  0.00    -0.205 OA
BRANCH  33  36
HETATM   36  C21 UNL     1      11.675  -9.995  29.605  1.00  0.00     0.129 A 
HETATM   37  C22 UNL     1      11.566 -11.468  29.899  1.00  0.00     0.023 A 
HETATM   38  C23 UNL     1      12.543 -10.976  28.865  1.00  0.00     0.023 A 
ENDBRANCH  33  36
ENDBRANCH  31  33
ENDBRANCH   9  28
BRANCH   8  39
HETATM   39  N6  UNL     1       9.581  -3.497  31.525  1.00  0.00    -0.191 N 
HETATM   40  H12 UNL     1      10.250  -3.084  30.888  1.00  0.00     0.184 HD
BRANCH  39  41
HETATM   41  C12 UNL     1      10.099  -3.537  32.842  1.00  0.00     0.049 A 
HETATM   42  C13 UNL     1       9.461  -4.153  33.924  1.00  0.00     0.030 A 
HETATM   43  C14 UNL     1      10.042  -4.164  35.199  1.00  0.00     0.002 A 
HETATM   44  C15 UNL     1      11.277  -3.561  35.413  1.00  0.00     0.000 A 
HETATM   45  C16 UNL     1      11.934  -2.948  34.352  1.00  0.00     0.002 A 
HETATM   46  C17 UNL     1      11.351  -2.940  33.080  1.00  0.00     0.030 A 
ENDBRANCH  39  41
ENDBRANCH   8  39
TORSDOF 8
ENDMDL
MODEL 7
REMARK minimizedAffinity -8.85653687
REMARK CNNscore 0.427431375
REMARK CNNaffinity 7.74435806
REMARK  8 active torsions:
REMARK  status: ('A' for Active; 'I' for Inactive)
REMARK    1  A    between atoms: N2_5  and  C4_6 
REMARK    2  A    between atoms: C7_9  and  N3_10 
REMARK    3  A    between atoms: N3_10  and  C8_11 
REMARK    4  A    between atoms: C11_18  and  N6_19 
REMARK    5  A    between atoms: N6_19  and  C12_20 
REMARK    6  A    between atoms: N7_26  and  C18_27 
REMARK    7  A    between atoms: N8_30  and  S1_31 
REMARK    8  A    between atoms: S1_31  and  C21_34 
ROOT
HETATM    1  C8  UNL     1       5.865  -6.875  29.181  1.00  0.00     0.684 A 
HETATM    2  N4  UNL     1       4.911  -6.224  29.878  1.00  0.00    -0.199 N 
ATOM      3  H4  UNL     1       3.938  -6.526  29.818  1.00  0.00     0.183 HD
HETATM    4  C9  UNL     1       5.248  -5.168  30.658  1.00  0.00     0.140 A 
HETATM    5  C10 UNL     1       6.573  -4.773  30.728  1.00  0.00     0.110 A 
HETATM    6  N5  UNL     1       7.208  -3.779  31.412  1.00  0.00    -0.186 N 
ATOM      7  H5  UNL     1       6.778  -3.097  32.039  1.00  0.00     0.184 HD
HETATM    8  C11 UNL     1       8.486  -3.872  31.103  1.00  0.00     0.687 A 
HETATM    9  N7  UNL     1       8.690  -4.929  30.217  1.00  0.00    -0.159 N 
HETATM   10  C25 UNL     1       7.468  -5.507  29.977  1.00  0.00     0.168 A 
HETATM   11  N9  UNL     1       7.177  -6.559  29.195  1.00  0.00    -0.173 N 
ATOM     12  H9  UNL     1       7.881  -7.071  28.662  1.00  0.00     0.186 HD
ENDROOT
BRANCH   1  13
HETATM   13  N3  UNL     1       5.548  -7.957  28.362  1.00  0.00    -0.192 N 
HETATM   14  H10 UNL     1       6.204  -8.704  28.531  1.00  0.00     0.184 HD
BRANCH  13  15
HETATM   15  C7  UNL     1       4.585  -8.180  27.374  1.00  0.00     0.049 A 
HETATM   16  C6  UNL     1       3.215  -8.025  27.563  1.00  0.00     0.032 A 
HETATM   17  C5  UNL     1       2.302  -8.265  26.522  1.00  0.00     0.031 A 
HETATM   18  C4  UNL     1       2.709  -8.672  25.244  1.00  0.00     0.030 A 
HETATM   19  C27 UNL     1       4.088  -8.835  25.067  1.00  0.00     0.031 A 
HETATM   20  C26 UNL     1       5.005  -8.594  26.105  1.00  0.00     0.032 A 
BRANCH  18  21
HETATM   21  N2  UNL     1       1.801  -8.903  24.226  1.00  0.00    -0.378 N 
HETATM   22  C3  UNL     1       2.201  -9.588  22.984  1.00  0.00     0.153 C 
HETATM   23  C2  UNL     1       1.010 -10.346  22.350  1.00  0.00     0.291 C 
HETATM   24  N1  UNL     1      -0.198  -9.539  22.078  1.00  0.00     0.087 N 
HETATM   25  C1  UNL     1      -0.265  -9.117  20.681  1.00  0.00     0.310 C 
HETATM   26  C29 UNL     1      -0.275  -8.366  22.977  1.00  0.00     0.291 C 
HETATM   27  C28 UNL     1       0.370  -8.586  24.365  1.00  0.00     0.153 C 
ENDBRANCH  18  21
ENDBRANCH  13  15
ENDBRANCH   1  13
BRANCH   9  28
HETATM   28  C18 UNL     1       9.974  -5.346  29.704  1.00  0.00     0.130 C 
HETATM   29  C19 UNL     1      10.190  -5.459  28.192  1.00  0.00     0.048 C 
HETATM   30  C20 UNL     1      11.505  -6.228  28.094  1.00  0.00     0.137 C 
HETATM   31  N8  UNL     1      11.532  -7.075  29.306  1.00  0.00    -0.308 N 
HETATM   32  C24 UNL     1      10.367  -6.755  30.159  1.00  0.00     0.161 C 
BRANCH  31  33
HETATM   33  S1  UNL     1      12.015  -8.682  29.173  1.00  0.00     0.232 S 
HETATM   34  O1  UNL     1      10.826  -9.497  29.276  1.00  0.00    -0.205 OA
HETATM   35  O2  UNL     1      12.894  -8.768  28.027  1.00  0.00    -0.205 OA
BRANCH  33  36
HETATM   36  C21 UNL     1      12.992  -9.060  30.663  1.00  0.00     0.129 A 
HETATM   37  C22 UNL     1      13.388 -10.508  30.779  1.00  0.00     0.023 A 
HETATM   38  C23 UNL     1      14.419  -9.470  30.425  1.00  0.00     0.023 A 
ENDBRANCH  33  36
ENDBRANCH  31  33
ENDBRANCH   9  28
BRANCH   8  39
HETATM   39  N6  UNL     1       9.520  -3.111  31.539  1.00  0.00    -0.191 N 
HETATM   40  H12 UNL     1       9.865  -2.338  30.984  1.00  0.00     0.184 HD
BRANCH  39  41
HETATM   41  C12 UNL     1      10.216  -3.196  32.769  1.00  0.00     0.049 A 
HETATM   42  C13 UNL     1      11.451  -2.589  33.022  1.00  0.00     0.030 A 
HETATM   43  C14 UNL     1      12.076  -2.706  34.270  1.00  0.00     0.002 A 
HETATM   44  C15 UNL     1      11.471  -3.431  35.292  1.00  0.00     0.000 A 
HETATM   45  C16 UNL     1      10.241  -4.038  35.067  1.00  0.00     0.002 A 
HETATM   46  C17 UNL     1       9.620  -3.919  33.820  1.00  0.00     0.030 A 
ENDBRANCH  39  41
ENDBRANCH   8  39
TORSDOF 8
ENDMDL
MODEL 8
REMARK minimizedAffinity -9.13549519
REMARK CNNscore 0.251422375
REMARK CNNaffinity 7.68708181
REMARK  8 active torsions:
REMARK  status: ('A' for Active; 'I' for Inactive)
REMARK    1  A    between atoms: N2_5  and  C4_6 
REMARK    2  A    between atoms: C7_9  and  N3_10 
REMARK    3  A    between atoms: N3_10  and  C8_11 
REMARK    4  A    between atoms: C11_18  and  N6_19 
REMARK    5  A    between atoms: N6_19  and  C12_20 
REMARK    6  A    between atoms: N7_26  and  C18_27 
REMARK    7  A    between atoms: N8_30  and  S1_31 
REMARK    8  A    between atoms: S1_31  and  C21_34 
ROOT
HETATM    1  C8  UNL     1       4.504  -5.434  29.273  1.00  0.00     0.684 A 
HETATM    2  N4  UNL     1       4.069  -4.399  30.022  1.00  0.00    -0.199 N 
ATOM      3  H4  UNL     1       3.084  -4.137  30.009  1.00  0.00     0.183 HD
HETATM    4  C9  UNL     1       4.946  -3.710  30.793  1.00  0.00     0.140 A 
HETATM    5  C10 UNL     1       6.280  -4.081  30.799  1.00  0.00     0.110 A 
HETATM    6  N5  UNL     1       7.372  -3.599  31.459  1.00  0.00    -0.186 N 
ATOM      7  H5  UNL     1       7.395  -2.815  32.112  1.00  0.00     0.184 HD
HETATM    8  C11 UNL     1       8.392  -4.346  31.085  1.00  0.00     0.687 A 
HETATM    9  N7  UNL     1       7.968  -5.320  30.182  1.00  0.00    -0.159 N 
HETATM   10  C25 UNL     1       6.618  -5.153  29.998  1.00  0.00     0.168 A 
HETATM   11  N9  UNL     1       5.782  -5.863  29.224  1.00  0.00    -0.173 N 
ATOM     12  H9  UNL     1       6.085  -6.652  28.653  1.00  0.00     0.186 HD
ENDROOT
BRANCH   1  13
HETATM   13  N3  UNL     1       3.629  -6.155  28.463  1.00  0.00    -0.192 N 
HETATM   14  H10 UNL     1       2.823  -5.586  28.256  1.00  0.00     0.184 HD
BRANCH  13  15
HETATM   15  C7  UNL     1       3.626  -7.456  27.951  1.00  0.00     0.049 A 
HETATM   16  C6  UNL     1       4.770  -8.157  27.581  1.00  0.00     0.032 A 
HETATM   17  C5  UNL     1       4.693  -9.466  27.074  1.00  0.00     0.031 A 
HETATM   18  C4  UNL     1       3.474 -10.138  26.912  1.00  0.00     0.030 A 
HETATM   19  C27 UNL     1       2.329  -9.420  27.277  1.00  0.00     0.031 A 
HETATM   20  C26 UNL     1       2.401  -8.112  27.786  1.00  0.00     0.032 A 
BRANCH  18  21
HETATM   21  N2  UNL     1       3.410 -11.427  26.414  1.00  0.00    -0.378 N 
HETATM   22  C3  UNL     1       2.572 -12.456  27.055  1.00  0.00     0.153 C 
HETATM   23  C2  UNL     1       2.092 -13.511  26.030  1.00  0.00     0.291 C 
HETATM   24  N1  UNL     1       3.153 -14.183  25.251  1.00  0.00     0.087 N 
HETATM   25  C1  UNL     1       3.490 -15.491  25.810  1.00  0.00     0.310 C 
HETATM   26  C29 UNL     1       4.361 -13.337  25.148  1.00  0.00     0.291 C 
HETATM   27  C28 UNL     1       4.077 -11.817  25.161  1.00  0.00     0.153 C 
ENDBRANCH  18  21
ENDBRANCH  13  15
ENDBRANCH   1  13
BRANCH   9  28
HETATM   28  C18 UNL     1       8.813  -6.338  29.601  1.00  0.00     0.130 C 
HETATM   29  C19 UNL     1      10.074  -6.794  30.339  1.00  0.00     0.048 C 
HETATM   30  C20 UNL     1      10.826  -7.585  29.271  1.00  0.00     0.137 C 
HETATM   31  N8  UNL     1      10.429  -6.953  27.994  1.00  0.00    -0.308 N 
HETATM   32  C24 UNL     1       9.403  -5.920  28.250  1.00  0.00     0.161 C 
BRANCH  31  33
HETATM   33  S1  UNL     1      11.606  -6.647  26.830  1.00  0.00     0.232 S 
HETATM   34  O1  UNL     1      11.730  -5.212  26.714  1.00  0.00    -0.205 OA
HETATM   35  O2  UNL     1      12.744  -7.482  27.148  1.00  0.00    -0.205 OA
BRANCH  33  36
HETATM   36  C21 UNL     1      10.924  -7.205  25.236  1.00  0.00     0.129 A 
HETATM   37  C22 UNL     1      11.228  -8.646  24.916  1.00  0.00     0.023 A 
HETATM   38  C23 UNL     1       9.835  -8.240  25.315  1.00  0.00     0.023 A 
ENDBRANCH  33  36
ENDBRANCH  31  33
ENDBRANCH   9  28
BRANCH   8  39
HETATM   39  N6  UNL     1       9.688  -4.265  31.474  1.00  0.00    -0.191 N 
HETATM   40  H12 UNL     1      10.438  -4.352  30.800  1.00  0.00     0.184 HD
BRANCH  39  41
HETATM   41  C12 UNL     1      10.203  -4.003  32.767  1.00  0.00     0.049 A 
HETATM   42  C13 UNL     1       9.622  -4.458  33.956  1.00  0.00     0.030 A 
HETATM   43  C14 UNL     1      10.196  -4.170  35.201  1.00  0.00     0.002 A 
HETATM   44  C15 UNL     1      11.367  -3.423  35.279  1.00  0.00     0.000 A 
HETATM   45  C16 UNL     1      11.966  -2.965  34.111  1.00  0.00     0.002 A 
HETATM   46  C17 UNL     1      11.391  -3.255  32.869  1.00  0.00     0.030 A 
ENDBRANCH  39  41
ENDBRANCH   8  39
TORSDOF 8
ENDMDL
MODEL 9
REMARK minimizedAffinity -8.44790173
REMARK CNNscore 0.249726444
REMARK CNNaffinity 7.58156824
REMARK  8 active torsions:
REMARK  status: ('A' for Active; 'I' for Inactive)
REMARK    1  A    between atoms: N2_5  and  C4_6 
REMARK    2  A    between atoms: C7_9  and  N3_10 
REMARK    3  A    between atoms: N3_10  and  C8_11 
REMARK    4  A    between atoms: C11_18  and  N6_19 
REMARK    5  A    between atoms: N6_19  and  C12_20 
REMARK    6  A    between atoms: N7_26  and  C18_27 
REMARK    7  A    between atoms: N8_30  and  S1_31 
REMARK    8  A    between atoms: S1_31  and  C21_34 
ROOT
HETATM    1  C8  UNL     1       5.798  -6.381  29.157  1.00  0.00     0.684 A 
HETATM    2  N4  UNL     1       4.858  -5.808  29.936  1.00  0.00    -0.199 N 
ATOM      3  H4  UNL     1       3.888  -6.117  29.878  1.00  0.00     0.183 HD
HETATM    4  C9  UNL     1       5.207  -4.820  30.797  1.00  0.00     0.140 A 
HETATM    5  C10 UNL     1       6.529  -4.415  30.863  1.00  0.00     0.110 A 
HETATM    6  N5  UNL     1       7.173  -3.476  31.613  1.00  0.00    -0.186 N 
ATOM      7  H5  UNL     1       6.756  -2.859  32.310  1.00  0.00     0.184 HD
HETATM    8  C11 UNL     1       8.442  -3.524  31.260  1.00  0.00     0.687 A 
HETATM    9  N7  UNL     1       8.632  -4.496  30.279  1.00  0.00    -0.159 N 
HETATM   10  C25 UNL     1       7.409  -5.067  30.024  1.00  0.00     0.168 A 
HETATM   11  N9  UNL     1       7.106  -6.050  29.161  1.00  0.00    -0.173 N 
ATOM     12  H9  UNL     1       7.800  -6.504  28.565  1.00  0.00     0.186 HD
ENDROOT
BRANCH   1  13
HETATM   13  N3  UNL     1       5.469  -7.392  28.255  1.00  0.00    -0.192 N 
HETATM   14  H10 UNL     1       4.498  -7.636  28.371  1.00  0.00     0.184 HD
BRANCH  13  15
HETATM   15  C7  UNL     1       6.192  -8.126  27.311  1.00  0.00     0.049 A 
HETATM   16  C6  UNL     1       6.318  -9.512  27.322  1.00  0.00     0.032 A 
HETATM   17  C5  UNL     1       7.061 -10.186  26.337  1.00  0.00     0.031 A 
HETATM   18  C4  UNL     1       7.712  -9.513  25.295  1.00  0.00     0.030 A 
HETATM   19  C27 UNL     1       7.587  -8.118  25.299  1.00  0.00     0.031 A 
HETATM   20  C26 UNL     1       6.844  -7.440  26.280  1.00  0.00     0.032 A 
BRANCH  18  21
HETATM   21  N2  UNL     1       8.439 -10.187  24.329  1.00  0.00    -0.378 N 
HETATM   22  C3  UNL     1       8.172 -11.602  24.018  1.00  0.00     0.153 C 
HETATM   23  C2  UNL     1       8.530 -11.934  22.550  1.00  0.00     0.291 C 
HETATM   24  N1  UNL     1       9.910 -11.610  22.133  1.00  0.00     0.087 N 
HETATM   25  C1  UNL     1      10.778 -12.785  22.170  1.00  0.00     0.310 C 
HETATM   26  C29 UNL     1      10.478 -10.520  22.956  1.00  0.00     0.291 C 
HETATM   27  C28 UNL     1       9.433  -9.508  23.481  1.00  0.00     0.153 C 
ENDBRANCH  18  21
ENDBRANCH  13  15
ENDBRANCH   1  13
BRANCH   9  28
HETATM   28  C18 UNL     1       9.904  -4.849  29.693  1.00  0.00     0.130 C 
HETATM   29  C19 UNL     1      10.020  -5.032  28.178  1.00  0.00     0.048 C 
HETATM   30  C20 UNL     1      11.380  -5.710  28.021  1.00  0.00     0.137 C 
HETATM   31  N8  UNL     1      11.556  -6.482  29.271  1.00  0.00    -0.308 N 
HETATM   32  C24 UNL     1      10.433  -6.198  30.190  1.00  0.00     0.161 C 
BRANCH  31  33
HETATM   33  S1  UNL     1      12.149  -8.054  29.186  1.00  0.00     0.232 S 
HETATM   34  O1  UNL     1      13.278  -8.039  28.284  1.00  0.00    -0.205 OA
HETATM   35  O2  UNL     1      12.273  -8.536  30.545  1.00  0.00    -0.205 OA
BRANCH  33  36
HETATM   36  C21 UNL     1      10.874  -9.050  28.349  1.00  0.00     0.129 A 
HETATM   37  C22 UNL     1      10.321 -10.166  29.197  1.00  0.00     0.023 A 
HETATM   38  C23 UNL     1       9.484  -8.946  28.915  1.00  0.00     0.023 A 
ENDBRANCH  33  36
ENDBRANCH  31  33
ENDBRANCH   9  28
BRANCH   8  39
HETATM   39  N6  UNL     1       9.481  -2.790  31.731  1.00  0.00    -0.191 N 
HETATM   40  H12 UNL     1       9.793  -1.960  31.243  1.00  0.00     0.184 HD
BRANCH  39  41
HETATM   41  C12 UNL     1      10.225  -2.983  32.921  1.00  0.00     0.049 A 
HETATM   42  C13 UNL     1      11.446  -2.359  33.199  1.00  0.00     0.030 A 
HETATM   43  C14 UNL     1      12.119  -2.589  34.406  1.00  0.00     0.002 A 
HETATM   44  C15 UNL     1      11.579  -3.445  35.360  1.00  0.00     0.000 A 
HETATM   45  C16 UNL     1      10.364  -4.072  35.109  1.00  0.00     0.002 A 
HETATM   46  C17 UNL     1       9.694  -3.840  33.903  1.00  0.00     0.030 A 
ENDBRANCH  39  41
ENDBRANCH   8  39
TORSDOF 8
ENDMDL
