MODEL 1
REMARK minimizedAffinity -7.00164318
REMARK  2 active torsions:
REMARK  status: ('A' for Active; 'I' for Inactive)
REMARK    1  A    between atoms: C5_6  and  N1_7 
REMARK    2  A    between atoms: N1_7  and  C6_8 
ROOT
HETATM    1  C6  UNL     1      10.813  34.898  18.749  1.00  0.00     0.120 A 
HETATM    2  N2  UNL     1      10.715  35.274  17.449  1.00  0.00    -0.338 N 
ATOM      3  H2  UNL     1      11.479  35.082  16.803  1.00  0.00     0.168 HD
HETATM    4  C7  UNL     1       9.611  35.897  17.018  1.00  0.00     0.182 A 
HETATM    5  N3  UNL     1       8.537  36.220  17.732  1.00  0.00    -0.346 N 
ATOM      6  H3  UNL     1       7.727  36.707  17.350  1.00  0.00     0.167 HD
HETATM    7  C8  UNL     1       8.641  35.831  19.013  1.00  0.00     0.090 A 
HETATM    8  S1  UNL     1       7.368  36.162  20.095  1.00  0.00    -0.075 SA
HETATM    9  C9  UNL     1       8.187  35.412  21.377  1.00  0.00    -0.008 A 
HETATM   10  C10 UNL     1       9.416  34.893  21.000  1.00  0.00    -0.028 A 
HETATM   11  C11 UNL     1       9.711  35.168  19.603  1.00  0.00     0.049 A 
HETATM   12  C12 UNL     1      10.278  34.162  21.992  1.00  0.00     0.041 C 
HETATM   13  C13 UNL     1       9.509  33.763  23.261  1.00  0.00     0.005 C 
HETATM   14  C14 UNL     1       8.631  34.910  23.777  1.00  0.00     0.005 C 
HETATM   15  C15 UNL     1       7.575  35.311  22.740  1.00  0.00     0.047 C 
ENDROOT
BRANCH   1  16
HETATM   16  N1  UNL     1      11.994  34.303  19.223  1.00  0.00    -0.342 N 
HETATM   17  H4  UNL     1      11.853  33.752  20.055  1.00  0.00     0.167 HD
BRANCH  16  18
HETATM   18  C5  UNL     1      13.345  34.468  18.868  1.00  0.00     0.034 A 
HETATM   19  C4  UNL     1      14.331  34.154  19.820  1.00  0.00     0.029 A 
HETATM   20  C3  UNL     1      15.692  34.296  19.536  1.00  0.00     0.004 A 
HETATM   21  C2  UNL     1      16.095  34.755  18.286  1.00  0.00     0.019 A 
HETATM   22  C1  UNL     1      15.131  35.066  17.332  1.00  0.00     0.013 A 
HETATM   23 BR1  UNL     1      15.673  35.681  15.626  1.00  0.00    -0.051 Br
HETATM   24  C16 UNL     1      13.770  34.922  17.616  1.00  0.00     0.048 A 
ENDBRANCH  16  18
ENDBRANCH   1  16
TORSDOF 2
ENDMDL
MODEL 2
REMARK minimizedAffinity -6.88497305
REMARK  2 active torsions:
REMARK  status: ('A' for Active; 'I' for Inactive)
REMARK    1  A    between atoms: C5_6  and  N1_7 
REMARK    2  A    between atoms: N1_7  and  C6_8 
ROOT
HETATM    1  C6  UNL     1      11.135  34.663  19.056  1.00  0.00     0.120 A 
HETATM    2  N2  UNL     1      11.260  35.014  17.751  1.00  0.00    -0.338 N 
ATOM      3  H2  UNL     1      12.090  34.741  17.226  1.00  0.00     0.168 HD
HETATM    4  C7  UNL     1      10.290  35.720  17.156  1.00  0.00     0.182 A 
HETATM    5  N3  UNL     1       9.157  36.152  17.702  1.00  0.00    -0.346 N 
ATOM      6  H3  UNL     1       8.458  36.698  17.200  1.00  0.00     0.167 HD
HETATM    7  C8  UNL     1       9.040  35.787  18.988  1.00  0.00     0.090 A 
HETATM    8  S1  UNL     1       7.659  36.253  19.869  1.00  0.00    -0.075 SA
HETATM    9  C9  UNL     1       8.213  35.466  21.265  1.00  0.00    -0.008 A 
HETATM   10  C10 UNL     1       9.432  34.833  21.078  1.00  0.00    -0.028 A 
HETATM   11  C11 UNL     1       9.950  35.048  19.736  1.00  0.00     0.049 A 
HETATM   12  C12 UNL     1      10.073  34.054  22.194  1.00  0.00     0.041 C 
HETATM   13  C13 UNL     1       9.096  33.755  23.341  1.00  0.00     0.005 C 
HETATM   14  C14 UNL     1       8.259  34.985  23.710  1.00  0.00     0.005 C 
HETATM   15  C15 UNL     1       7.403  35.451  22.525  1.00  0.00     0.047 C 
ENDROOT
BRANCH   1  16
HETATM   16  N1  UNL     1      12.177  33.979  19.704  1.00  0.00    -0.342 N 
HETATM   17  H4  UNL     1      11.859  33.181  20.230  1.00  0.00     0.167 HD
BRANCH  16  18
HETATM   18  C5  UNL     1      13.534  34.292  19.902  1.00  0.00     0.034 A 
HETATM   19  C4  UNL     1      14.430  34.086  18.839  1.00  0.00     0.029 A 
HETATM   20  C3  UNL     1      15.793  34.373  18.965  1.00  0.00     0.004 A 
HETATM   21  C2  UNL     1      16.286  34.877  20.165  1.00  0.00     0.019 A 
HETATM   22  C1  UNL     1      15.410  35.090  21.225  1.00  0.00     0.013 A 
HETATM   23 BR1  UNL     1      16.073  35.785  22.856  1.00  0.00    -0.051 Br
HETATM   24  C16 UNL     1      14.049  34.804  21.098  1.00  0.00     0.048 A 
ENDBRANCH  16  18
ENDBRANCH   1  16
TORSDOF 2
ENDMDL
MODEL 3
REMARK minimizedAffinity -6.8811245
REMARK  2 active torsions:
REMARK  status: ('A' for Active; 'I' for Inactive)
REMARK    1  A    between atoms: C5_6  and  N1_7 
REMARK    2  A    between atoms: N1_7  and  C6_8 
ROOT
HETATM    1  C6  UNL     1      12.203  35.752  17.270  1.00  0.00     0.120 A 
HETATM    2  N2  UNL     1      11.996  36.143  15.987  1.00  0.00    -0.338 N 
ATOM      3  H2  UNL     1      11.111  35.935  15.526  1.00  0.00     0.168 HD
HETATM    4  C7  UNL     1      12.958  36.802  15.328  1.00  0.00     0.182 A 
HETATM    5  N3  UNL     1      14.159  37.143  15.785  1.00  0.00    -0.346 N 
ATOM      6  H3  UNL     1      14.858  37.636  15.231  1.00  0.00     0.167 HD
HETATM    7  C8  UNL     1      14.347  36.762  17.059  1.00  0.00     0.090 A 
HETATM    8  S1  UNL     1      15.830  37.100  17.825  1.00  0.00    -0.075 SA
HETATM    9  C9  UNL     1      15.311  36.381  19.271  1.00  0.00    -0.008 A 
HETATM   10  C10 UNL     1      14.015  35.896  19.197  1.00  0.00    -0.028 A 
HETATM   11  C11 UNL     1      13.445  36.087  17.873  1.00  0.00     0.049 A 
HETATM   12  C12 UNL     1      13.367  35.251  20.390  1.00  0.00     0.041 C 
HETATM   13  C13 UNL     1      14.125  35.530  21.697  1.00  0.00     0.005 C 
HETATM   14  C14 UNL     1      15.639  35.363  21.521  1.00  0.00     0.005 C 
HETATM   15  C15 UNL     1      16.191  36.347  20.483  1.00  0.00     0.047 C 
ENDROOT
BRANCH   1  16
HETATM   16  N1  UNL     1      11.225  35.004  17.945  1.00  0.00    -0.342 N 
HETATM   17  H4  UNL     1      11.342  34.010  17.839  1.00  0.00     0.167 HD
BRANCH  16  18
HETATM   18  C5  UNL     1      10.027  35.374  18.586  1.00  0.00     0.034 A 
HETATM   19  C4  UNL     1       9.129  36.206  17.895  1.00  0.00     0.029 A 
HETATM   20  C3  UNL     1       7.922  36.614  18.471  1.00  0.00     0.004 A 
HETATM   21  C2  UNL     1       7.588  36.192  19.755  1.00  0.00     0.019 A 
HETATM   22  C1  UNL     1       8.466  35.364  20.448  1.00  0.00     0.013 A 
HETATM   23 BR1  UNL     1       8.014  34.778  22.190  1.00  0.00    -0.051 Br
HETATM   24  C16 UNL     1       9.671  34.956  19.872  1.00  0.00     0.048 A 
ENDBRANCH  16  18
ENDBRANCH   1  16
TORSDOF 2
ENDMDL
MODEL 4
REMARK minimizedAffinity -6.65687656
REMARK  2 active torsions:
REMARK  status: ('A' for Active; 'I' for Inactive)
REMARK    1  A    between atoms: C5_6  and  N1_7 
REMARK    2  A    between atoms: N1_7  and  C6_8 
ROOT
HETATM    1  C6  UNL     1      11.971  36.550  20.973  1.00  0.00     0.120 A 
HETATM    2  N2  UNL     1      12.840  36.516  22.015  1.00  0.00    -0.338 N 
ATOM      3  H2  UNL     1      13.820  36.761  21.871  1.00  0.00     0.168 HD
HETATM    4  C7  UNL     1      12.408  36.161  23.231  1.00  0.00     0.182 A 
HETATM    5  N3  UNL     1      11.172  35.813  23.577  1.00  0.00    -0.346 N 
ATOM      6  H3  UNL     1      10.902  35.540  24.522  1.00  0.00     0.167 HD
HETATM    7  C8  UNL     1      10.319  35.863  22.541  1.00  0.00     0.090 A 
HETATM    8  S1  UNL     1       8.686  35.444  22.779  1.00  0.00    -0.075 SA
HETATM    9  C9  UNL     1       8.312  35.752  21.153  1.00  0.00    -0.008 A 
HETATM   10  C10 UNL     1       9.406  36.187  20.422  1.00  0.00    -0.028 A 
HETATM   11  C11 UNL     1      10.613  36.223  21.231  1.00  0.00     0.049 A 
HETATM   12  C12 UNL     1       9.266  36.541  18.967  1.00  0.00     0.041 C 
HETATM   13  C13 UNL     1       7.800  36.714  18.540  1.00  0.00     0.005 C 
HETATM   14  C14 UNL     1       6.910  35.597  19.099  1.00  0.00     0.005 C 
HETATM   15  C15 UNL     1       6.916  35.596  20.633  1.00  0.00     0.047 C 
ENDROOT
BRANCH   1  16
HETATM   16  N1  UNL     1      12.430  36.859  19.682  1.00  0.00    -0.342 N 
HETATM   17  H4  UNL     1      11.899  37.589  19.237  1.00  0.00     0.167 HD
BRANCH  16  18
HETATM   18  C5  UNL     1      13.363  36.232  18.835  1.00  0.00     0.034 A 
HETATM   19  C4  UNL     1      13.562  34.847  18.969  1.00  0.00     0.029 A 
HETATM   20  C3  UNL     1      14.474  34.159  18.162  1.00  0.00     0.004 A 
HETATM   21  C2  UNL     1      15.206  34.848  17.200  1.00  0.00     0.019 A 
HETATM   22  C1  UNL     1      15.016  36.219  17.053  1.00  0.00     0.013 A 
HETATM   23 BR1  UNL     1      16.001  37.161  15.740  1.00  0.00    -0.051 Br
HETATM   24  C16 UNL     1      14.104  36.906  17.859  1.00  0.00     0.048 A 
ENDBRANCH  16  18
ENDBRANCH   1  16
TORSDOF 2
ENDMDL
MODEL 5
REMARK minimizedAffinity -6.65093899
REMARK  2 active torsions:
REMARK  status: ('A' for Active; 'I' for Inactive)
REMARK    1  A    between atoms: C5_6  and  N1_7 
REMARK    2  A    between atoms: N1_7  and  C6_8 
ROOT
HETATM    1  C6  UNL     1      12.104  34.949  19.439  1.00  0.00     0.120 A 
HETATM    2  N2  UNL     1      12.996  35.054  18.423  1.00  0.00    -0.338 N 
ATOM      3  H2  UNL     1      13.980  34.836  18.581  1.00  0.00     0.168 HD
HETATM    4  C7  UNL     1      12.583  35.446  17.211  1.00  0.00     0.182 A 
HETATM    5  N3  UNL     1      11.344  35.767  16.848  1.00  0.00    -0.346 N 
ATOM      6  H3  UNL     1      11.089  36.071  15.908  1.00  0.00     0.167 HD
HETATM    7  C8  UNL     1      10.469  35.646  17.858  1.00  0.00     0.090 A 
HETATM    8  S1  UNL     1       8.829  36.021  17.596  1.00  0.00    -0.075 SA
HETATM    9  C9  UNL     1       8.425  35.634  19.197  1.00  0.00    -0.008 A 
HETATM   10  C10 UNL     1       9.515  35.205  19.938  1.00  0.00    -0.028 A 
HETATM   11  C11 UNL     1      10.743  35.242  19.160  1.00  0.00     0.049 A 
HETATM   12  C12 UNL     1       9.352  34.786  21.373  1.00  0.00     0.041 C 
HETATM   13  C13 UNL     1       7.882  34.548  21.755  1.00  0.00     0.005 C 
HETATM   14  C14 UNL     1       6.970  35.657  21.219  1.00  0.00     0.005 C 
HETATM   15  C15 UNL     1       7.013  35.722  19.687  1.00  0.00     0.047 C 
ENDROOT
BRANCH   1  16
HETATM   16  N1  UNL     1      12.542  34.601  20.728  1.00  0.00    -0.342 N 
HETATM   17  H4  UNL     1      12.178  33.718  21.045  1.00  0.00     0.167 HD
BRANCH  16  18
HETATM   18  C5  UNL     1      13.237  35.322  21.716  1.00  0.00     0.034 A 
HETATM   19  C4  UNL     1      12.492  36.004  22.695  1.00  0.00     0.029 A 
HETATM   20  C3  UNL     1      13.117  36.741  23.706  1.00  0.00     0.004 A 
HETATM   21  C2  UNL     1      14.506  36.808  23.758  1.00  0.00     0.019 A 
HETATM   22  C1  UNL     1      15.256  36.134  22.799  1.00  0.00     0.013 A 
HETATM   23 BR1  UNL     1      17.145  36.212  22.870  1.00  0.00    -0.051 Br
HETATM   24  C16 UNL     1      14.631  35.397  21.790  1.00  0.00     0.048 A 
ENDBRANCH  16  18
ENDBRANCH   1  16
TORSDOF 2
ENDMDL
MODEL 6
REMARK minimizedAffinity -6.51239109
REMARK  2 active torsions:
REMARK  status: ('A' for Active; 'I' for Inactive)
REMARK    1  A    between atoms: C5_6  and  N1_7 
REMARK    2  A    between atoms: N1_7  and  C6_8 
ROOT
HETATM    1  C6  UNL     1      17.684  50.696   6.564  1.00  0.00     0.120 A 
HETATM    2  N2  UNL     1      18.376  51.398   7.496  1.00  0.00    -0.338 N 
ATOM      3  H2  UNL     1      18.150  52.377   7.670  1.00  0.00     0.168 HD
HETATM    4  C7  UNL     1      19.357  50.802   8.186  1.00  0.00     0.182 A 
HETATM    5  N3  UNL     1      19.772  49.544   8.073  1.00  0.00    -0.346 N 
ATOM      6  H3  UNL     1      20.535  49.147   8.620  1.00  0.00     0.167 HD
HETATM    7  C8  UNL     1      19.071  48.856   7.158  1.00  0.00     0.090 A 
HETATM    8  S1  UNL     1      19.456  47.225   6.859  1.00  0.00    -0.075 SA
HETATM    9  C9  UNL     1      18.226  47.088   5.699  1.00  0.00    -0.008 A 
HETATM   10  C10 UNL     1      17.506  48.260   5.537  1.00  0.00    -0.028 A 
HETATM   11  C11 UNL     1      18.023  49.330   6.376  1.00  0.00     0.049 A 
HETATM   12  C12 UNL     1      16.353  48.327   4.573  1.00  0.00     0.041 C 
HETATM   13  C13 UNL     1      15.878  46.937   4.124  1.00  0.00     0.005 C 
HETATM   14  C14 UNL     1      17.057  46.020   3.775  1.00  0.00     0.005 C 
HETATM   15  C15 UNL     1      17.965  45.794   4.991  1.00  0.00     0.047 C 
ENDROOT
BRANCH   1  16
HETATM   16  N1  UNL     1      16.699  51.332   5.791  1.00  0.00    -0.342 N 
HETATM   17  H4  UNL     1      15.989  50.700   5.457  1.00  0.00     0.167 HD
BRANCH  16  18
HETATM   18  C5  UNL     1      16.609  52.629   5.253  1.00  0.00     0.034 A 
HETATM   19  C4  UNL     1      17.800  53.298   4.919  1.00  0.00     0.029 A 
HETATM   20  C3  UNL     1      17.786  54.589   4.382  1.00  0.00     0.004 A 
HETATM   21  C2  UNL     1      16.574  55.237   4.167  1.00  0.00     0.019 A 
HETATM   22  C1  UNL     1      15.387  54.585   4.488  1.00  0.00     0.013 A 
HETATM   23 BR1  UNL     1      13.735  55.458   4.188  1.00  0.00    -0.051 Br
HETATM   24  C16 UNL     1      15.401  53.295   5.024  1.00  0.00     0.048 A 
ENDBRANCH  16  18
ENDBRANCH   1  16
TORSDOF 2
ENDMDL
MODEL 7
REMARK minimizedAffinity -6.45461941
REMARK  2 active torsions:
REMARK  status: ('A' for Active; 'I' for Inactive)
REMARK    1  A    between atoms: C5_6  and  N1_7 
REMARK    2  A    between atoms: N1_7  and  C6_8 
ROOT
HETATM    1  C6  UNL     1      17.228  50.397   5.432  1.00  0.00     0.120 A 
HETATM    2  N2  UNL     1      16.833  49.681   4.350  1.00  0.00    -0.338 N 
ATOM      3  H2  UNL     1      16.057  50.008   3.776  1.00  0.00     0.168 HD
HETATM    4  C7  UNL     1      17.466  48.542   4.039  1.00  0.00     0.182 A 
HETATM    5  N3  UNL     1      18.485  47.984   4.685  1.00  0.00    -0.346 N 
ATOM      6  H3  UNL     1      18.921  47.106   4.407  1.00  0.00     0.167 HD
HETATM    7  C8  UNL     1      18.875  48.709   5.745  1.00  0.00     0.090 A 
HETATM    8  S1  UNL     1      20.164  48.157   6.711  1.00  0.00    -0.075 SA
HETATM    9  C9  UNL     1      20.055  49.508   7.730  1.00  0.00    -0.008 A 
HETATM   10  C10 UNL     1      19.060  50.393   7.345  1.00  0.00    -0.028 A 
HETATM   11  C11 UNL     1      18.329  49.910   6.186  1.00  0.00     0.049 A 
HETATM   12  C12 UNL     1      18.830  51.669   8.109  1.00  0.00     0.041 C 
HETATM   13  C13 UNL     1      19.996  52.013   9.048  1.00  0.00     0.005 C 
HETATM   14  C14 UNL     1      20.478  50.784   9.828  1.00  0.00     0.005 C 
HETATM   15  C15 UNL     1      20.994  49.692   8.882  1.00  0.00     0.047 C 
ENDROOT
BRANCH   1  16
HETATM   16  N1  UNL     1      16.528  51.558   5.803  1.00  0.00    -0.342 N 
HETATM   17  H4  UNL     1      15.852  51.397   6.532  1.00  0.00     0.167 HD
BRANCH  16  18
HETATM   18  C5  UNL     1      16.465  52.845   5.237  1.00  0.00     0.034 A 
HETATM   19  C4  UNL     1      17.671  53.510   4.954  1.00  0.00     0.029 A 
HETATM   20  C3  UNL     1      17.683  54.791   4.393  1.00  0.00     0.004 A 
HETATM   21  C2  UNL     1      16.483  55.433   4.103  1.00  0.00     0.019 A 
HETATM   22  C1  UNL     1      15.282  54.784   4.374  1.00  0.00     0.013 A 
HETATM   23 BR1  UNL     1      13.647  55.646   3.971  1.00  0.00    -0.051 Br
HETATM   24  C16 UNL     1      15.270  53.504   4.932  1.00  0.00     0.048 A 
ENDBRANCH  16  18
ENDBRANCH   1  16
TORSDOF 2
ENDMDL
MODEL 8
REMARK minimizedAffinity -6.39826441
REMARK  2 active torsions:
REMARK  status: ('A' for Active; 'I' for Inactive)
REMARK    1  A    between atoms: C5_6  and  N1_7 
REMARK    2  A    between atoms: N1_7  and  C6_8 
ROOT
HETATM    1  C6  UNL     1      13.283  57.832   3.787  1.00  0.00     0.120 A 
HETATM    2  N2  UNL     1      13.222  58.748   4.785  1.00  0.00    -0.338 N 
ATOM      3  H2  UNL     1      13.248  58.446   5.759  1.00  0.00     0.168 HD
HETATM    4  C7  UNL     1      13.126  60.050   4.488  1.00  0.00     0.182 A 
HETATM    5  N3  UNL     1      13.077  60.600   3.278  1.00  0.00    -0.346 N 
ATOM      6  H3  UNL     1      12.993  61.602   3.113  1.00  0.00     0.167 HD
HETATM    7  C8  UNL     1      13.152  59.684   2.299  1.00  0.00     0.090 A 
HETATM    8  S1  UNL     1      13.097  60.188   0.674  1.00  0.00    -0.075 SA
HETATM    9  C9  UNL     1      13.248  58.594   0.115  1.00  0.00    -0.008 A 
HETATM   10  C10 UNL     1      13.357  57.671   1.143  1.00  0.00    -0.028 A 
HETATM   11  C11 UNL     1      13.266  58.306   2.448  1.00  0.00     0.049 A 
HETATM   12  C12 UNL     1      13.531  56.207   0.847  1.00  0.00     0.041 C 
HETATM   13  C13 UNL     1      13.928  55.944  -0.614  1.00  0.00     0.005 C 
HETATM   14  C14 UNL     1      13.093  56.783  -1.589  1.00  0.00     0.005 C 
HETATM   15  C15 UNL     1      13.299  58.283  -1.349  1.00  0.00     0.047 C 
ENDROOT
BRANCH   1  16
HETATM   16  N1  UNL     1      13.318  56.460   4.090  1.00  0.00    -0.342 N 
HETATM   17  H4  UNL     1      12.408  56.073   4.276  1.00  0.00     0.167 HD
BRANCH  16  18
HETATM   18  C5  UNL     1      14.381  55.577   4.353  1.00  0.00     0.034 A 
HETATM   19  C4  UNL     1      14.087  54.331   4.935  1.00  0.00     0.029 A 
HETATM   20  C3  UNL     1      15.094  53.406   5.226  1.00  0.00     0.004 A 
HETATM   21  C2  UNL     1      16.421  53.710   4.936  1.00  0.00     0.019 A 
HETATM   22  C1  UNL     1      16.726  54.938   4.355  1.00  0.00     0.013 A 
HETATM   23 BR1  UNL     1      18.527  55.353   3.949  1.00  0.00    -0.051 Br
HETATM   24  C16 UNL     1      15.719  55.862   4.064  1.00  0.00     0.048 A 
ENDBRANCH  16  18
ENDBRANCH   1  16
TORSDOF 2
ENDMDL
MODEL 9
REMARK minimizedAffinity -6.35612965
REMARK  2 active torsions:
REMARK  status: ('A' for Active; 'I' for Inactive)
REMARK    1  A    between atoms: C5_6  and  N1_7 
REMARK    2  A    between atoms: N1_7  and  C6_8 
ROOT
HETATM    1  C6  UNL     1      17.478  50.920   6.316  1.00  0.00     0.120 A 
HETATM    2  N2  UNL     1      18.172  51.674   7.205  1.00  0.00    -0.338 N 
ATOM      3  H2  UNL     1      17.930  52.655   7.341  1.00  0.00     0.168 HD
HETATM    4  C7  UNL     1      19.174  51.126   7.904  1.00  0.00     0.182 A 
HETATM    5  N3  UNL     1      19.611  49.872   7.839  1.00  0.00    -0.346 N 
ATOM      6  H3  UNL     1      20.390  49.513   8.390  1.00  0.00     0.167 HD
HETATM    7  C8  UNL     1      18.909  49.133   6.965  1.00  0.00     0.090 A 
HETATM    8  S1  UNL     1      19.320  47.497   6.730  1.00  0.00    -0.075 SA
HETATM    9  C9  UNL     1      18.075  47.288   5.598  1.00  0.00    -0.008 A 
HETATM   10  C10 UNL     1      17.330  48.439   5.398  1.00  0.00    -0.028 A 
HETATM   11  C11 UNL     1      17.840  49.553   6.181  1.00  0.00     0.049 A 
HETATM   12  C12 UNL     1      16.161  48.443   4.451  1.00  0.00     0.041 C 
HETATM   13  C13 UNL     1      15.706  47.026   4.070  1.00  0.00     0.005 C 
HETATM   14  C14 UNL     1      16.896  46.117   3.741  1.00  0.00     0.005 C 
HETATM   15  C15 UNL     1      17.828  45.960   4.950  1.00  0.00     0.047 C 
ENDROOT
BRANCH   1  16
HETATM   16  N1  UNL     1      16.469  51.503   5.533  1.00  0.00    -0.342 N 
HETATM   17  H4  UNL     1      15.906  50.826   5.044  1.00  0.00     0.167 HD
BRANCH  16  18
HETATM   18  C5  UNL     1      16.208  52.836   5.166  1.00  0.00     0.034 A 
HETATM   19  C4  UNL     1      14.879  53.294   5.209  1.00  0.00     0.029 A 
HETATM   20  C3  UNL     1      14.547  54.606   4.856  1.00  0.00     0.004 A 
HETATM   21  C2  UNL     1      15.545  55.490   4.455  1.00  0.00     0.019 A 
HETATM   22  C1  UNL     1      16.865  55.052   4.413  1.00  0.00     0.013 A 
HETATM   23 BR1  UNL     1      18.227  56.251   3.879  1.00  0.00    -0.051 Br
HETATM   24  C16 UNL     1      17.196  53.741   4.766  1.00  0.00     0.048 A 
ENDBRANCH  16  18
ENDBRANCH   1  16
TORSDOF 2
ENDMDL
