MODEL 1
REMARK minimizedAffinity -7.75220776
REMARK  4 active torsions:
REMARK  status: ('A' for Active; 'I' for Inactive)
REMARK    1  A    between atoms: N1_1  and  C1_2 
REMARK    2  A    between atoms: C1_2  and  N2_4 
REMARK    3  A    between atoms: C2_7  and  C3_8 
REMARK    4  A    between atoms: C10_16  and  C11_17 
ROOT
HETATM    1  N2  UNL     1      12.693  35.916  17.273  1.00  0.00    -0.258 N 
HETATM    2  N3  UNL     1      11.410  36.244  17.675  1.00  0.00    -0.299 N 
ATOM      3  H3  UNL     1      10.870  37.058  17.383  1.00  0.00     0.187 HD
HETATM    4  C2  UNL     1      11.025  35.313  18.497  1.00  0.00     0.038 C 
HETATM    5  C9  UNL     1      12.002  34.182  18.691  1.00  0.00     0.091 C 
HETATM    6  C10 UNL     1      13.236  34.767  18.013  1.00  0.00     0.149 C 
ENDROOT
BRANCH   6   7
HETATM    7  C11 UNL     1      14.297  35.144  19.034  1.00  0.00    -0.032 A 
HETATM    8  C12 UNL     1      15.567  34.558  18.960  1.00  0.00     0.010 A 
HETATM    9  C13 UNL     1      16.550  34.864  19.905  1.00  0.00     0.013 A 
HETATM   10  C14 UNL     1      16.286  35.759  20.953  1.00  0.00    -0.026 A 
HETATM   11  C15 UNL     1      17.263  36.075  21.911  1.00  0.00     0.012 A 
HETATM   12  C19 UNL     1      15.010  36.357  21.043  1.00  0.00    -0.025 A 
HETATM   13  C16 UNL     1      16.984  36.969  22.945  1.00  0.00     0.001 A 
HETATM   14  C17 UNL     1      15.727  37.559  23.035  1.00  0.00     0.001 A 
HETATM   15  C18 UNL     1      14.747  37.256  22.089  1.00  0.00     0.012 A 
HETATM   16  C20 UNL     1      14.032  36.041  20.085  1.00  0.00     0.021 A 
ENDBRANCH   6   7
BRANCH   1  17
HETATM   17  C1  UNL     1      13.312  36.628  16.261  1.00  0.00     0.187 C 
HETATM   18  S1  UNL     1      14.693  37.553  16.377  1.00  0.00    -0.040 SA
BRANCH  17  19
HETATM   19  N1  UNL     1      12.692  36.508  15.051  1.00  0.00    -0.375 N 
HETATM   20  H1  UNL     1      12.991  37.058  14.260  1.00  0.00     0.158 HD
HETATM   21  H2  UNL     1      11.796  36.037  15.050  1.00  0.00     0.158 HD
ENDBRANCH  17  19
ENDBRANCH   1  17
BRANCH   4  22
HETATM   22  C3  UNL     1       9.704  35.326  19.171  1.00  0.00    -0.012 A 
HETATM   23  C4  UNL     1       8.657  36.134  18.710  1.00  0.00     0.016 A 
HETATM   24  C5  UNL     1       7.424  36.122  19.369  1.00  0.00     0.043 A 
HETATM   25  C6  UNL     1       7.244  35.305  20.480  1.00  0.00     0.116 A 
HETATM   26  F1  UNL     1       6.061  35.297  21.108  1.00  0.00    -0.206 F 
HETATM   27  C7  UNL     1       8.275  34.501  20.950  1.00  0.00     0.043 A 
HETATM   28  C8  UNL     1       9.508  34.510  20.295  1.00  0.00     0.016 A 
ENDBRANCH   4  22
TORSDOF 4
ENDMDL
MODEL 2
REMARK minimizedAffinity -7.4858079
REMARK  4 active torsions:
REMARK  status: ('A' for Active; 'I' for Inactive)
REMARK    1  A    between atoms: N1_1  and  C1_2 
REMARK    2  A    between atoms: C1_2  and  N2_4 
REMARK    3  A    between atoms: C2_7  and  C3_8 
REMARK    4  A    between atoms: C10_16  and  C11_17 
ROOT
HETATM    1  N2  UNL     1      14.236  35.199  20.059  1.00  0.00    -0.258 N 
HETATM    2  N3  UNL     1      15.198  35.585  19.141  1.00  0.00    -0.299 N 
ATOM      3  H3  UNL     1      15.874  36.341  19.251  1.00  0.00     0.187 HD
HETATM    4  C2  UNL     1      15.073  34.799  18.113  1.00  0.00     0.038 C 
HETATM    5  C9  UNL     1      14.035  33.716  18.254  1.00  0.00     0.091 C 
HETATM    6  C10 UNL     1      13.320  34.185  19.516  1.00  0.00     0.149 C 
ENDROOT
BRANCH   6   7
HETATM    7  C11 UNL     1      11.935  34.724  19.194  1.00  0.00    -0.032 A 
HETATM    8  C12 UNL     1      11.737  35.467  18.023  1.00  0.00     0.010 A 
HETATM    9  C13 UNL     1      10.482  36.001  17.720  1.00  0.00     0.013 A 
HETATM   10  C14 UNL     1       9.392  35.810  18.583  1.00  0.00    -0.026 A 
HETATM   11  C15 UNL     1       8.125  36.341  18.293  1.00  0.00     0.012 A 
HETATM   12  C19 UNL     1       9.575  35.064  19.768  1.00  0.00    -0.025 A 
HETATM   13  C16 UNL     1       7.052  36.139  19.162  1.00  0.00     0.001 A 
HETATM   14  C17 UNL     1       7.231  35.404  20.330  1.00  0.00     0.001 A 
HETATM   15  C18 UNL     1       8.484  34.869  20.631  1.00  0.00     0.012 A 
HETATM   16  C20 UNL     1      10.842  34.532  20.060  1.00  0.00     0.021 A 
ENDBRANCH   6   7
BRANCH   1  17
HETATM   17  C1  UNL     1      14.229  35.738  21.333  1.00  0.00     0.187 C 
HETATM   18  S1  UNL     1      13.094  36.769  21.985  1.00  0.00    -0.040 SA
BRANCH  17  19
HETATM   19  N1  UNL     1      15.279  35.332  22.104  1.00  0.00    -0.375 N 
HETATM   20  H1  UNL     1      15.437  35.733  23.016  1.00  0.00     0.158 HD
HETATM   21  H2  UNL     1      16.004  34.804  21.635  1.00  0.00     0.158 HD
ENDBRANCH  17  19
ENDBRANCH   1  17
BRANCH   4  22
HETATM   22  C3  UNL     1      15.914  34.919  16.898  1.00  0.00    -0.012 A 
HETATM   23  C4  UNL     1      17.195  34.354  16.836  1.00  0.00     0.016 A 
HETATM   24  C5  UNL     1      17.960  34.487  15.674  1.00  0.00     0.043 A 
HETATM   25  C6  UNL     1      17.445  35.180  14.584  1.00  0.00     0.116 A 
HETATM   26  F1  UNL     1      18.183  35.304  13.473  1.00  0.00    -0.206 F 
HETATM   27  C7  UNL     1      16.178  35.748  14.632  1.00  0.00     0.043 A 
HETATM   28  C8  UNL     1      15.410  35.618  15.791  1.00  0.00     0.016 A 
ENDBRANCH   4  22
TORSDOF 4
ENDMDL
MODEL 3
REMARK minimizedAffinity -7.4310751
REMARK  4 active torsions:
REMARK  status: ('A' for Active; 'I' for Inactive)
REMARK    1  A    between atoms: N1_1  and  C1_2 
REMARK    2  A    between atoms: C1_2  and  N2_4 
REMARK    3  A    between atoms: C2_7  and  C3_8 
REMARK    4  A    between atoms: C10_16  and  C11_17 
ROOT
HETATM    1  N2  UNL     1      14.043  35.226  19.407  1.00  0.00    -0.258 N 
HETATM    2  N3  UNL     1      14.803  36.197  18.776  1.00  0.00    -0.299 N 
ATOM      3  H3  UNL     1      15.406  36.884  19.227  1.00  0.00     0.187 HD
HETATM    4  C2  UNL     1      14.597  36.063  17.499  1.00  0.00     0.038 C 
HETATM    5  C9  UNL     1      13.711  34.909  17.108  1.00  0.00     0.091 C 
HETATM    6  C10 UNL     1      13.160  34.511  18.473  1.00  0.00     0.149 C 
ENDROOT
BRANCH   6   7
HETATM    7  C11 UNL     1      11.694  34.892  18.606  1.00  0.00    -0.032 A 
HETATM    8  C12 UNL     1      11.094  35.686  17.620  1.00  0.00     0.010 A 
HETATM    9  C13 UNL     1       9.757  36.076  17.735  1.00  0.00     0.013 A 
HETATM   10  C14 UNL     1       8.987  35.688  18.842  1.00  0.00    -0.026 A 
HETATM   11  C15 UNL     1       7.643  36.073  18.971  1.00  0.00     0.012 A 
HETATM   12  C19 UNL     1       9.578  34.889  19.845  1.00  0.00    -0.025 A 
HETATM   13  C16 UNL     1       6.891  35.676  20.078  1.00  0.00     0.001 A 
HETATM   14  C17 UNL     1       7.473  34.889  21.067  1.00  0.00     0.001 A 
HETATM   15  C18 UNL     1       8.807  34.497  20.952  1.00  0.00     0.012 A 
HETATM   16  C20 UNL     1      10.922  34.503  19.716  1.00  0.00     0.021 A 
ENDBRANCH   6   7
BRANCH   1  17
HETATM   17  C1  UNL     1      14.183  35.003  20.765  1.00  0.00     0.187 C 
HETATM   18  S1  UNL     1      13.776  36.039  22.004  1.00  0.00    -0.040 SA
BRANCH  17  19
HETATM   19  N1  UNL     1      14.695  33.774  21.067  1.00  0.00    -0.375 N 
HETATM   20  H1  UNL     1      14.935  33.532  22.016  1.00  0.00     0.158 HD
HETATM   21  H2  UNL     1      15.036  33.226  20.287  1.00  0.00     0.158 HD
ENDBRANCH  17  19
ENDBRANCH   1  17
BRANCH   4  22
HETATM   22  C3  UNL     1      15.218  36.948  16.485  1.00  0.00    -0.012 A 
HETATM   23  C4  UNL     1      14.824  38.285  16.342  1.00  0.00     0.016 A 
HETATM   24  C5  UNL     1      15.432  39.091  15.375  1.00  0.00     0.043 A 
HETATM   25  C6  UNL     1      16.426  38.561  14.559  1.00  0.00     0.116 A 
HETATM   26  F1  UNL     1      17.004  39.338  13.635  1.00  0.00    -0.206 F 
HETATM   27  C7  UNL     1      16.824  37.236  14.689  1.00  0.00     0.043 A 
HETATM   28  C8  UNL     1      16.220  36.427  15.652  1.00  0.00     0.016 A 
ENDBRANCH   4  22
TORSDOF 4
ENDMDL
MODEL 4
REMARK minimizedAffinity -7.41805553
REMARK  4 active torsions:
REMARK  status: ('A' for Active; 'I' for Inactive)
REMARK    1  A    between atoms: N1_1  and  C1_2 
REMARK    2  A    between atoms: C1_2  and  N2_4 
REMARK    3  A    between atoms: C2_7  and  C3_8 
REMARK    4  A    between atoms: C10_16  and  C11_17 
ROOT
HETATM    1  N2  UNL     1      13.475  35.826  17.005  1.00  0.00    -0.258 N 
HETATM    2  N3  UNL     1      12.162  36.181  17.263  1.00  0.00    -0.299 N 
ATOM      3  H3  UNL     1      11.656  36.971  16.861  1.00  0.00     0.187 HD
HETATM    4  C2  UNL     1      11.698  35.314  18.114  1.00  0.00     0.038 C 
HETATM    5  C9  UNL     1      12.647  34.203  18.481  1.00  0.00     0.091 C 
HETATM    6  C10 UNL     1      13.941  34.737  17.876  1.00  0.00     0.149 C 
ENDROOT
BRANCH   6   7
HETATM    7  C11 UNL     1      14.906  35.192  18.959  1.00  0.00    -0.032 A 
HETATM    8  C12 UNL     1      14.527  35.103  20.305  1.00  0.00     0.010 A 
HETATM    9  C13 UNL     1      15.384  35.543  21.318  1.00  0.00     0.013 A 
HETATM   10  C14 UNL     1      16.639  36.090  21.011  1.00  0.00    -0.026 A 
HETATM   11  C15 UNL     1      17.509  36.539  22.017  1.00  0.00     0.012 A 
HETATM   12  C19 UNL     1      17.035  36.188  19.659  1.00  0.00    -0.025 A 
HETATM   13  C16 UNL     1      18.755  37.078  21.693  1.00  0.00     0.001 A 
HETATM   14  C17 UNL     1      19.147  37.175  20.362  1.00  0.00     0.001 A 
HETATM   15  C18 UNL     1      18.292  36.733  19.351  1.00  0.00     0.012 A 
HETATM   16  C20 UNL     1      16.165  35.740  18.651  1.00  0.00     0.021 A 
ENDBRANCH   6   7
BRANCH   1  17
HETATM   17  C1  UNL     1      14.187  36.460  16.003  1.00  0.00     0.187 C 
HETATM   18  S1  UNL     1      14.712  38.041  15.986  1.00  0.00    -0.040 SA
BRANCH  17  19
HETATM   19  N1  UNL     1      14.483  35.650  14.946  1.00  0.00    -0.375 N 
HETATM   20  H1  UNL     1      14.911  36.022  14.112  1.00  0.00     0.158 HD
HETATM   21  H2  UNL     1      14.045  34.737  14.944  1.00  0.00     0.158 HD
ENDBRANCH  17  19
ENDBRANCH   1  17
BRANCH   4  22
HETATM   22  C3  UNL     1      10.322  35.377  18.661  1.00  0.00    -0.012 A 
HETATM   23  C4  UNL     1       9.978  34.727  19.854  1.00  0.00     0.016 A 
HETATM   24  C5  UNL     1       8.670  34.807  20.341  1.00  0.00     0.043 A 
HETATM   25  C6  UNL     1       7.716  35.534  19.637  1.00  0.00     0.116 A 
HETATM   26  F1  UNL     1       6.464  35.607  20.109  1.00  0.00    -0.206 F 
HETATM   27  C7  UNL     1       8.041  36.181  18.452  1.00  0.00     0.043 A 
HETATM   28  C8  UNL     1       9.346  36.103  17.961  1.00  0.00     0.016 A 
ENDBRANCH   4  22
TORSDOF 4
ENDMDL
MODEL 5
REMARK minimizedAffinity -7.36876392
REMARK  4 active torsions:
REMARK  status: ('A' for Active; 'I' for Inactive)
REMARK    1  A    between atoms: N1_1  and  C1_2 
REMARK    2  A    between atoms: C1_2  and  N2_4 
REMARK    3  A    between atoms: C2_7  and  C3_8 
REMARK    4  A    between atoms: C10_16  and  C11_17 
ROOT
HETATM    1  N2  UNL     1      14.512  37.380  16.085  1.00  0.00    -0.258 N 
HETATM    2  N3  UNL     1      14.568  38.663  15.567  1.00  0.00    -0.299 N 
ATOM      3  H3  UNL     1      13.836  39.137  15.038  1.00  0.00     0.187 HD
HETATM    4  C2  UNL     1      15.732  39.147  15.887  1.00  0.00     0.038 C 
HETATM    5  C9  UNL     1      16.588  38.250  16.742  1.00  0.00     0.091 C 
HETATM    6  C10 UNL     1      15.800  36.948  16.648  1.00  0.00     0.149 C 
ENDROOT
BRANCH   6   7
HETATM    7  C11 UNL     1      16.529  35.926  15.790  1.00  0.00    -0.032 A 
HETATM    8  C12 UNL     1      17.581  35.184  16.343  1.00  0.00     0.010 A 
HETATM    9  C13 UNL     1      18.288  34.261  15.567  1.00  0.00     0.013 A 
HETATM   10  C14 UNL     1      17.964  34.060  14.217  1.00  0.00    -0.026 A 
HETATM   11  C15 UNL     1      18.666  33.137  13.424  1.00  0.00     0.012 A 
HETATM   12  C19 UNL     1      16.907  34.800  13.644  1.00  0.00    -0.025 A 
HETATM   13  C16 UNL     1      18.329  32.948  12.083  1.00  0.00     0.001 A 
HETATM   14  C17 UNL     1      17.287  33.677  11.518  1.00  0.00     0.001 A 
HETATM   15  C18 UNL     1      16.580  34.597  12.293  1.00  0.00     0.012 A 
HETATM   16  C20 UNL     1      16.205  35.724  14.436  1.00  0.00     0.021 A 
ENDBRANCH   6   7
BRANCH   1  17
HETATM   17  C1  UNL     1      13.328  36.666  16.057  1.00  0.00     0.187 C 
HETATM   18  S1  UNL     1      12.594  35.882  17.330  1.00  0.00    -0.040 SA
BRANCH  17  19
HETATM   19  N1  UNL     1      12.726  36.653  14.832  1.00  0.00    -0.375 N 
HETATM   20  H1  UNL     1      11.911  36.084  14.662  1.00  0.00     0.158 HD
HETATM   21  H2  UNL     1      13.262  37.039  14.064  1.00  0.00     0.158 HD
ENDBRANCH  17  19
ENDBRANCH   1  17
BRANCH   4  22
HETATM   22  C3  UNL     1      16.182  40.500  15.482  1.00  0.00    -0.012 A 
HETATM   23  C4  UNL     1      16.669  40.754  14.193  1.00  0.00     0.016 A 
HETATM   24  C5  UNL     1      17.085  42.043  13.845  1.00  0.00     0.043 A 
HETATM   25  C6  UNL     1      17.012  43.067  14.782  1.00  0.00     0.116 A 
HETATM   26  F1  UNL     1      17.412  44.300  14.443  1.00  0.00    -0.206 F 
HETATM   27  C7  UNL     1      16.534  42.830  16.065  1.00  0.00     0.043 A 
HETATM   28  C8  UNL     1      16.118  41.545  16.417  1.00  0.00     0.016 A 
ENDBRANCH   4  22
TORSDOF 4
ENDMDL
MODEL 6
REMARK minimizedAffinity -7.29641771
REMARK  4 active torsions:
REMARK  status: ('A' for Active; 'I' for Inactive)
REMARK    1  A    between atoms: N1_1  and  C1_2 
REMARK    2  A    between atoms: C1_2  and  N2_4 
REMARK    3  A    between atoms: C2_7  and  C3_8 
REMARK    4  A    between atoms: C10_16  and  C11_17 
ROOT
HETATM    1  N2  UNL     1       5.030  65.245  -6.839  1.00  0.00    -0.258 N 
HETATM    2  N3  UNL     1       5.854  64.163  -7.101  1.00  0.00    -0.299 N 
ATOM      3  H3  UNL     1       5.927  63.654  -7.981  1.00  0.00     0.187 HD
HETATM    4  C2  UNL     1       6.517  63.923  -6.008  1.00  0.00     0.038 C 
HETATM    5  C9  UNL     1       6.264  64.886  -4.878  1.00  0.00     0.091 C 
HETATM    6  C10 UNL     1       5.051  65.634  -5.421  1.00  0.00     0.149 C 
ENDROOT
BRANCH   6   7
HETATM    7  C11 UNL     1       3.788  65.254  -4.665  1.00  0.00    -0.032 A 
HETATM    8  C12 UNL     1       3.861  64.966  -3.296  1.00  0.00     0.010 A 
HETATM    9  C13 UNL     1       2.720  64.584  -2.585  1.00  0.00     0.013 A 
HETATM   10  C14 UNL     1       1.477  64.473  -3.226  1.00  0.00    -0.026 A 
HETATM   11  C15 UNL     1       0.323  64.089  -2.526  1.00  0.00     0.012 A 
HETATM   12  C19 UNL     1       1.387  64.758  -4.606  1.00  0.00    -0.025 A 
HETATM   13  C16 UNL     1      -0.906  63.986  -3.179  1.00  0.00     0.001 A 
HETATM   14  C17 UNL     1      -0.997  64.266  -4.539  1.00  0.00     0.001 A 
HETATM   15  C18 UNL     1       0.142  64.650  -5.248  1.00  0.00     0.012 A 
HETATM   16  C20 UNL     1       2.542  65.143  -5.308  1.00  0.00     0.021 A 
ENDBRANCH   6   7
BRANCH   1  17
HETATM   17  C1  UNL     1       4.323  65.848  -7.863  1.00  0.00     0.187 C 
HETATM   18  S1  UNL     1       3.990  67.471  -8.038  1.00  0.00    -0.040 SA
BRANCH  17  19
HETATM   19  N1  UNL     1       3.891  64.974  -8.818  1.00  0.00    -0.375 N 
HETATM   20  H1  UNL     1       3.281  65.280  -9.561  1.00  0.00     0.158 HD
HETATM   21  H2  UNL     1       4.011  63.990  -8.614  1.00  0.00     0.158 HD
ENDBRANCH  17  19
ENDBRANCH   1  17
BRANCH   4  22
HETATM   22  C3  UNL     1       7.488  62.810  -5.881  1.00  0.00    -0.012 A 
HETATM   23  C4  UNL     1       8.870  63.040  -5.896  1.00  0.00     0.016 A 
HETATM   24  C5  UNL     1       9.757  61.967  -5.773  1.00  0.00     0.043 A 
HETATM   25  C6  UNL     1       9.262  60.674  -5.638  1.00  0.00     0.116 A 
HETATM   26  F1  UNL     1      10.117  59.650  -5.521  1.00  0.00    -0.206 F 
HETATM   27  C7  UNL     1       7.895  60.431  -5.625  1.00  0.00     0.043 A 
HETATM   28  C8  UNL     1       7.005  61.500  -5.747  1.00  0.00     0.016 A 
ENDBRANCH   4  22
TORSDOF 4
ENDMDL
MODEL 7
REMARK minimizedAffinity -7.19310522
REMARK  4 active torsions:
REMARK  status: ('A' for Active; 'I' for Inactive)
REMARK    1  A    between atoms: N1_1  and  C1_2 
REMARK    2  A    between atoms: C1_2  and  N2_4 
REMARK    3  A    between atoms: C2_7  and  C3_8 
REMARK    4  A    between atoms: C10_16  and  C11_17 
ROOT
HETATM    1  N2  UNL     1      13.998  58.490   2.939  1.00  0.00    -0.258 N 
HETATM    2  N3  UNL     1      14.198  57.122   3.003  1.00  0.00    -0.299 N 
ATOM      3  H3  UNL     1      13.788  56.418   2.390  1.00  0.00     0.187 HD
HETATM    4  C2  UNL     1      15.011  56.908   3.996  1.00  0.00     0.038 C 
HETATM    5  C9  UNL     1      15.523  58.145   4.686  1.00  0.00     0.091 C 
HETATM    6  C10 UNL     1      14.606  59.199   4.075  1.00  0.00     0.149 C 
ENDROOT
BRANCH   6   7
HETATM    7  C11 UNL     1      13.595  59.703   5.092  1.00  0.00    -0.032 A 
HETATM    8  C12 UNL     1      12.852  60.858   4.814  1.00  0.00     0.010 A 
HETATM    9  C13 UNL     1      11.939  61.361   5.745  1.00  0.00     0.013 A 
HETATM   10  C14 UNL     1      11.750  60.725   6.981  1.00  0.00    -0.026 A 
HETATM   11  C15 UNL     1      10.837  61.218   7.927  1.00  0.00     0.012 A 
HETATM   12  C19 UNL     1      12.492  59.561   7.277  1.00  0.00    -0.025 A 
HETATM   13  C16 UNL     1      10.660  60.572   9.152  1.00  0.00     0.001 A 
HETATM   14  C17 UNL     1      11.391  59.425   9.445  1.00  0.00     0.001 A 
HETATM   15  C18 UNL     1      12.301  58.922   8.514  1.00  0.00     0.012 A 
HETATM   16  C20 UNL     1      13.405  59.066   6.331  1.00  0.00     0.021 A 
ENDBRANCH   6   7
BRANCH   1  17
HETATM   17  C1  UNL     1      13.312  59.046   1.874  1.00  0.00     0.187 C 
HETATM   18  S1  UNL     1      13.371  60.628   1.353  1.00  0.00    -0.040 SA
BRANCH  17  19
HETATM   19  N1  UNL     1      12.534  58.152   1.198  1.00  0.00    -0.375 N 
HETATM   20  H1  UNL     1      11.911  58.458   0.466  1.00  0.00     0.158 HD
HETATM   21  H2  UNL     1      12.435  57.236   1.617  1.00  0.00     0.158 HD
ENDBRANCH  17  19
ENDBRANCH   1  17
BRANCH   4  22
HETATM   22  C3  UNL     1      15.445  55.551   4.405  1.00  0.00    -0.012 A 
HETATM   23  C4  UNL     1      14.529  54.598   4.870  1.00  0.00     0.016 A 
HETATM   24  C5  UNL     1      14.974  53.327   5.247  1.00  0.00     0.043 A 
HETATM   25  C6  UNL     1      16.326  53.016   5.158  1.00  0.00     0.116 A 
HETATM   26  F1  UNL     1      16.746  51.796   5.520  1.00  0.00    -0.206 F 
HETATM   27  C7  UNL     1      17.246  53.951   4.701  1.00  0.00     0.043 A 
HETATM   28  C8  UNL     1      16.807  55.221   4.324  1.00  0.00     0.016 A 
ENDBRANCH   4  22
TORSDOF 4
ENDMDL
MODEL 8
REMARK minimizedAffinity -7.14330292
REMARK  4 active torsions:
REMARK  status: ('A' for Active; 'I' for Inactive)
REMARK    1  A    between atoms: N1_1  and  C1_2 
REMARK    2  A    between atoms: C1_2  and  N2_4 
REMARK    3  A    between atoms: C2_7  and  C3_8 
REMARK    4  A    between atoms: C10_16  and  C11_17 
ROOT
HETATM    1  N2  UNL     1      17.948  51.215   6.156  1.00  0.00    -0.258 N 
HETATM    2  N3  UNL     1      18.264  51.260   7.504  1.00  0.00    -0.299 N 
ATOM      3  H3  UNL     1      18.055  50.546   8.201  1.00  0.00     0.187 HD
HETATM    4  C2  UNL     1      18.878  52.388   7.707  1.00  0.00     0.038 C 
HETATM    5  C9  UNL     1      19.120  53.220   6.475  1.00  0.00     0.091 C 
HETATM    6  C10 UNL     1      18.245  52.481   5.469  1.00  0.00     0.149 C 
ENDROOT
BRANCH   6   7
HETATM    7  C11 UNL     1      17.007  53.290   5.118  1.00  0.00    -0.032 A 
HETATM    8  C12 UNL     1      15.748  52.849   5.547  1.00  0.00     0.010 A 
HETATM    9  C13 UNL     1      14.591  53.557   5.211  1.00  0.00     0.013 A 
HETATM   10  C14 UNL     1      14.662  54.722   4.432  1.00  0.00    -0.026 A 
HETATM   11  C15 UNL     1      13.509  55.443   4.085  1.00  0.00     0.012 A 
HETATM   12  C19 UNL     1      15.923  55.178   3.990  1.00  0.00    -0.025 A 
HETATM   13  C16 UNL     1      13.598  56.601   3.311  1.00  0.00     0.001 A 
HETATM   14  C17 UNL     1      14.840  57.052   2.875  1.00  0.00     0.001 A 
HETATM   15  C18 UNL     1      15.996  56.346   3.213  1.00  0.00     0.012 A 
HETATM   16  C20 UNL     1      17.078  54.457   4.337  1.00  0.00     0.021 A 
ENDBRANCH   6   7
BRANCH   1  17
HETATM   17  C1  UNL     1      17.438  50.057   5.597  1.00  0.00     0.187 C 
HETATM   18  S1  UNL     1      17.319  48.558   6.314  1.00  0.00    -0.040 SA
BRANCH  17  19
HETATM   19  N1  UNL     1      16.977  50.223   4.323  1.00  0.00    -0.375 N 
HETATM   20  H1  UNL     1      16.674  49.432   3.775  1.00  0.00     0.158 HD
HETATM   21  H2  UNL     1      17.177  51.114   3.886  1.00  0.00     0.158 HD
ENDBRANCH  17  19
ENDBRANCH   1  17
BRANCH   4  22
HETATM   22  C3  UNL     1      19.353  52.818   9.045  1.00  0.00    -0.012 A 
HETATM   23  C4  UNL     1      19.633  51.888  10.055  1.00  0.00     0.016 A 
HETATM   24  C5  UNL     1      20.079  52.330  11.304  1.00  0.00     0.043 A 
HETATM   25  C6  UNL     1      20.242  53.691  11.537  1.00  0.00     0.116 A 
HETATM   26  F1  UNL     1      20.670  54.108  12.737  1.00  0.00    -0.206 F 
HETATM   27  C7  UNL     1      19.965  54.623  10.546  1.00  0.00     0.043 A 
HETATM   28  C8  UNL     1      19.519  54.188   9.297  1.00  0.00     0.016 A 
ENDBRANCH   4  22
TORSDOF 4
ENDMDL
MODEL 9
REMARK minimizedAffinity -7.11523438
REMARK  4 active torsions:
REMARK  status: ('A' for Active; 'I' for Inactive)
REMARK    1  A    between atoms: N1_1  and  C1_2 
REMARK    2  A    between atoms: C1_2  and  N2_4 
REMARK    3  A    between atoms: C2_7  and  C3_8 
REMARK    4  A    between atoms: C10_16  and  C11_17 
ROOT
HETATM    1  N2  UNL     1      14.327  35.396  19.840  1.00  0.00    -0.258 N 
HETATM    2  N3  UNL     1      14.868  36.589  19.393  1.00  0.00    -0.299 N 
ATOM      3  H3  UNL     1      15.437  37.239  19.935  1.00  0.00     0.187 HD
HETATM    4  C2  UNL     1      14.510  36.722  18.150  1.00  0.00     0.038 C 
HETATM    5  C9  UNL     1      13.729  35.567  17.579  1.00  0.00     0.091 C 
HETATM    6  C10 UNL     1      13.421  34.788  18.853  1.00  0.00     0.149 C 
ENDROOT
BRANCH   6   7
HETATM    7  C11 UNL     1      11.951  34.900  19.223  1.00  0.00    -0.032 A 
HETATM    8  C12 UNL     1      11.428  34.080  20.232  1.00  0.00     0.010 A 
HETATM    9  C13 UNL     1      10.074  34.141  20.571  1.00  0.00     0.013 A 
HETATM   10  C14 UNL     1       9.205  35.018  19.904  1.00  0.00    -0.026 A 
HETATM   11  C15 UNL     1       7.842  35.089  20.231  1.00  0.00     0.012 A 
HETATM   12  C19 UNL     1       9.716  35.849  18.883  1.00  0.00    -0.025 A 
HETATM   13  C16 UNL     1       6.992  35.970  19.559  1.00  0.00     0.001 A 
HETATM   14  C17 UNL     1       7.494  36.789  18.553  1.00  0.00     0.001 A 
HETATM   15  C18 UNL     1       8.848  36.730  18.217  1.00  0.00     0.012 A 
HETATM   16  C20 UNL     1      11.080  35.779  18.555  1.00  0.00     0.021 A 
ENDBRANCH   6   7
BRANCH   1  17
HETATM   17  C1  UNL     1      14.675  34.891  21.079  1.00  0.00     0.187 C 
HETATM   18  S1  UNL     1      14.904  35.749  22.489  1.00  0.00    -0.040 SA
BRANCH  17  19
HETATM   19  N1  UNL     1      14.813  33.533  21.098  1.00  0.00    -0.375 N 
HETATM   20  H1  UNL     1      15.160  33.059  21.918  1.00  0.00     0.158 HD
HETATM   21  H2  UNL     1      14.782  33.067  20.200  1.00  0.00     0.158 HD
ENDBRANCH  17  19
ENDBRANCH   1  17
BRANCH   4  22
HETATM   22  C3  UNL     1      14.874  37.900  17.327  1.00  0.00    -0.012 A 
HETATM   23  C4  UNL     1      14.881  37.840  15.927  1.00  0.00     0.016 A 
HETATM   24  C5  UNL     1      15.229  38.971  15.182  1.00  0.00     0.043 A 
HETATM   25  C6  UNL     1      15.566  40.151  15.836  1.00  0.00     0.116 A 
HETATM   26  F1  UNL     1      15.899  41.231  15.117  1.00  0.00    -0.206 F 
HETATM   27  C7  UNL     1      15.566  40.224  17.223  1.00  0.00     0.043 A 
HETATM   28  C8  UNL     1      15.220  39.098  17.972  1.00  0.00     0.016 A 
ENDBRANCH   4  22
TORSDOF 4
ENDMDL
