MODEL 1
REMARK minimizedAffinity -11.0488014
REMARK CNNscore 0.812796712
REMARK CNNaffinity 7.96756744
REMARK  6 active torsions:
REMARK  status: ('A' for Active; 'I' for Inactive)
REMARK    1  A    between atoms: O1_2  and  C2_3 
REMARK    2  A    between atoms: C3_4  and  N1_5 
REMARK       I    between atoms: N1_5  and  C5_7 
REMARK    3  A    between atoms: C5_7  and  C6_9 
REMARK    4  A    between atoms: C6_9  and  N2_10 
REMARK    5  A    between atoms: C8_12  and  N4_33 
REMARK    6  A    between atoms: C9_14  and  N3_16 
ROOT
HETATM    1  C2  UNL     1      -0.663   6.819  13.971  1.00  0.00     0.199 C 
HETATM    2  C3  UNL     1      -0.370   8.333  13.904  1.00  0.00     0.124 C 
HETATM    3  C7  UNL     1      -0.962   8.901  12.611  1.00  0.00     0.082 C 
HETATM    4  C8  UNL     1      -2.436   8.499  12.469  1.00  0.00     0.233 C 
HETATM    5  O3  UNL     1      -2.969   7.782  13.583  1.00  0.00    -0.333 OA
HETATM    6  C9  UNL     1      -2.217   6.647  14.091  1.00  0.00     0.168 C 
HETATM    7  C10 UNL     1      -2.632   6.708  15.581  1.00  0.00     0.074 C 
ENDROOT
BRANCH   2   8
HETATM    8  N1  UNL     1       1.042   8.698  14.186  1.00  0.00    -0.347 N 
HETATM    9  C4  UNL     1       1.739   9.384  13.101  1.00  0.00     0.153 C 
HETATM   10  C5  UNL     1       1.663   8.383  15.396  1.00  0.00     0.247 C 
HETATM   11  O2  UNL     1       1.073   7.851  16.338  1.00  0.00    -0.271 OA
BRANCH  10  12
HETATM   12  C6  UNL     1       3.159   8.697  15.561  1.00  0.00     0.369 C 
BRANCH  12  13
HETATM   13  N2  UNL     1       3.983   7.510  15.283  1.00  0.00     0.087 N 
HETATM   14  H11 UNL     1       3.685   6.765  15.917  1.00  0.00     0.313 HD
HETATM   15  H12 UNL     1       4.947   7.718  15.544  1.00  0.00     0.313 HD
ENDBRANCH  12  13
ENDBRANCH  10  12
ENDBRANCH   2   8
BRANCH   1  16
HETATM   16  O1  UNL     1      -0.180   6.211  12.763  1.00  0.00    -0.384 OA
HETATM   17  C1  UNL     1       1.236   6.155  12.680  1.00  0.00     0.202 C 
ENDBRANCH   1  16
BRANCH   6  18
HETATM   18  N3  UNL     1      -2.700   5.424  13.424  1.00  0.00    -0.308 N 
HETATM   19  C11 UNL     1      -1.962   4.478  12.712  1.00  0.00     0.049 A 
HETATM   20  C12 UNL     1      -0.597   4.388  12.377  1.00  0.00     0.030 A 
HETATM   21  C16 UNL     1      -2.863   3.485  12.283  1.00  0.00     0.004 A 
HETATM   22  C13 UNL     1      -0.140   3.274  11.666  1.00  0.00     0.002 A 
HETATM   23  C14 UNL     1      -1.012   2.269  11.274  1.00  0.00     0.001 A 
HETATM   24  C15 UNL     1      -2.372   2.370  11.568  1.00  0.00     0.014 A 
HETATM   25  C17 UNL     1      -4.173   3.897  12.653  1.00  0.00     0.015 A 
HETATM   26  C18 UNL     1      -5.485   3.431  12.473  1.00  0.00    -0.010 A 
HETATM   27  C28 UNL     1      -4.028   5.095  13.321  1.00  0.00     0.077 A 
HETATM   28  C19 UNL     1      -6.621   4.173  12.925  1.00  0.00     0.054 A 
HETATM   29  C30 UNL     1      -5.955   2.180  11.791  1.00  0.00     0.163 A 
HETATM   30  C20 UNL     1      -6.561   5.412  13.582  1.00  0.00     0.022 A 
HETATM   31  C29 UNL     1      -7.816   3.401  12.553  1.00  0.00     0.253 A 
HETATM   32  C21 UNL     1      -7.448   6.394  14.119  1.00  0.00     0.004 A 
HETATM   33  C27 UNL     1      -5.279   5.889  13.804  1.00  0.00     0.077 A 
HETATM   34  C22 UNL     1      -8.852   6.516  14.204  1.00  0.00     0.014 A 
HETATM   35  C26 UNL     1      -6.663   7.428  14.658  1.00  0.00     0.048 A 
HETATM   36  C23 UNL     1      -9.427   7.640  14.807  1.00  0.00     0.001 A 
HETATM   37  C24 UNL     1      -8.627   8.647  15.330  1.00  0.00     0.002 A 
HETATM   38  C25 UNL     1      -7.235   8.559  15.266  1.00  0.00     0.030 A 
HETATM   39  N4  UNL     1      -5.334   7.077  14.465  1.00  0.00    -0.316 N 
HETATM   40  O4  UNL     1      -8.980   3.677  12.757  1.00  0.00    -0.268 OA
HETATM   41  N5  UNL     1      -7.383   2.262  11.909  1.00  0.00    -0.353 N 
HETATM   42  H27 UNL     1      -8.044   1.585  11.555  1.00  0.00     0.163 HD
ENDBRANCH   6  18
TORSDOF 6
ENDMDL
MODEL 2
REMARK minimizedAffinity -9.42755604
REMARK CNNscore 0.634102523
REMARK CNNaffinity 7.87010193
REMARK  6 active torsions:
REMARK  status: ('A' for Active; 'I' for Inactive)
REMARK    1  A    between atoms: O1_2  and  C2_3 
REMARK    2  A    between atoms: C3_4  and  N1_5 
REMARK       I    between atoms: N1_5  and  C5_7 
REMARK    3  A    between atoms: C5_7  and  C6_9 
REMARK    4  A    between atoms: C6_9  and  N2_10 
REMARK    5  A    between atoms: C8_12  and  N4_33 
REMARK    6  A    between atoms: C9_14  and  N3_16 
ROOT
HETATM    1  C2  UNL     1      -0.939   7.899  14.435  1.00  0.00     0.199 C 
HETATM    2  C3  UNL     1      -1.100   9.419  14.655  1.00  0.00     0.124 C 
HETATM    3  C7  UNL     1      -2.094   9.970  13.628  1.00  0.00     0.082 C 
HETATM    4  C8  UNL     1      -3.392   9.152  13.638  1.00  0.00     0.233 C 
HETATM    5  O3  UNL     1      -3.448   8.134  14.639  1.00  0.00    -0.333 OA
HETATM    6  C9  UNL     1      -2.318   7.229  14.760  1.00  0.00     0.168 C 
HETATM    7  C10 UNL     1      -2.399   6.916  16.274  1.00  0.00     0.074 C 
ENDROOT
BRANCH   2   8
HETATM    8  N1  UNL     1       0.180  10.161  14.782  1.00  0.00    -0.347 N 
HETATM    9  C4  UNL     1       1.377   9.330  14.885  1.00  0.00     0.153 C 
HETATM   10  C5  UNL     1       0.228  11.555  14.824  1.00  0.00     0.247 C 
HETATM   11  O2  UNL     1      -0.766  12.269  14.687  1.00  0.00    -0.271 OA
BRANCH  10  12
HETATM   12  C6  UNL     1       1.584  12.239  15.071  1.00  0.00     0.369 C 
BRANCH  12  13
HETATM   13  N2  UNL     1       1.789  13.360  14.139  1.00  0.00     0.087 N 
HETATM   14  H11 UNL     1       1.722  12.992  13.187  1.00  0.00     0.313 HD
HETATM   15  H12 UNL     1       2.749  13.689  14.236  1.00  0.00     0.313 HD
ENDBRANCH  12  13
ENDBRANCH  10  12
ENDBRANCH   2   8
BRANCH   1  16
HETATM   16  O1  UNL     1      -0.580   7.677  13.062  1.00  0.00    -0.384 OA
HETATM   17  C1  UNL     1      -0.342   8.872  12.334  1.00  0.00     0.202 C 
ENDBRANCH   1  16
BRANCH   6  18
HETATM   18  N3  UNL     1      -2.575   6.040  13.928  1.00  0.00    -0.308 N 
HETATM   19  C11 UNL     1      -1.667   5.309  13.160  1.00  0.00     0.049 A 
HETATM   20  C12 UNL     1      -0.290   5.464  12.906  1.00  0.00     0.030 A 
HETATM   21  C16 UNL     1      -2.383   4.253  12.563  1.00  0.00     0.004 A 
HETATM   22  C13 UNL     1       0.366   4.526  12.103  1.00  0.00     0.002 A 
HETATM   23  C14 UNL     1      -0.321   3.459  11.543  1.00  0.00     0.001 A 
HETATM   24  C15 UNL     1      -1.693   3.320  11.758  1.00  0.00     0.014 A 
HETATM   25  C17 UNL     1      -3.756   4.418  12.893  1.00  0.00     0.015 A 
HETATM   26  C18 UNL     1      -4.970   3.788  12.577  1.00  0.00    -0.010 A 
HETATM   27  C28 UNL     1      -3.829   5.533  13.702  1.00  0.00     0.077 A 
HETATM   28  C19 UNL     1      -6.227   4.292  13.037  1.00  0.00     0.054 A 
HETATM   29  C30 UNL     1      -5.209   2.575  11.727  1.00  0.00     0.163 A 
HETATM   30  C20 UNL     1      -6.390   5.436  13.834  1.00  0.00     0.022 A 
HETATM   31  C29 UNL     1      -7.270   3.403  12.503  1.00  0.00     0.253 A 
HETATM   32  C21 UNL     1      -7.443   6.201  14.423  1.00  0.00     0.004 A 
HETATM   33  C27 UNL     1      -5.209   6.067  14.192  1.00  0.00     0.077 A 
HETATM   34  C22 UNL     1      -8.851   6.103  14.430  1.00  0.00     0.014 A 
HETATM   35  C26 UNL     1      -6.852   7.266  15.125  1.00  0.00     0.048 A 
HETATM   36  C23 UNL     1      -9.620   7.046  15.120  1.00  0.00     0.001 A 
HETATM   37  C24 UNL     1      -9.011   8.089  15.806  1.00  0.00     0.002 A 
HETATM   38  C25 UNL     1      -7.621   8.216  15.822  1.00  0.00     0.030 A 
HETATM   39  N4  UNL     1      -5.478   7.143  14.979  1.00  0.00    -0.316 N 
HETATM   40  O4  UNL     1      -8.471   3.476  12.662  1.00  0.00    -0.268 OA
HETATM   41  N5  UNL     1      -6.637   2.429  11.762  1.00  0.00    -0.353 N 
HETATM   42  H27 UNL     1      -7.168   1.710  11.290  1.00  0.00     0.163 HD
ENDBRANCH   6  18
TORSDOF 6
ENDMDL
MODEL 3
REMARK minimizedAffinity -10.5033045
REMARK CNNscore 0.534702361
REMARK CNNaffinity 7.47707701
REMARK  6 active torsions:
REMARK  status: ('A' for Active; 'I' for Inactive)
REMARK    1  A    between atoms: O1_2  and  C2_3 
REMARK    2  A    between atoms: C3_4  and  N1_5 
REMARK       I    between atoms: N1_5  and  C5_7 
REMARK    3  A    between atoms: C5_7  and  C6_9 
REMARK    4  A    between atoms: C6_9  and  N2_10 
REMARK    5  A    between atoms: C8_12  and  N4_33 
REMARK    6  A    between atoms: C9_14  and  N3_16 
ROOT
HETATM    1  C2  UNL     1      -2.279   8.278  15.220  1.00  0.00     0.199 C 
HETATM    2  C3  UNL     1      -1.371   9.500  15.475  1.00  0.00     0.124 C 
HETATM    3  C7  UNL     1      -0.058   9.317  14.708  1.00  0.00     0.082 C 
HETATM    4  C8  UNL     1      -0.333   8.983  13.236  1.00  0.00     0.233 C 
HETATM    5  O3  UNL     1      -1.712   9.008  12.866  1.00  0.00    -0.333 OA
HETATM    6  C9  UNL     1      -2.658   8.284  13.699  1.00  0.00     0.168 C 
HETATM    7  C10 UNL     1      -3.916   9.159  13.480  1.00  0.00     0.074 C 
ENDROOT
BRANCH   2   8
HETATM    8  N1  UNL     1      -1.240   9.881  16.904  1.00  0.00    -0.347 N 
HETATM    9  C4  UNL     1      -2.416   9.624  17.731  1.00  0.00     0.153 C 
HETATM   10  C5  UNL     1      -0.080  10.468  17.412  1.00  0.00     0.247 C 
HETATM   11  O2  UNL     1       0.937  10.645  16.740  1.00  0.00    -0.271 OA
BRANCH  10  12
HETATM   12  C6  UNL     1      -0.070  10.934  18.878  1.00  0.00     0.369 C 
BRANCH  12  13
HETATM   13  N2  UNL     1       1.194  10.575  19.540  1.00  0.00     0.087 N 
HETATM   14  H11 UNL     1       1.309   9.561  19.469  1.00  0.00     0.313 HD
HETATM   15  H12 UNL     1       1.103  10.768  20.537  1.00  0.00     0.313 HD
ENDBRANCH  12  13
ENDBRANCH  10  12
ENDBRANCH   2   8
BRANCH   1  16
HETATM   16  O1  UNL     1      -1.543   7.091  15.553  1.00  0.00    -0.384 OA
HETATM   17  C1  UNL     1      -0.218   7.346  15.995  1.00  0.00     0.202 C 
ENDBRANCH   1  16
BRANCH   6  18
HETATM   18  N3  UNL     1      -2.820   6.923  13.156  1.00  0.00    -0.308 N 
HETATM   19  C11 UNL     1      -1.893   6.157  12.449  1.00  0.00     0.049 A 
HETATM   20  C12 UNL     1      -0.579   6.415  12.011  1.00  0.00     0.030 A 
HETATM   21  C16 UNL     1      -2.505   4.922  12.162  1.00  0.00     0.004 A 
HETATM   22  C13 UNL     1       0.127   5.411  11.340  1.00  0.00     0.002 A 
HETATM   23  C14 UNL     1      -0.453   4.177  11.087  1.00  0.00     0.001 A 
HETATM   24  C15 UNL     1      -1.767   3.927  11.484  1.00  0.00     0.014 A 
HETATM   25  C17 UNL     1      -3.853   4.992  12.609  1.00  0.00     0.015 A 
HETATM   26  C18 UNL     1      -4.992   4.171  12.568  1.00  0.00    -0.010 A 
HETATM   27  C28 UNL     1      -4.007   6.236  13.182  1.00  0.00     0.077 A 
HETATM   28  C19 UNL     1      -6.260   4.611  13.061  1.00  0.00     0.054 A 
HETATM   29  C30 UNL     1      -5.135   2.786  12.010  1.00  0.00     0.163 A 
HETATM   30  C20 UNL     1      -6.508   5.871  13.628  1.00  0.00     0.022 A 
HETATM   31  C29 UNL     1      -7.213   3.513  12.839  1.00  0.00     0.253 A 
HETATM   32  C21 UNL     1      -7.600   6.616  14.170  1.00  0.00     0.004 A 
HETATM   33  C27 UNL     1      -5.399   6.697  13.713  1.00  0.00     0.077 A 
HETATM   34  C22 UNL     1      -8.975   6.356  14.361  1.00  0.00     0.014 A 
HETATM   35  C26 UNL     1      -7.102   7.866  14.573  1.00  0.00     0.048 A 
HETATM   36  C23 UNL     1      -9.803   7.328  14.933  1.00  0.00     0.001 A 
HETATM   37  C24 UNL     1      -9.285   8.557  15.322  1.00  0.00     0.002 A 
HETATM   38  C25 UNL     1      -7.930   8.846  15.151  1.00  0.00     0.030 A 
HETATM   39  N4  UNL     1      -5.743   7.877  14.296  1.00  0.00    -0.316 N 
HETATM   40  O4  UNL     1      -8.393   3.477  13.119  1.00  0.00    -0.268 OA
HETATM   41  N5  UNL     1      -6.520   2.485  12.239  1.00  0.00    -0.353 N 
HETATM   42  H27 UNL     1      -6.986   1.625  11.985  1.00  0.00     0.163 HD
ENDBRANCH   6  18
TORSDOF 6
ENDMDL
MODEL 4
REMARK minimizedAffinity -10.6368027
REMARK CNNscore 0.248815343
REMARK CNNaffinity 7.48894119
REMARK  6 active torsions:
REMARK  status: ('A' for Active; 'I' for Inactive)
REMARK    1  A    between atoms: O1_2  and  C2_3 
REMARK    2  A    between atoms: C3_4  and  N1_5 
REMARK       I    between atoms: N1_5  and  C5_7 
REMARK    3  A    between atoms: C5_7  and  C6_9 
REMARK    4  A    between atoms: C6_9  and  N2_10 
REMARK    5  A    between atoms: C8_12  and  N4_33 
REMARK    6  A    between atoms: C9_14  and  N3_16 
ROOT
HETATM    1  C2  UNL     1      -7.691   6.881  13.785  1.00  0.00     0.199 C 
HETATM    2  C3  UNL     1      -8.572   7.233  15.004  1.00  0.00     0.124 C 
HETATM    3  C7  UNL     1      -8.741   5.986  15.876  1.00  0.00     0.082 C 
HETATM    4  C8  UNL     1      -7.377   5.359  16.195  1.00  0.00     0.233 C 
HETATM    5  O3  UNL     1      -6.254   6.098  15.713  1.00  0.00    -0.333 OA
HETATM    6  C9  UNL     1      -6.262   6.529  14.325  1.00  0.00     0.168 C 
HETATM    7  C10 UNL     1      -5.422   7.823  14.452  1.00  0.00     0.074 C 
ENDROOT
BRANCH   2   8
HETATM    8  N1  UNL     1      -9.820   7.965  14.669  1.00  0.00    -0.347 N 
HETATM    9  C4  UNL     1     -10.936   7.130  14.232  1.00  0.00     0.153 C 
HETATM   10  C5  UNL     1      -9.908   9.355  14.745  1.00  0.00     0.247 C 
HETATM   11  O2  UNL     1      -8.992  10.068  15.160  1.00  0.00    -0.271 OA
BRANCH  10  12
HETATM   12  C6  UNL     1     -11.202  10.040  14.272  1.00  0.00     0.369 C 
BRANCH  12  13
HETATM   13  N2  UNL     1     -10.984  11.475  14.030  1.00  0.00     0.087 N 
HETATM   14  H11 UNL     1     -10.636  11.890  14.897  1.00  0.00     0.313 HD
HETATM   15  H12 UNL     1     -11.888  11.915  13.863  1.00  0.00     0.313 HD
ENDBRANCH  12  13
ENDBRANCH  10  12
ENDBRANCH   2   8
BRANCH   1  16
HETATM   16  O1  UNL     1      -8.273   5.749  13.120  1.00  0.00    -0.384 OA
HETATM   17  C1  UNL     1      -8.795   6.049  11.834  1.00  0.00     0.202 C 
ENDBRANCH   1  16
BRANCH   6  18
HETATM   18  N3  UNL     1      -5.590   5.503  13.508  1.00  0.00    -0.308 N 
HETATM   19  C11 UNL     1      -6.079   4.260  13.106  1.00  0.00     0.049 A 
HETATM   20  C12 UNL     1      -7.291   3.586  13.354  1.00  0.00     0.030 A 
HETATM   21  C16 UNL     1      -5.078   3.651  12.325  1.00  0.00     0.004 A 
HETATM   22  C13 UNL     1      -7.510   2.334  12.770  1.00  0.00     0.002 A 
HETATM   23  C14 UNL     1      -6.546   1.743  11.966  1.00  0.00     0.001 A 
HETATM   24  C15 UNL     1      -5.327   2.387  11.746  1.00  0.00     0.014 A 
HETATM   25  C17 UNL     1      -3.935   4.496  12.350  1.00  0.00     0.015 A 
HETATM   26  C18 UNL     1      -2.618   4.456  11.862  1.00  0.00    -0.010 A 
HETATM   27  C28 UNL     1      -4.283   5.597  13.103  1.00  0.00     0.077 A 
HETATM   28  C19 UNL     1      -1.670   5.484  12.158  1.00  0.00     0.054 A 
HETATM   29  C30 UNL     1      -1.954   3.400  11.029  1.00  0.00     0.163 A 
HETATM   30  C20 UNL     1      -1.934   6.619  12.941  1.00  0.00     0.022 A 
HETATM   31  C29 UNL     1      -0.407   5.106  11.508  1.00  0.00     0.253 A 
HETATM   32  C21 UNL     1      -1.252   7.772  13.438  1.00  0.00     0.004 A 
HETATM   33  C27 UNL     1      -3.234   6.708  13.415  1.00  0.00     0.077 A 
HETATM   34  C22 UNL     1       0.068   8.262  13.330  1.00  0.00     0.014 A 
HETATM   35  C26 UNL     1      -2.175   8.521  14.188  1.00  0.00     0.048 A 
HETATM   36  C23 UNL     1       0.429   9.458  13.959  1.00  0.00     0.001 A 
HETATM   37  C24 UNL     1      -0.503  10.178  14.695  1.00  0.00     0.002 A 
HETATM   38  C25 UNL     1      -1.817   9.725  14.821  1.00  0.00     0.030 A 
HETATM   39  N4  UNL     1      -3.387   7.849  14.137  1.00  0.00    -0.316 N 
HETATM   40  O4  UNL     1       0.647   5.709  11.508  1.00  0.00    -0.268 OA
HETATM   41  N5  UNL     1      -0.620   3.905  10.867  1.00  0.00    -0.353 N 
HETATM   42  H27 UNL     1       0.125   3.450  10.359  1.00  0.00     0.163 HD
ENDBRANCH   6  18
TORSDOF 6
ENDMDL
MODEL 5
REMARK minimizedAffinity -6.91372156
REMARK CNNscore 0.173308253
REMARK CNNaffinity 5.85477209
REMARK  6 active torsions:
REMARK  status: ('A' for Active; 'I' for Inactive)
REMARK    1  A    between atoms: O1_2  and  C2_3 
REMARK    2  A    between atoms: C3_4  and  N1_5 
REMARK       I    between atoms: N1_5  and  C5_7 
REMARK    3  A    between atoms: C5_7  and  C6_9 
REMARK    4  A    between atoms: C6_9  and  N2_10 
REMARK    5  A    between atoms: C8_12  and  N4_33 
REMARK    6  A    between atoms: C9_14  and  N3_16 
ROOT
HETATM    1  C2  UNL     1      -1.170  11.109  16.392  1.00  0.00     0.199 C 
HETATM    2  C3  UNL     1      -0.716   9.702  15.947  1.00  0.00     0.124 C 
HETATM    3  C7  UNL     1       0.812   9.622  16.022  1.00  0.00     0.082 C 
HETATM    4  C8  UNL     1       1.310  10.082  17.399  1.00  0.00     0.233 C 
HETATM    5  O3  UNL     1       0.277  10.387  18.336  1.00  0.00    -0.333 OA
HETATM    6  C9  UNL     1      -0.800  11.264  17.908  1.00  0.00     0.168 C 
HETATM    7  C10 UNL     1      -1.949  10.708  18.782  1.00  0.00     0.074 C 
ENDROOT
BRANCH   2   8
HETATM    8  N1  UNL     1      -1.328   9.232  14.678  1.00  0.00    -0.347 N 
HETATM    9  C4  UNL     1      -2.643   9.791  14.373  1.00  0.00     0.153 C 
HETATM   10  C5  UNL     1      -0.699   8.301  13.852  1.00  0.00     0.247 C 
HETATM   11  O2  UNL     1       0.430   7.859  14.070  1.00  0.00    -0.271 OA
BRANCH  10  12
HETATM   12  C6  UNL     1      -1.453   7.783  12.615  1.00  0.00     0.369 C 
BRANCH  12  13
HETATM   13  N2  UNL     1      -0.930   8.393  11.382  1.00  0.00     0.087 N 
HETATM   14  H11 UNL     1      -1.014   9.408  11.474  1.00  0.00     0.313 HD
HETATM   15  H12 UNL     1      -1.546   8.139  10.610  1.00  0.00     0.313 HD
ENDBRANCH  12  13
ENDBRANCH  10  12
ENDBRANCH   2   8
BRANCH   1  16
HETATM   16  O1  UNL     1      -0.472  12.082  15.600  1.00  0.00    -0.384 OA
HETATM   17  C1  UNL     1       0.639  11.550  14.892  1.00  0.00     0.202 C 
ENDBRANCH   1  16
BRANCH   6  18
HETATM   18  N3  UNL     1      -0.448  12.651  18.260  1.00  0.00    -0.308 N 
HETATM   19  C11 UNL     1      -0.769  13.826  17.579  1.00  0.00     0.049 A 
HETATM   20  C12 UNL     1      -1.466  14.073  16.380  1.00  0.00     0.030 A 
HETATM   21  C16 UNL     1      -0.227  14.896  18.316  1.00  0.00     0.004 A 
HETATM   22  C13 UNL     1      -1.662  15.393  15.963  1.00  0.00     0.002 A 
HETATM   23  C14 UNL     1      -1.167  16.457  16.703  1.00  0.00     0.001 A 
HETATM   24  C15 UNL     1      -0.442  16.220  17.872  1.00  0.00     0.014 A 
HETATM   25  C17 UNL     1       0.519  14.347  19.395  1.00  0.00     0.015 A 
HETATM   26  C18 UNL     1       1.341  14.830  20.426  1.00  0.00    -0.010 A 
HETATM   27  C28 UNL     1       0.379  12.978  19.305  1.00  0.00     0.077 A 
HETATM   28  C19 UNL     1       2.030  13.952  21.319  1.00  0.00     0.054 A 
HETATM   29  C30 UNL     1       1.685  16.249  20.768  1.00  0.00     0.163 A 
HETATM   30  C20 UNL     1       1.967  12.551  21.276  1.00  0.00     0.022 A 
HETATM   31  C29 UNL     1       2.801  14.797  22.244  1.00  0.00     0.253 A 
HETATM   32  C21 UNL     1       2.516  11.422  21.959  1.00  0.00     0.004 A 
HETATM   33  C27 UNL     1       1.140  12.038  20.289  1.00  0.00     0.077 A 
HETATM   34  C22 UNL     1       3.419  11.260  23.032  1.00  0.00     0.014 A 
HETATM   35  C26 UNL     1       1.989  10.265  21.360  1.00  0.00     0.048 A 
HETATM   36  C23 UNL     1       3.768   9.980  23.473  1.00  0.00     0.001 A 
HETATM   37  C24 UNL     1       3.233   8.853  22.863  1.00  0.00     0.002 A 
HETATM   38  C25 UNL     1       2.336   8.975  21.800  1.00  0.00     0.030 A 
HETATM   39  N4  UNL     1       1.132  10.679  20.351  1.00  0.00    -0.316 N 
HETATM   40  O4  UNL     1       3.518  14.446  23.159  1.00  0.00    -0.268 OA
HETATM   41  N5  UNL     1       2.567  16.108  21.892  1.00  0.00    -0.353 N 
HETATM   42  H27 UNL     1       3.010  16.865  22.394  1.00  0.00     0.163 HD
ENDBRANCH   6  18
TORSDOF 6
ENDMDL
MODEL 6
REMARK minimizedAffinity -6.79280949
REMARK CNNscore 0.160682097
REMARK CNNaffinity 5.48078966
REMARK  6 active torsions:
REMARK  status: ('A' for Active; 'I' for Inactive)
REMARK    1  A    between atoms: O1_2  and  C2_3 
REMARK    2  A    between atoms: C3_4  and  N1_5 
REMARK       I    between atoms: N1_5  and  C5_7 
REMARK    3  A    between atoms: C5_7  and  C6_9 
REMARK    4  A    between atoms: C6_9  and  N2_10 
REMARK    5  A    between atoms: C8_12  and  N4_33 
REMARK    6  A    between atoms: C9_14  and  N3_16 
ROOT
HETATM    1  C2  UNL     1     -11.624   8.706  14.729  1.00  0.00     0.199 C 
HETATM    2  C3  UNL     1     -10.335   8.618  15.574  1.00  0.00     0.124 C 
HETATM    3  C7  UNL     1      -9.645   9.985  15.579  1.00  0.00     0.082 C 
HETATM    4  C8  UNL     1     -10.633  11.088  15.981  1.00  0.00     0.233 C 
HETATM    5  O3  UNL     1     -11.930  10.620  16.353  1.00  0.00    -0.333 OA
HETATM    6  C9  UNL     1     -12.602   9.685  15.467  1.00  0.00     0.168 C 
HETATM    7  C10 UNL     1     -13.436   8.898  16.507  1.00  0.00     0.074 C 
ENDROOT
BRANCH   2   8
HETATM    8  N1  UNL     1      -9.468   7.456  15.252  1.00  0.00    -0.347 N 
HETATM    9  C4  UNL     1      -9.700   6.844  13.946  1.00  0.00     0.153 C 
HETATM   10  C5  UNL     1      -8.516   6.969  16.149  1.00  0.00     0.247 C 
HETATM   11  O2  UNL     1      -8.274   7.505  17.232  1.00  0.00    -0.271 OA
BRANCH  10  12
HETATM   12  C6  UNL     1      -7.740   5.693  15.782  1.00  0.00     0.369 C 
BRANCH  12  13
HETATM   13  N2  UNL     1      -6.383   5.715  16.352  1.00  0.00     0.087 N 
HETATM   14  H11 UNL     1      -5.911   6.554  16.005  1.00  0.00     0.313 HD
HETATM   15  H12 UNL     1      -5.858   4.930  15.967  1.00  0.00     0.313 HD
ENDBRANCH  12  13
ENDBRANCH  10  12
ENDBRANCH   2   8
BRANCH   1  16
HETATM   16  O1  UNL     1     -11.280   9.218  13.432  1.00  0.00    -0.384 OA
HETATM   17  C1  UNL     1     -11.704   8.388  12.361  1.00  0.00     0.202 C 
ENDBRANCH   1  16
BRANCH   6  18
HETATM   18  N3  UNL     1     -13.447  10.446  14.529  1.00  0.00    -0.308 N 
HETATM   19  C11 UNL     1     -13.450  11.820  14.287  1.00  0.00     0.049 A 
HETATM   20  C12 UNL     1     -12.718  12.888  14.843  1.00  0.00     0.030 A 
HETATM   21  C16 UNL     1     -14.418  12.066  13.296  1.00  0.00     0.004 A 
HETATM   22  C13 UNL     1     -12.924  14.183  14.357  1.00  0.00     0.002 A 
HETATM   23  C14 UNL     1     -13.847  14.430  13.351  1.00  0.00     0.001 A 
HETATM   24  C15 UNL     1     -14.603  13.384  12.822  1.00  0.00     0.014 A 
HETATM   25  C17 UNL     1     -15.077  10.837  13.018  1.00  0.00     0.015 A 
HETATM   26  C18 UNL     1     -16.149  10.403  12.220  1.00  0.00    -0.010 A 
HETATM   27  C28 UNL     1     -14.472   9.885  13.811  1.00  0.00     0.077 A 
HETATM   28  C19 UNL     1     -16.617   9.053  12.250  1.00  0.00     0.054 A 
HETATM   29  C30 UNL     1     -16.996  11.197  11.270  1.00  0.00     0.163 A 
HETATM   30  C20 UNL     1     -16.079   8.034  13.051  1.00  0.00     0.022 A 
HETATM   31  C29 UNL     1     -17.749   8.969  11.314  1.00  0.00     0.253 A 
HETATM   32  C21 UNL     1     -16.304   6.653  13.339  1.00  0.00     0.004 A 
HETATM   33  C27 UNL     1     -14.999   8.418  13.830  1.00  0.00     0.077 A 
HETATM   34  C22 UNL     1     -17.239   5.691  12.897  1.00  0.00     0.014 A 
HETATM   35  C26 UNL     1     -15.340   6.252  14.279  1.00  0.00     0.048 A 
HETATM   36  C23 UNL     1     -17.193   4.384  13.392  1.00  0.00     0.001 A 
HETATM   37  C24 UNL     1     -16.229   4.014  14.321  1.00  0.00     0.002 A 
HETATM   38  C25 UNL     1     -15.288   4.938  14.778  1.00  0.00     0.030 A 
HETATM   39  N4  UNL     1     -14.541   7.355  14.544  1.00  0.00    -0.316 N 
HETATM   40  O4  UNL     1     -18.425   7.999  11.041  1.00  0.00    -0.268 OA
HETATM   41  N5  UNL     1     -17.925  10.223  10.772  1.00  0.00    -0.353 N 
HETATM   42  H27 UNL     1     -18.663  10.398  10.104  1.00  0.00     0.163 HD
ENDBRANCH   6  18
TORSDOF 6
ENDMDL
MODEL 7
REMARK minimizedAffinity -10.3482323
REMARK CNNscore 0.147407666
REMARK CNNaffinity 6.75250196
REMARK  6 active torsions:
REMARK  status: ('A' for Active; 'I' for Inactive)
REMARK    1  A    between atoms: O1_2  and  C2_3 
REMARK    2  A    between atoms: C3_4  and  N1_5 
REMARK       I    between atoms: N1_5  and  C5_7 
REMARK    3  A    between atoms: C5_7  and  C6_9 
REMARK    4  A    between atoms: C6_9  and  N2_10 
REMARK    5  A    between atoms: C8_12  and  N4_33 
REMARK    6  A    between atoms: C9_14  and  N3_16 
ROOT
HETATM    1  C2  UNL     1      -2.487   8.216  14.709  1.00  0.00     0.199 C 
HETATM    2  C3  UNL     1      -1.606   9.433  14.352  1.00  0.00     0.124 C 
HETATM    3  C7  UNL     1      -0.914   9.172  13.011  1.00  0.00     0.082 C 
HETATM    4  C8  UNL     1      -1.936   8.751  11.947  1.00  0.00     0.233 C 
HETATM    5  O3  UNL     1      -3.296   8.782  12.381  1.00  0.00    -0.333 OA
HETATM    6  C9  UNL     1      -3.629   8.133  13.638  1.00  0.00     0.168 C 
HETATM    7  C10 UNL     1      -4.819   9.019  14.079  1.00  0.00     0.074 C 
ENDROOT
BRANCH   2   8
HETATM    8  N1  UNL     1      -0.729   9.901  15.454  1.00  0.00    -0.347 N 
HETATM    9  C4  UNL     1      -1.418  10.277  16.686  1.00  0.00     0.153 C 
HETATM   10  C5  UNL     1       0.656   9.999  15.311  1.00  0.00     0.247 C 
HETATM   11  O2  UNL     1       1.256   9.639  14.296  1.00  0.00    -0.271 OA
BRANCH  10  12
HETATM   12  C6  UNL     1       1.477  10.601  16.463  1.00  0.00     0.369 C 
BRANCH  12  13
HETATM   13  N2  UNL     1       1.855   9.567  17.441  1.00  0.00     0.087 N 
HETATM   14  H11 UNL     1       0.995   9.129  17.782  1.00  0.00     0.313 HD
HETATM   15  H12 UNL     1       2.265  10.026  18.253  1.00  0.00     0.313 HD
ENDBRANCH  12  13
ENDBRANCH  10  12
ENDBRANCH   2   8
BRANCH   1  16
HETATM   16  O1  UNL     1      -1.668   7.037  14.668  1.00  0.00    -0.384 OA
HETATM   17  C1  UNL     1      -1.010   6.757  15.894  1.00  0.00     0.202 C 
ENDBRANCH   1  16
BRANCH   6  18
HETATM   18  N3  UNL     1      -4.036   6.744  13.359  1.00  0.00    -0.308 N 
HETATM   19  C11 UNL     1      -5.225   6.104  13.710  1.00  0.00     0.049 A 
HETATM   20  C12 UNL     1      -6.359   6.526  14.432  1.00  0.00     0.030 A 
HETATM   21  C16 UNL     1      -5.156   4.791  13.206  1.00  0.00     0.004 A 
HETATM   22  C13 UNL     1      -7.434   5.647  14.593  1.00  0.00     0.002 A 
HETATM   23  C14 UNL     1      -7.392   4.364  14.065  1.00  0.00     0.001 A 
HETATM   24  C15 UNL     1      -6.258   3.925  13.381  1.00  0.00     0.014 A 
HETATM   25  C17 UNL     1      -3.864   4.611  12.640  1.00  0.00     0.015 A 
HETATM   26  C18 UNL     1      -3.136   3.562  12.056  1.00  0.00    -0.010 A 
HETATM   27  C28 UNL     1      -3.208   5.816  12.780  1.00  0.00     0.077 A 
HETATM   28  C19 UNL     1      -1.772   3.716  11.658  1.00  0.00     0.054 A 
HETATM   29  C30 UNL     1      -3.572   2.153  11.780  1.00  0.00     0.163 A 
HETATM   30  C20 UNL     1      -1.024   4.896  11.795  1.00  0.00     0.022 A 
HETATM   31  C29 UNL     1      -1.333   2.423  11.112  1.00  0.00     0.253 A 
HETATM   32  C21 UNL     1       0.299   5.373  11.543  1.00  0.00     0.004 A 
HETATM   33  C27 UNL     1      -1.720   5.964  12.340  1.00  0.00     0.077 A 
HETATM   34  C22 UNL     1       1.474   4.793  11.017  1.00  0.00     0.014 A 
HETATM   35  C26 UNL     1       0.348   6.720  11.939  1.00  0.00     0.048 A 
HETATM   36  C23 UNL     1       2.644   5.552  10.903  1.00  0.00     0.001 A 
HETATM   37  C24 UNL     1       2.665   6.882  11.302  1.00  0.00     0.002 A 
HETATM   38  C25 UNL     1       1.521   7.488  11.824  1.00  0.00     0.030 A 
HETATM   39  N4  UNL     1      -0.914   7.058  12.406  1.00  0.00    -0.316 N 
HETATM   40  O4  UNL     1      -0.245   2.131  10.660  1.00  0.00    -0.268 OA
HETATM   41  N5  UNL     1      -2.402   1.559  11.198  1.00  0.00    -0.353 N 
HETATM   42  H27 UNL     1      -2.320   0.601  10.886  1.00  0.00     0.163 HD
ENDBRANCH   6  18
TORSDOF 6
ENDMDL
MODEL 8
REMARK minimizedAffinity -9.71292019
REMARK CNNscore 0.145387247
REMARK CNNaffinity 6.74445868
REMARK  6 active torsions:
REMARK  status: ('A' for Active; 'I' for Inactive)
REMARK    1  A    between atoms: O1_2  and  C2_3 
REMARK    2  A    between atoms: C3_4  and  N1_5 
REMARK       I    between atoms: N1_5  and  C5_7 
REMARK    3  A    between atoms: C5_7  and  C6_9 
REMARK    4  A    between atoms: C6_9  and  N2_10 
REMARK    5  A    between atoms: C8_12  and  N4_33 
REMARK    6  A    between atoms: C9_14  and  N3_16 
ROOT
HETATM    1  C2  UNL     1      -0.236   9.095  14.458  1.00  0.00     0.199 C 
HETATM    2  C3  UNL     1      -1.034  10.273  15.055  1.00  0.00     0.124 C 
HETATM    3  C7  UNL     1      -2.378  10.386  14.329  1.00  0.00     0.082 C 
HETATM    4  C8  UNL     1      -3.099   9.032  14.311  1.00  0.00     0.233 C 
HETATM    5  O3  UNL     1      -2.437   7.994  15.037  1.00  0.00    -0.333 OA
HETATM    6  C9  UNL     1      -1.022   7.780  14.789  1.00  0.00     0.168 C 
HETATM    7  C10 UNL     1      -0.593   7.255  16.181  1.00  0.00     0.074 C 
ENDROOT
BRANCH   2   8
HETATM    8  N1  UNL     1      -0.261  11.534  15.189  1.00  0.00    -0.347 N 
HETATM    9  C4  UNL     1       0.990  11.425  15.934  1.00  0.00     0.153 C 
HETATM   10  C5  UNL     1      -0.716  12.743  14.660  1.00  0.00     0.247 C 
HETATM   11  O2  UNL     1      -1.743  12.841  13.986  1.00  0.00    -0.271 OA
BRANCH  10  12
HETATM   12  C6  UNL     1       0.090  14.022  14.941  1.00  0.00     0.369 C 
BRANCH  12  13
HETATM   13  N2  UNL     1       0.909  14.399  13.778  1.00  0.00     0.087 N 
HETATM   14  H11 UNL     1       1.522  13.610  13.557  1.00  0.00     0.313 HD
HETATM   15  H12 UNL     1       1.532  15.157  14.054  1.00  0.00     0.313 HD
ENDBRANCH  12  13
ENDBRANCH  10  12
ENDBRANCH   2   8
BRANCH   1  16
HETATM   16  O1  UNL     1      -0.144   9.285  13.037  1.00  0.00    -0.384 OA
HETATM   17  C1  UNL     1      -1.405   9.422  12.398  1.00  0.00     0.202 C 
ENDBRANCH   1  16
BRANCH   6  18
HETATM   18  N3  UNL     1      -0.876   6.758  13.736  1.00  0.00    -0.308 N 
HETATM   19  C11 UNL     1       0.221   6.518  12.909  1.00  0.00     0.049 A 
HETATM   20  C12 UNL     1       1.475   7.149  12.781  1.00  0.00     0.030 A 
HETATM   21  C16 UNL     1      -0.111   5.429  12.081  1.00  0.00     0.004 A 
HETATM   22  C13 UNL     1       2.403   6.644  11.864  1.00  0.00     0.002 A 
HETATM   23  C14 UNL     1       2.100   5.546  11.072  1.00  0.00     0.001 A 
HETATM   24  C15 UNL     1       0.847   4.940  11.165  1.00  0.00     0.014 A 
HETATM   25  C17 UNL     1      -1.465   5.083  12.343  1.00  0.00     0.015 A 
HETATM   26  C18 UNL     1      -2.409   4.176  11.835  1.00  0.00    -0.010 A 
HETATM   27  C28 UNL     1      -1.898   5.935  13.337  1.00  0.00     0.077 A 
HETATM   28  C19 UNL     1      -3.763   4.155  12.295  1.00  0.00     0.054 A 
HETATM   29  C30 UNL     1      -2.239   3.142  10.762  1.00  0.00     0.163 A 
HETATM   30  C20 UNL     1      -4.291   5.008  13.277  1.00  0.00     0.022 A 
HETATM   31  C29 UNL     1      -4.460   3.105  11.537  1.00  0.00     0.253 A 
HETATM   32  C21 UNL     1      -5.537   5.269  13.925  1.00  0.00     0.004 A 
HETATM   33  C27 UNL     1      -3.379   5.897  13.823  1.00  0.00     0.077 A 
HETATM   34  C22 UNL     1      -6.837   4.730  13.819  1.00  0.00     0.014 A 
HETATM   35  C26 UNL     1      -5.325   6.306  14.850  1.00  0.00     0.048 A 
HETATM   36  C23 UNL     1      -7.873   5.226  14.618  1.00  0.00     0.001 A 
HETATM   37  C24 UNL     1      -7.636   6.252  15.524  1.00  0.00     0.002 A 
HETATM   38  C25 UNL     1      -6.363   6.807  15.656  1.00  0.00     0.030 A 
HETATM   39  N4  UNL     1      -3.985   6.655  14.776  1.00  0.00    -0.316 N 
HETATM   40  O4  UNL     1      -5.620   2.761  11.626  1.00  0.00    -0.268 OA
HETATM   41  N5  UNL     1      -3.543   2.547  10.673  1.00  0.00    -0.353 N 
HETATM   42  H27 UNL     1      -3.811   1.805  10.042  1.00  0.00     0.163 HD
ENDBRANCH   6  18
TORSDOF 6
ENDMDL
MODEL 9
REMARK minimizedAffinity -6.70286798
REMARK CNNscore 0.115763322
REMARK CNNaffinity 5.11316252
REMARK  6 active torsions:
REMARK  status: ('A' for Active; 'I' for Inactive)
REMARK    1  A    between atoms: O1_2  and  C2_3 
REMARK    2  A    between atoms: C3_4  and  N1_5 
REMARK       I    between atoms: N1_5  and  C5_7 
REMARK    3  A    between atoms: C5_7  and  C6_9 
REMARK    4  A    between atoms: C6_9  and  N2_10 
REMARK    5  A    between atoms: C8_12  and  N4_33 
REMARK    6  A    between atoms: C9_14  and  N3_16 
ROOT
HETATM    1  C2  UNL     1     -18.136   2.103  15.954  1.00  0.00     0.199 C 
HETATM    2  C3  UNL     1     -16.933   1.169  16.208  1.00  0.00     0.124 C 
HETATM    3  C7  UNL     1     -16.033   1.164  14.969  1.00  0.00     0.082 C 
HETATM    4  C8  UNL     1     -15.688   2.598  14.545  1.00  0.00     0.233 C 
HETATM    5  O3  UNL     1     -16.179   3.613  15.421  1.00  0.00    -0.333 OA
HETATM    6  C9  UNL     1     -17.576   3.561  15.816  1.00  0.00     0.168 C 
HETATM    7  C10 UNL     1     -17.473   4.212  17.217  1.00  0.00     0.074 C 
ENDROOT
BRANCH   2   8
HETATM    8  N1  UNL     1     -17.295  -0.165  16.751  1.00  0.00    -0.347 N 
HETATM    9  C4  UNL     1     -18.574  -0.228  17.455  1.00  0.00     0.153 C 
HETATM   10  C5  UNL     1     -16.458  -1.273  16.618  1.00  0.00     0.247 C 
HETATM   11  O2  UNL     1     -15.401  -1.248  15.984  1.00  0.00    -0.271 OA
BRANCH  10  12
HETATM   12  C6  UNL     1     -16.857  -2.588  17.309  1.00  0.00     0.369 C 
BRANCH  12  13
HETATM   13  N2  UNL     1     -16.560  -2.542  18.749  1.00  0.00     0.087 N 
HETATM   14  H11 UNL     1     -15.560  -2.350  18.857  1.00  0.00     0.313 HD
HETATM   15  H12 UNL     1     -16.700  -3.473  19.138  1.00  0.00     0.313 HD
ENDBRANCH  12  13
ENDBRANCH  10  12
ENDBRANCH   2   8
BRANCH   1  16
HETATM   16  O1  UNL     1     -18.779   1.692  14.738  1.00  0.00    -0.384 OA
HETATM   17  C1  UNL     1     -19.133   0.317  14.716  1.00  0.00     0.202 C 
ENDBRANCH   1  16
BRANCH   6  18
HETATM   18  N3  UNL     1     -18.363   4.378  14.875  1.00  0.00    -0.308 N 
HETATM   19  C11 UNL     1     -19.704   4.234  14.515  1.00  0.00     0.049 A 
HETATM   20  C12 UNL     1     -20.694   3.299  14.879  1.00  0.00     0.030 A 
HETATM   21  C16 UNL     1     -20.003   5.262  13.602  1.00  0.00     0.004 A 
HETATM   22  C13 UNL     1     -21.987   3.440  14.367  1.00  0.00     0.002 A 
HETATM   23  C14 UNL     1     -22.303   4.475  13.498  1.00  0.00     0.001 A 
HETATM   24  C15 UNL     1     -21.319   5.382  13.103  1.00  0.00     0.014 A 
HETATM   25  C17 UNL     1     -18.797   5.966  13.330  1.00  0.00     0.015 A 
HETATM   26  C18 UNL     1     -18.387   7.012  12.488  1.00  0.00    -0.010 A 
HETATM   27  C28 UNL     1     -17.821   5.376  14.105  1.00  0.00     0.077 A 
HETATM   28  C19 UNL     1     -17.021   7.426  12.406  1.00  0.00     0.054 A 
HETATM   29  C30 UNL     1     -19.207   7.832  11.537  1.00  0.00     0.163 A 
HETATM   30  C20 UNL     1     -15.964   6.858  13.135  1.00  0.00     0.022 A 
HETATM   31  C29 UNL     1     -16.959   8.517  11.422  1.00  0.00     0.253 A 
HETATM   32  C21 UNL     1     -14.549   6.996  13.273  1.00  0.00     0.004 A 
HETATM   33  C27 UNL     1     -16.337   5.842  14.001  1.00  0.00     0.077 A 
HETATM   34  C22 UNL     1     -13.575   7.827  12.677  1.00  0.00     0.014 A 
HETATM   35  C26 UNL     1     -14.122   6.060  14.230  1.00  0.00     0.048 A 
HETATM   36  C23 UNL     1     -12.229   7.706  13.039  1.00  0.00     0.001 A 
HETATM   37  C24 UNL     1     -11.834   6.772  13.987  1.00  0.00     0.002 A 
HETATM   38  C25 UNL     1     -12.770   5.936  14.598  1.00  0.00     0.030 A 
HETATM   39  N4  UNL     1     -15.248   5.380  14.671  1.00  0.00    -0.316 N 
HETATM   40  O4  UNL     1     -15.987   9.148  11.062  1.00  0.00    -0.268 OA
HETATM   41  N5  UNL     1     -18.239   8.719  10.954  1.00  0.00    -0.353 N 
HETATM   42  H27 UNL     1     -18.430   9.422  10.255  1.00  0.00     0.163 HD
ENDBRANCH   6  18
TORSDOF 6
ENDMDL
