MODEL 1
REMARK minimizedAffinity -10.3003988
REMARK CNNscore 0.432696551
REMARK CNNaffinity 7.30297613
REMARK  7 active torsions:
REMARK  status: ('A' for Active; 'I' for Inactive)
REMARK    1  A    between atoms: C5_5  and  N1_6 
REMARK       I    between atoms: N1_6  and  C6_7 
REMARK    2  A    between atoms: C6_7  and  C7_9 
REMARK    3  A    between atoms: C10_12  and  C11_13 
REMARK    4  A    between atoms: C11_13  and  N2_14 
REMARK    5  A    between atoms: C20_24  and  C21_25 
REMARK       I    between atoms: C21_25  and  N4_27 
REMARK    6  A    between atoms: N4_27  and  C22_28 
REMARK    7  A    between atoms: C25_33  and  C26_34 
ROOT
HETATM    1  C1  UNL     1      -6.594   1.947  11.896  1.00  0.00     0.049 C 
HETATM    2  C2  UNL     1      -5.311   2.729  11.928  1.00  0.00    -0.046 A 
HETATM    3  C3  UNL     1      -4.143   2.157  11.412  1.00  0.00     0.010 A 
HETATM    4  C4  UNL     1      -2.938   2.868  11.425  1.00  0.00     0.030 A 
HETATM    5  C5  UNL     1      -2.868   4.164  11.952  1.00  0.00     0.036 A 
HETATM    6  C19 UNL     1      -4.024   4.741  12.475  1.00  0.00     0.047 A 
HETATM    7  C20 UNL     1      -5.227   4.020  12.481  1.00  0.00     0.041 A 
ENDROOT
BRANCH   7   8
HETATM    8  C21 UNL     1      -6.402   4.664  13.111  1.00  0.00     0.270 C 
HETATM    9  O2  UNL     1      -7.501   4.485  12.609  1.00  0.00    -0.267 OA
HETATM   10  N4  UNL     1      -6.071   5.406  14.212  1.00  0.00    -0.155 N 
HETATM   11  H25 UNL     1      -5.107   5.503  14.489  1.00  0.00     0.187 HD
BRANCH  10  12
HETATM   12  C22 UNL     1      -6.944   6.107  15.027  1.00  0.00     0.685 A 
HETATM   13  N5  UNL     1      -6.711   6.280  16.329  1.00  0.00    -0.202 N 
HETATM   14  C23 UNL     1      -7.623   6.981  17.017  1.00  0.00     0.108 A 
ATOM     15  H5  UNL     1      -5.880   5.897  16.778  1.00  0.00     0.183 HD
HETATM   16  C24 UNL     1      -8.754   7.515  16.451  1.00  0.00     0.048 A 
HETATM   17  C25 UNL     1      -8.924   7.293  15.098  1.00  0.00     0.060 A 
HETATM   18  N6  UNL     1      -8.015   6.594  14.380  1.00  0.00    -0.191 N 
ATOM     19  H6  UNL     1      -8.138   6.442  13.379  1.00  0.00     0.184 HD
BRANCH  17  20
HETATM   20  C26 UNL     1     -10.087   7.794  14.333  1.00  0.00    -0.006 A 
HETATM   21  C27 UNL     1     -10.849   6.922  13.526  1.00  0.00     0.014 A 
HETATM   22  C28 UNL     1     -11.958   7.368  12.797  1.00  0.00     0.004 A 
HETATM   23  C29 UNL     1     -12.333   8.706  12.860  1.00  0.00     0.042 A 
HETATM   24  C30 UNL     1     -11.598   9.578  13.652  1.00  0.00     0.117 A 
HETATM   25  F1  UNL     1     -11.959  10.867  13.722  1.00  0.00    -0.206 F 
HETATM   26  C31 UNL     1     -10.493   9.140  14.381  1.00  0.00     0.056 A 
ENDBRANCH  17  20
ENDBRANCH  10  12
ENDBRANCH   7   8
BRANCH   5  27
HETATM   27  N1  UNL     1      -1.611   4.803  11.910  1.00  0.00    -0.323 N 
HETATM   28  C6  UNL     1      -0.373   4.214  11.718  1.00  0.00     0.256 C 
HETATM   29  O1  UNL     1      -0.160   3.034  11.470  1.00  0.00    -0.267 OA
HETATM   30  H6  UNL     1      -1.634   5.811  11.979  1.00  0.00     0.169 HD
BRANCH  28  31
HETATM   31  C7  UNL     1       0.794   5.147  11.786  1.00  0.00     0.032 A 
HETATM   32  C8  UNL     1       1.776   5.055  10.791  1.00  0.00     0.017 A 
HETATM   33  C9  UNL     1       2.879   5.914  10.805  1.00  0.00     0.010 A 
HETATM   34  C10 UNL     1       3.024   6.871  11.818  1.00  0.00    -0.030 A 
HETATM   35  C17 UNL     1       2.038   6.954  12.815  1.00  0.00     0.010 A 
HETATM   36  C18 UNL     1       0.942   6.088  12.812  1.00  0.00     0.017 A 
BRANCH  34  37
HETATM   37  C11 UNL     1       4.193   7.837  11.800  1.00  0.00     0.311 C 
BRANCH  37  38
HETATM   38  N2  UNL     1       5.280   7.477  12.724  1.00  0.00     0.096 N 
HETATM   39  C12 UNL     1       5.220   8.268  13.972  1.00  0.00     0.303 C 
HETATM   40  C13 UNL     1       6.237   9.429  14.035  1.00  0.00     0.302 C 
HETATM   41  N3  UNL     1       7.635   8.965  13.950  1.00  0.00     0.087 N 
HETATM   42  C14 UNL     1       8.515  10.046  13.518  1.00  0.00     0.310 C 
HETATM   43  C15 UNL     1       7.760   7.766  13.094  1.00  0.00     0.302 C 
HETATM   44  C16 UNL     1       6.609   7.595  12.078  1.00  0.00     0.303 C 
ENDBRANCH  37  38
ENDBRANCH  34  37
ENDBRANCH  28  31
ENDBRANCH   5  27
TORSDOF 7
ENDMDL
MODEL 2
REMARK minimizedAffinity -10.3627357
REMARK CNNscore 0.430668563
REMARK CNNaffinity 7.39874697
REMARK  7 active torsions:
REMARK  status: ('A' for Active; 'I' for Inactive)
REMARK    1  A    between atoms: C5_5  and  N1_6 
REMARK       I    between atoms: N1_6  and  C6_7 
REMARK    2  A    between atoms: C6_7  and  C7_9 
REMARK    3  A    between atoms: C10_12  and  C11_13 
REMARK    4  A    between atoms: C11_13  and  N2_14 
REMARK    5  A    between atoms: C20_24  and  C21_25 
REMARK       I    between atoms: C21_25  and  N4_27 
REMARK    6  A    between atoms: N4_27  and  C22_28 
REMARK    7  A    between atoms: C25_33  and  C26_34 
ROOT
HETATM    1  C1  UNL     1      -2.524   1.343  11.291  1.00  0.00     0.049 C 
HETATM    2  C2  UNL     1      -3.606   2.306  11.691  1.00  0.00    -0.046 A 
HETATM    3  C3  UNL     1      -4.923   1.852  11.812  1.00  0.00     0.010 A 
HETATM    4  C4  UNL     1      -5.946   2.729  12.189  1.00  0.00     0.030 A 
HETATM    5  C5  UNL     1      -5.680   4.079  12.455  1.00  0.00     0.036 A 
HETATM    6  C19 UNL     1      -4.372   4.543  12.332  1.00  0.00     0.047 A 
HETATM    7  C20 UNL     1      -3.351   3.669  11.933  1.00  0.00     0.041 A 
ENDROOT
BRANCH   7   8
HETATM    8  C21 UNL     1      -1.997   4.241  11.757  1.00  0.00     0.270 C 
HETATM    9  O2  UNL     1      -1.392   3.995  10.725  1.00  0.00    -0.267 OA
HETATM   10  N4  UNL     1      -1.597   4.993  12.829  1.00  0.00    -0.155 N 
HETATM   11  H25 UNL     1      -2.187   5.074  13.641  1.00  0.00     0.187 HD
BRANCH  10  12
HETATM   12  C22 UNL     1      -0.399   5.675  12.956  1.00  0.00     0.685 A 
HETATM   13  N5  UNL     1       0.201   5.836  14.136  1.00  0.00    -0.202 N 
HETATM   14  C23 UNL     1       1.360   6.507  14.138  1.00  0.00     0.108 A 
ATOM     15  H5  UNL     1      -0.204   5.465  14.996  1.00  0.00     0.183 HD
HETATM   16  C24 UNL     1       1.941   7.020  13.003  1.00  0.00     0.048 A 
HETATM   17  C25 UNL     1       1.259   6.812  11.820  1.00  0.00     0.060 A 
HETATM   18  N6  UNL     1       0.090   6.131  11.792  1.00  0.00    -0.191 N 
ATOM     19  H6  UNL     1      -0.404   5.969  10.915  1.00  0.00     0.184 HD
BRANCH  17  20
HETATM   20  C26 UNL     1       1.742   7.300  10.509  1.00  0.00    -0.006 A 
HETATM   21  C27 UNL     1       3.087   7.691  10.338  1.00  0.00     0.014 A 
HETATM   22  C28 UNL     1       3.572   8.151   9.108  1.00  0.00     0.004 A 
HETATM   23  C29 UNL     1       2.717   8.229   8.014  1.00  0.00     0.042 A 
HETATM   24  C30 UNL     1       1.392   7.843   8.162  1.00  0.00     0.117 A 
HETATM   25  F1  UNL     1       0.565   7.909   7.109  1.00  0.00    -0.206 F 
HETATM   26  C31 UNL     1       0.902   7.384   9.385  1.00  0.00     0.056 A 
ENDBRANCH  17  20
ENDBRANCH  10  12
ENDBRANCH   7   8
BRANCH   5  27
HETATM   27  N1  UNL     1      -6.775   4.881  12.840  1.00  0.00    -0.323 N 
HETATM   28  C6  UNL     1      -6.939   5.570  14.029  1.00  0.00     0.256 C 
HETATM   29  O1  UNL     1      -6.117   5.668  14.931  1.00  0.00    -0.267 OA
HETATM   30  H6  UNL     1      -7.494   4.998  12.139  1.00  0.00     0.169 HD
BRANCH  28  31
HETATM   31  C7  UNL     1      -8.242   6.288  14.175  1.00  0.00     0.032 A 
HETATM   32  C8  UNL     1      -9.208   6.122  13.174  1.00  0.00     0.017 A 
HETATM   33  C9  UNL     1     -10.446   6.763  13.272  1.00  0.00     0.010 A 
HETATM   34  C10 UNL     1     -10.737   7.587  14.368  1.00  0.00    -0.030 A 
HETATM   35  C17 UNL     1      -9.762   7.753  15.366  1.00  0.00     0.010 A 
HETATM   36  C18 UNL     1      -8.518   7.125  15.263  1.00  0.00     0.017 A 
BRANCH  34  37
HETATM   37  C11 UNL     1     -12.101   8.237  14.499  1.00  0.00     0.311 C 
BRANCH  37  38
HETATM   38  N2  UNL     1     -12.857   8.296  13.239  1.00  0.00     0.096 N 
HETATM   39  C12 UNL     1     -12.661   9.586  12.544  1.00  0.00     0.303 C 
HETATM   40  C13 UNL     1     -13.835  10.577  12.704  1.00  0.00     0.302 C 
HETATM   41  N3  UNL     1     -15.103  10.048  12.164  1.00  0.00     0.087 N 
HETATM   42  C14 UNL     1     -16.245  10.743  12.750  1.00  0.00     0.310 C 
HETATM   43  C15 UNL     1     -15.195   8.582  12.328  1.00  0.00     0.302 C 
HETATM   44  C16 UNL     1     -14.298   8.016  13.452  1.00  0.00     0.303 C 
ENDBRANCH  37  38
ENDBRANCH  34  37
ENDBRANCH  28  31
ENDBRANCH   5  27
TORSDOF 7
ENDMDL
MODEL 3
REMARK minimizedAffinity -9.83598709
REMARK CNNscore 0.422742337
REMARK CNNaffinity 7.39276266
REMARK  7 active torsions:
REMARK  status: ('A' for Active; 'I' for Inactive)
REMARK    1  A    between atoms: C5_5  and  N1_6 
REMARK       I    between atoms: N1_6  and  C6_7 
REMARK    2  A    between atoms: C6_7  and  C7_9 
REMARK    3  A    between atoms: C10_12  and  C11_13 
REMARK    4  A    between atoms: C11_13  and  N2_14 
REMARK    5  A    between atoms: C20_24  and  C21_25 
REMARK       I    between atoms: C21_25  and  N4_27 
REMARK    6  A    between atoms: N4_27  and  C22_28 
REMARK    7  A    between atoms: C25_33  and  C26_34 
ROOT
HETATM    1  C1  UNL     1      -4.097   1.783  11.393  1.00  0.00     0.049 C 
HETATM    2  C2  UNL     1      -4.966   2.803  12.073  1.00  0.00    -0.046 A 
HETATM    3  C3  UNL     1      -6.338   2.563  12.202  1.00  0.00     0.010 A 
HETATM    4  C4  UNL     1      -7.166   3.495  12.836  1.00  0.00     0.030 A 
HETATM    5  C5  UNL     1      -6.647   4.688  13.358  1.00  0.00     0.036 A 
HETATM    6  C19 UNL     1      -5.283   4.940  13.229  1.00  0.00     0.047 A 
HETATM    7  C20 UNL     1      -4.457   4.015  12.574  1.00  0.00     0.041 A 
ENDROOT
BRANCH   7   8
HETATM    8  C21 UNL     1      -3.029   4.374  12.413  1.00  0.00     0.270 C 
HETATM    9  O2  UNL     1      -2.314   3.631  11.759  1.00  0.00    -0.267 OA
HETATM   10  N4  UNL     1      -2.701   5.537  13.055  1.00  0.00    -0.155 N 
HETATM   11  H25 UNL     1      -3.391   6.028  13.602  1.00  0.00     0.187 HD
BRANCH  10  12
HETATM   12  C22 UNL     1      -1.458   6.146  13.073  1.00  0.00     0.685 A 
HETATM   13  N5  UNL     1      -0.863   6.505  14.211  1.00  0.00    -0.202 N 
HETATM   14  C23 UNL     1       0.343   7.081  14.107  1.00  0.00     0.108 A 
ATOM     15  H5  UNL     1      -1.304   6.349  15.117  1.00  0.00     0.183 HD
HETATM   16  C24 UNL     1       0.973   7.308  12.908  1.00  0.00     0.048 A 
HETATM   17  C25 UNL     1       0.292   6.908  11.774  1.00  0.00     0.060 A 
HETATM   18  N6  UNL     1      -0.923   6.318  11.854  1.00  0.00    -0.191 N 
ATOM     19  H6  UNL     1      -1.416   6.014  11.015  1.00  0.00     0.184 HD
BRANCH  17  20
HETATM   20  C26 UNL     1       0.826   7.081  10.404  1.00  0.00    -0.006 A 
HETATM   21  C27 UNL     1       0.400   8.157   9.597  1.00  0.00     0.014 A 
HETATM   22  C28 UNL     1       0.893   8.349   8.301  1.00  0.00     0.004 A 
HETATM   23  C29 UNL     1       1.829   7.462   7.780  1.00  0.00     0.042 A 
HETATM   24  C30 UNL     1       2.263   6.401   8.561  1.00  0.00     0.117 A 
HETATM   25  F1  UNL     1       3.170   5.547   8.066  1.00  0.00    -0.206 F 
HETATM   26  C31 UNL     1       1.776   6.204   9.853  1.00  0.00     0.056 A 
ENDBRANCH  17  20
ENDBRANCH  10  12
ENDBRANCH   7   8
BRANCH   5  27
HETATM   27  N1  UNL     1      -7.561   5.558  13.989  1.00  0.00    -0.323 N 
HETATM   28  C6  UNL     1      -8.669   6.168  13.428  1.00  0.00     0.256 C 
HETATM   29  O1  UNL     1      -9.099   5.993  12.295  1.00  0.00    -0.267 OA
HETATM   30  H6  UNL     1      -7.405   5.708  14.977  1.00  0.00     0.169 HD
BRANCH  28  31
HETATM   31  C7  UNL     1      -9.415   7.093  14.335  1.00  0.00     0.032 A 
HETATM   32  C8  UNL     1     -10.764   7.351  14.058  1.00  0.00     0.017 A 
HETATM   33  C9  UNL     1     -11.506   8.199  14.884  1.00  0.00     0.010 A 
HETATM   34  C10 UNL     1     -10.911   8.812  15.995  1.00  0.00    -0.030 A 
HETATM   35  C17 UNL     1      -9.557   8.554  16.264  1.00  0.00     0.010 A 
HETATM   36  C18 UNL     1      -8.808   7.717  15.432  1.00  0.00     0.017 A 
BRANCH  34  37
HETATM   37  C11 UNL     1     -11.733   9.689  16.921  1.00  0.00     0.311 C 
BRANCH  37  38
HETATM   38  N2  UNL     1     -11.046  10.045  18.172  1.00  0.00     0.096 N 
HETATM   39  C12 UNL     1     -11.637   9.352  19.336  1.00  0.00     0.303 C 
HETATM   40  C13 UNL     1     -12.572  10.234  20.192  1.00  0.00     0.302 C 
HETATM   41  N3  UNL     1     -11.880  11.406  20.764  1.00  0.00     0.087 N 
HETATM   42  C14 UNL     1     -12.837  12.446  21.126  1.00  0.00     0.310 C 
HETATM   43  C15 UNL     1     -10.822  11.907  19.862  1.00  0.00     0.302 C 
HETATM   44  C16 UNL     1     -11.018  11.513  18.380  1.00  0.00     0.303 C 
ENDBRANCH  37  38
ENDBRANCH  34  37
ENDBRANCH  28  31
ENDBRANCH   5  27
TORSDOF 7
ENDMDL
MODEL 4
REMARK minimizedAffinity -9.90962601
REMARK CNNscore 0.416419208
REMARK CNNaffinity 7.38004303
REMARK  7 active torsions:
REMARK  status: ('A' for Active; 'I' for Inactive)
REMARK    1  A    between atoms: C5_5  and  N1_6 
REMARK       I    between atoms: N1_6  and  C6_7 
REMARK    2  A    between atoms: C6_7  and  C7_9 
REMARK    3  A    between atoms: C10_12  and  C11_13 
REMARK    4  A    between atoms: C11_13  and  N2_14 
REMARK    5  A    between atoms: C20_24  and  C21_25 
REMARK       I    between atoms: C21_25  and  N4_27 
REMARK    6  A    between atoms: N4_27  and  C22_28 
REMARK    7  A    between atoms: C25_33  and  C26_34 
ROOT
HETATM    1  C1  UNL     1      -3.851   1.342  11.449  1.00  0.00     0.049 C 
HETATM    2  C2  UNL     1      -4.839   2.359  11.946  1.00  0.00    -0.046 A 
HETATM    3  C3  UNL     1      -6.167   1.980  12.168  1.00  0.00     0.010 A 
HETATM    4  C4  UNL     1      -7.103   2.907  12.636  1.00  0.00     0.030 A 
HETATM    5  C5  UNL     1      -6.739   4.235  12.897  1.00  0.00     0.036 A 
HETATM    6  C19 UNL     1      -5.420   4.626  12.674  1.00  0.00     0.047 A 
HETATM    7  C20 UNL     1      -4.487   3.701  12.183  1.00  0.00     0.041 A 
ENDROOT
BRANCH   7   8
HETATM    8  C21 UNL     1      -3.120   4.197  11.905  1.00  0.00     0.270 C 
HETATM    9  O2  UNL     1      -2.624   3.954  10.816  1.00  0.00    -0.267 OA
HETATM   10  N4  UNL     1      -2.582   4.885  12.960  1.00  0.00    -0.155 N 
HETATM   11  H25 UNL     1      -3.093   4.971  13.824  1.00  0.00     0.187 HD
BRANCH  10  12
HETATM   12  C22 UNL     1      -1.337   5.489  13.001  1.00  0.00     0.685 A 
HETATM   13  N5  UNL     1      -0.672   5.658  14.144  1.00  0.00    -0.202 N 
HETATM   14  C23 UNL     1       0.528   6.249  14.062  1.00  0.00     0.108 A 
ATOM     15  H5  UNL     1      -1.057   5.352  15.037  1.00  0.00     0.183 HD
HETATM   16  C24 UNL     1       1.085   6.674  12.880  1.00  0.00     0.048 A 
HETATM   17  C25 UNL     1       0.334   6.463  11.740  1.00  0.00     0.060 A 
HETATM   18  N6  UNL     1      -0.877   5.862  11.797  1.00  0.00    -0.191 N 
ATOM     19  H6  UNL     1      -1.423   5.698  10.951  1.00  0.00     0.184 HD
BRANCH  17  20
HETATM   20  C26 UNL     1       0.783   6.862  10.388  1.00  0.00    -0.006 A 
HETATM   21  C27 UNL     1       0.198   7.966   9.732  1.00  0.00     0.014 A 
HETATM   22  C28 UNL     1       0.608   8.370   8.456  1.00  0.00     0.004 A 
HETATM   23  C29 UNL     1       1.618   7.673   7.802  1.00  0.00     0.042 A 
HETATM   24  C30 UNL     1       2.208   6.587   8.433  1.00  0.00     0.117 A 
HETATM   25  F1  UNL     1       3.187   5.915   7.811  1.00  0.00    -0.206 F 
HETATM   26  C31 UNL     1       1.805   6.180   9.705  1.00  0.00     0.056 A 
ENDBRANCH  17  20
ENDBRANCH  10  12
ENDBRANCH   7   8
BRANCH   5  27
HETATM   27  N1  UNL     1      -7.751   5.092  13.378  1.00  0.00    -0.323 N 
HETATM   28  C6  UNL     1      -8.690   5.787  12.636  1.00  0.00     0.256 C 
HETATM   29  O1  UNL     1      -8.856   5.715  11.425  1.00  0.00    -0.267 OA
HETATM   30  H6  UNL     1      -7.821   5.159  14.384  1.00  0.00     0.169 HD
BRANCH  28  31
HETATM   31  C7  UNL     1      -9.601   6.670  13.426  1.00  0.00     0.032 A 
HETATM   32  C8  UNL     1      -9.197   7.062  14.709  1.00  0.00     0.017 A 
HETATM   33  C9  UNL     1     -10.009   7.897  15.482  1.00  0.00     0.010 A 
HETATM   34  C10 UNL     1     -11.242   8.346  14.989  1.00  0.00    -0.030 A 
HETATM   35  C17 UNL     1     -11.643   7.945  13.705  1.00  0.00     0.010 A 
HETATM   36  C18 UNL     1     -10.840   7.099  12.935  1.00  0.00     0.017 A 
BRANCH  34  37
HETATM   37  C11 UNL     1     -12.096   9.296  15.809  1.00  0.00     0.311 C 
BRANCH  37  38
HETATM   38  N2  UNL     1     -12.084  10.683  15.318  1.00  0.00     0.096 N 
HETATM   39  C12 UNL     1     -10.754  11.068  14.800  1.00  0.00     0.303 C 
HETATM   40  C13 UNL     1      -9.924  11.939  15.768  1.00  0.00     0.302 C 
HETATM   41  N3  UNL     1     -10.586  13.219  16.089  1.00  0.00     0.087 N 
HETATM   42  C14 UNL     1     -10.063  13.774  17.333  1.00  0.00     0.310 C 
HETATM   43  C15 UNL     1     -12.057  13.079  16.114  1.00  0.00     0.302 C 
HETATM   44  C16 UNL     1     -12.549  11.634  16.357  1.00  0.00     0.303 C 
ENDBRANCH  37  38
ENDBRANCH  34  37
ENDBRANCH  28  31
ENDBRANCH   5  27
TORSDOF 7
ENDMDL
MODEL 5
REMARK minimizedAffinity -9.88176918
REMARK CNNscore 0.259715468
REMARK CNNaffinity 7.1389122
REMARK  7 active torsions:
REMARK  status: ('A' for Active; 'I' for Inactive)
REMARK    1  A    between atoms: C5_5  and  N1_6 
REMARK       I    between atoms: N1_6  and  C6_7 
REMARK    2  A    between atoms: C6_7  and  C7_9 
REMARK    3  A    between atoms: C10_12  and  C11_13 
REMARK    4  A    between atoms: C11_13  and  N2_14 
REMARK    5  A    between atoms: C20_24  and  C21_25 
REMARK       I    between atoms: C21_25  and  N4_27 
REMARK    6  A    between atoms: N4_27  and  C22_28 
REMARK    7  A    between atoms: C25_33  and  C26_34 
ROOT
HETATM    1  C1  UNL     1      -7.035   1.968  12.070  1.00  0.00     0.049 C 
HETATM    2  C2  UNL     1      -5.720   2.695  12.105  1.00  0.00    -0.046 A 
HETATM    3  C3  UNL     1      -4.566   2.056  11.641  1.00  0.00     0.010 A 
HETATM    4  C4  UNL     1      -3.332   2.714  11.658  1.00  0.00     0.030 A 
HETATM    5  C5  UNL     1      -3.219   4.026  12.137  1.00  0.00     0.036 A 
HETATM    6  C19 UNL     1      -4.361   4.670  12.609  1.00  0.00     0.047 A 
HETATM    7  C20 UNL     1      -5.594   4.002  12.611  1.00  0.00     0.041 A 
ENDROOT
BRANCH   7   8
HETATM    8  C21 UNL     1      -6.754   4.719  13.187  1.00  0.00     0.270 C 
HETATM    9  O2  UNL     1      -7.835   4.618  12.627  1.00  0.00    -0.267 OA
HETATM   10  N4  UNL     1      -6.432   5.430  14.311  1.00  0.00    -0.155 N 
HETATM   11  H25 UNL     1      -5.480   5.460  14.638  1.00  0.00     0.187 HD
BRANCH  10  12
HETATM   12  C22 UNL     1      -7.298   6.182  15.087  1.00  0.00     0.685 A 
HETATM   13  N5  UNL     1      -7.023   6.491  16.355  1.00  0.00    -0.202 N 
HETATM   14  C23 UNL     1      -7.932   7.230  17.006  1.00  0.00     0.108 A 
ATOM     15  H5  UNL     1      -6.163   6.181  16.806  1.00  0.00     0.183 HD
HETATM   16  C24 UNL     1      -9.101   7.671  16.436  1.00  0.00     0.048 A 
HETATM   17  C25 UNL     1      -9.313   7.308  15.120  1.00  0.00     0.060 A 
HETATM   18  N6  UNL     1      -8.408   6.569  14.438  1.00  0.00    -0.191 N 
ATOM     19  H6  UNL     1      -8.563   6.314  13.463  1.00  0.00     0.184 HD
BRANCH  17  20
HETATM   20  C26 UNL     1     -10.521   7.695  14.357  1.00  0.00    -0.006 A 
HETATM   21  C27 UNL     1     -10.669   9.008  13.861  1.00  0.00     0.014 A 
HETATM   22  C28 UNL     1     -11.797   9.400  13.131  1.00  0.00     0.004 A 
HETATM   23  C29 UNL     1     -12.810   8.481  12.878  1.00  0.00     0.042 A 
HETATM   24  C30 UNL     1     -12.679   7.183  13.354  1.00  0.00     0.117 A 
HETATM   25  F1  UNL     1     -13.649   6.291  13.107  1.00  0.00    -0.206 F 
HETATM   26  C31 UNL     1     -11.557   6.787  14.081  1.00  0.00     0.056 A 
ENDBRANCH  17  20
ENDBRANCH  10  12
ENDBRANCH   7   8
BRANCH   5  27
HETATM   27  N1  UNL     1      -1.934   4.609  12.103  1.00  0.00    -0.323 N 
HETATM   28  C6  UNL     1      -1.602   5.931  12.344  1.00  0.00     0.256 C 
HETATM   29  O1  UNL     1      -2.364   6.817  12.709  1.00  0.00    -0.267 OA
HETATM   30  H6  UNL     1      -1.172   3.968  11.931  1.00  0.00     0.169 HD
BRANCH  28  31
HETATM   31  C7  UNL     1      -0.155   6.266  12.171  1.00  0.00     0.032 A 
HETATM   32  C8  UNL     1       0.338   6.426  10.869  1.00  0.00     0.017 A 
HETATM   33  C9  UNL     1       1.681   6.752  10.657  1.00  0.00     0.010 A 
HETATM   34  C10 UNL     1       2.555   6.912  11.741  1.00  0.00    -0.030 A 
HETATM   35  C17 UNL     1       2.055   6.744  13.043  1.00  0.00     0.010 A 
HETATM   36  C18 UNL     1       0.716   6.405  13.258  1.00  0.00     0.017 A 
BRANCH  34  37
HETATM   37  C11 UNL     1       3.998   7.319  11.510  1.00  0.00     0.311 C 
BRANCH  37  38
HETATM   38  N2  UNL     1       4.182   8.760  11.275  1.00  0.00     0.096 N 
HETATM   39  C12 UNL     1       5.151   9.017  10.189  1.00  0.00     0.303 C 
HETATM   40  C13 UNL     1       6.556   9.434  10.678  1.00  0.00     0.302 C 
HETATM   41  N3  UNL     1       6.535  10.681  11.467  1.00  0.00     0.087 N 
HETATM   42  C14 UNL     1       7.724  10.782  12.308  1.00  0.00     0.310 C 
HETATM   43  C15 UNL     1       5.286  10.812  12.246  1.00  0.00     0.302 C 
HETATM   44  C16 UNL     1       4.569   9.470  12.518  1.00  0.00     0.303 C 
ENDBRANCH  37  38
ENDBRANCH  34  37
ENDBRANCH  28  31
ENDBRANCH   5  27
TORSDOF 7
ENDMDL
MODEL 6
REMARK minimizedAffinity -8.90791702
REMARK CNNscore 0.249532521
REMARK CNNaffinity 6.43885994
REMARK  7 active torsions:
REMARK  status: ('A' for Active; 'I' for Inactive)
REMARK    1  A    between atoms: C5_5  and  N1_6 
REMARK       I    between atoms: N1_6  and  C6_7 
REMARK    2  A    between atoms: C6_7  and  C7_9 
REMARK    3  A    between atoms: C10_12  and  C11_13 
REMARK    4  A    between atoms: C11_13  and  N2_14 
REMARK    5  A    between atoms: C20_24  and  C21_25 
REMARK       I    between atoms: C21_25  and  N4_27 
REMARK    6  A    between atoms: N4_27  and  C22_28 
REMARK    7  A    between atoms: C25_33  and  C26_34 
ROOT
HETATM    1  C1  UNL     1     -13.069   9.098  15.756  1.00  0.00     0.049 C 
HETATM    2  C2  UNL     1     -13.775   7.816  15.418  1.00  0.00    -0.046 A 
HETATM    3  C3  UNL     1     -15.048   7.570  15.945  1.00  0.00     0.010 A 
HETATM    4  C4  UNL     1     -15.727   6.387  15.640  1.00  0.00     0.030 A 
HETATM    5  C5  UNL     1     -15.156   5.420  14.802  1.00  0.00     0.036 A 
HETATM    6  C19 UNL     1     -13.887   5.650  14.277  1.00  0.00     0.047 A 
HETATM    7  C20 UNL     1     -13.197   6.828  14.600  1.00  0.00     0.041 A 
ENDROOT
BRANCH   7   8
HETATM    8  C21 UNL     1     -11.826   6.981  14.063  1.00  0.00     0.270 C 
HETATM    9  O2  UNL     1     -11.694   7.295  12.890  1.00  0.00    -0.267 OA
HETATM   10  N4  UNL     1     -10.859   6.732  14.999  1.00  0.00    -0.155 N 
HETATM   11  H25 UNL     1     -11.116   6.435  15.928  1.00  0.00     0.187 HD
BRANCH  10  12
HETATM   12  C22 UNL     1      -9.490   6.814  14.813  1.00  0.00     0.685 A 
HETATM   13  N5  UNL     1      -8.780   7.857  15.242  1.00  0.00    -0.202 N 
HETATM   14  C23 UNL     1      -7.460   7.825  15.012  1.00  0.00     0.108 A 
ATOM     15  H5  UNL     1      -9.219   8.642  15.722  1.00  0.00     0.183 HD
HETATM   16  C24 UNL     1      -6.827   6.787  14.372  1.00  0.00     0.048 A 
HETATM   17  C25 UNL     1      -7.632   5.743  13.958  1.00  0.00     0.060 A 
HETATM   18  N6  UNL     1      -8.965   5.750  14.184  1.00  0.00    -0.191 N 
ATOM     19  H6  UNL     1      -9.554   4.972  13.887  1.00  0.00     0.184 HD
BRANCH  17  20
HETATM   20  C26 UNL     1      -7.113   4.551  13.251  1.00  0.00    -0.006 A 
HETATM   21  C27 UNL     1      -7.841   3.342  13.250  1.00  0.00     0.014 A 
HETATM   22  C28 UNL     1      -7.377   2.200  12.585  1.00  0.00     0.004 A 
HETATM   23  C29 UNL     1      -6.167   2.243  11.901  1.00  0.00     0.042 A 
HETATM   24  C30 UNL     1      -5.440   3.425  11.888  1.00  0.00     0.117 A 
HETATM   25  F1  UNL     1      -4.276   3.474  11.224  1.00  0.00    -0.206 F 
HETATM   26  C31 UNL     1      -5.896   4.566  12.548  1.00  0.00     0.056 A 
ENDBRANCH  17  20
ENDBRANCH  10  12
ENDBRANCH   7   8
BRANCH   5  27
HETATM   27  N1  UNL     1     -15.925   4.264  14.545  1.00  0.00    -0.323 N 
HETATM   28  C6  UNL     1     -15.506   2.946  14.588  1.00  0.00     0.256 C 
HETATM   29  O1  UNL     1     -14.403   2.546  14.939  1.00  0.00    -0.267 OA
HETATM   30  H6  UNL     1     -16.904   4.428  14.356  1.00  0.00     0.169 HD
BRANCH  28  31
HETATM   31  C7  UNL     1     -16.538   1.936  14.203  1.00  0.00     0.032 A 
HETATM   32  C8  UNL     1     -16.260   1.077  13.132  1.00  0.00     0.017 A 
HETATM   33  C9  UNL     1     -17.189   0.108  12.742  1.00  0.00     0.010 A 
HETATM   34  C10 UNL     1     -18.415  -0.012  13.410  1.00  0.00    -0.030 A 
HETATM   35  C17 UNL     1     -18.689   0.855  14.480  1.00  0.00     0.010 A 
HETATM   36  C18 UNL     1     -17.769   1.834  14.863  1.00  0.00     0.017 A 
BRANCH  34  37
HETATM   37  C11 UNL     1     -19.397  -1.100  13.020  1.00  0.00     0.311 C 
BRANCH  37  38
HETATM   38  N2  UNL     1     -19.104  -2.412  13.619  1.00  0.00     0.096 N 
HETATM   39  C12 UNL     1     -18.726  -2.291  15.043  1.00  0.00     0.303 C 
HETATM   40  C13 UNL     1     -17.209  -2.397  15.308  1.00  0.00     0.302 C 
HETATM   41  N3  UNL     1     -16.647  -3.694  14.880  1.00  0.00     0.087 N 
HETATM   42  C14 UNL     1     -15.206  -3.591  14.675  1.00  0.00     0.310 C 
HETATM   43  C15 UNL     1     -17.346  -4.222  13.689  1.00  0.00     0.302 C 
HETATM   44  C16 UNL     1     -18.068  -3.143  12.851  1.00  0.00     0.303 C 
ENDBRANCH  37  38
ENDBRANCH  34  37
ENDBRANCH  28  31
ENDBRANCH   5  27
TORSDOF 7
ENDMDL
MODEL 7
REMARK minimizedAffinity -9.01423931
REMARK CNNscore 0.196366414
REMARK CNNaffinity 5.69450951
REMARK  7 active torsions:
REMARK  status: ('A' for Active; 'I' for Inactive)
REMARK    1  A    between atoms: C5_5  and  N1_6 
REMARK       I    between atoms: N1_6  and  C6_7 
REMARK    2  A    between atoms: C6_7  and  C7_9 
REMARK    3  A    between atoms: C10_12  and  C11_13 
REMARK    4  A    between atoms: C11_13  and  N2_14 
REMARK    5  A    between atoms: C20_24  and  C21_25 
REMARK       I    between atoms: C21_25  and  N4_27 
REMARK    6  A    between atoms: N4_27  and  C22_28 
REMARK    7  A    between atoms: C25_33  and  C26_34 
ROOT
HETATM    1  C1  UNL     1      -8.124 -14.828  26.863  1.00  0.00     0.049 C 
HETATM    2  C2  UNL     1      -8.536 -14.030  25.658  1.00  0.00    -0.046 A 
HETATM    3  C3  UNL     1      -7.721 -14.026  24.521  1.00  0.00     0.010 A 
HETATM    4  C4  UNL     1      -8.087 -13.296  23.386  1.00  0.00     0.030 A 
HETATM    5  C5  UNL     1      -9.275 -12.554  23.355  1.00  0.00     0.036 A 
HETATM    6  C19 UNL     1     -10.091 -12.545  24.484  1.00  0.00     0.047 A 
HETATM    7  C20 UNL     1      -9.713 -13.259  25.630  1.00  0.00     0.041 A 
ENDROOT
BRANCH   7   8
HETATM    8  C21 UNL     1     -10.592 -13.155  26.817  1.00  0.00     0.270 C 
HETATM    9  O2  UNL     1     -10.689 -14.123  27.555  1.00  0.00    -0.267 OA
HETATM   10  N4  UNL     1     -11.201 -11.933  26.918  1.00  0.00    -0.155 N 
HETATM   11  H25 UNL     1     -11.062 -11.236  26.204  1.00  0.00     0.187 HD
BRANCH  10  12
HETATM   12  C22 UNL     1     -12.058 -11.520  27.923  1.00  0.00     0.685 A 
HETATM   13  N5  UNL     1     -12.712 -12.388  28.696  1.00  0.00    -0.202 N 
HETATM   14  C23 UNL     1     -13.509 -11.873  29.642  1.00  0.00     0.108 A 
ATOM     15  H5  UNL     1     -12.609 -13.395  28.574  1.00  0.00     0.183 HD
HETATM   16  C24 UNL     1     -13.674 -10.524  29.842  1.00  0.00     0.048 A 
HETATM   17  C25 UNL     1     -12.964  -9.690  29.001  1.00  0.00     0.060 A 
HETATM   18  N6  UNL     1     -12.147 -10.186  28.043  1.00  0.00    -0.191 N 
ATOM     19  H6  UNL     1     -11.615  -9.566  27.432  1.00  0.00     0.184 HD
BRANCH  17  20
HETATM   20  C26 UNL     1     -13.030  -8.213  29.078  1.00  0.00    -0.006 A 
HETATM   21  C27 UNL     1     -13.743  -7.473  28.111  1.00  0.00     0.014 A 
HETATM   22  C28 UNL     1     -13.827  -6.077  28.163  1.00  0.00     0.004 A 
HETATM   23  C29 UNL     1     -13.195  -5.385  29.191  1.00  0.00     0.042 A 
HETATM   24  C30 UNL     1     -12.493  -6.096  30.153  1.00  0.00     0.117 A 
HETATM   25  F1  UNL     1     -11.888  -5.435  31.150  1.00  0.00    -0.206 F 
HETATM   26  C31 UNL     1     -12.405  -7.488  30.107  1.00  0.00     0.056 A 
ENDBRANCH  17  20
ENDBRANCH  10  12
ENDBRANCH   7   8
BRANCH   5  27
HETATM   27  N1  UNL     1      -9.563 -11.860  22.160  1.00  0.00    -0.323 N 
HETATM   28  C6  UNL     1      -8.896 -10.763  21.641  1.00  0.00     0.256 C 
HETATM   29  O1  UNL     1      -7.882 -10.249  22.093  1.00  0.00    -0.267 OA
HETATM   30  H6  UNL     1     -10.312 -12.247  21.604  1.00  0.00     0.169 HD
BRANCH  28  31
HETATM   31  C7  UNL     1      -9.475 -10.204  20.381  1.00  0.00     0.032 A 
HETATM   32  C8  UNL     1     -10.672 -10.750  19.901  1.00  0.00     0.017 A 
HETATM   33  C9  UNL     1     -11.259 -10.252  18.734  1.00  0.00     0.010 A 
HETATM   34  C10 UNL     1     -10.654  -9.207  18.023  1.00  0.00    -0.030 A 
HETATM   35  C17 UNL     1      -9.451  -8.668  18.507  1.00  0.00     0.010 A 
HETATM   36  C18 UNL     1      -8.855  -9.173  19.666  1.00  0.00     0.017 A 
BRANCH  34  37
HETATM   37  C11 UNL     1     -11.321  -8.632  16.787  1.00  0.00     0.311 C 
BRANCH  37  38
HETATM   38  N2  UNL     1     -11.446  -9.590  15.677  1.00  0.00     0.096 N 
HETATM   39  C12 UNL     1     -10.305 -10.530  15.635  1.00  0.00     0.303 C 
HETATM   40  C13 UNL     1      -9.248 -10.197  14.559  1.00  0.00     0.302 C 
HETATM   41  N3  UNL     1      -9.803 -10.219  13.192  1.00  0.00     0.087 N 
HETATM   42  C14 UNL     1      -8.966  -9.445  12.281  1.00  0.00     0.310 C 
HETATM   43  C15 UNL     1     -11.213  -9.775  13.170  1.00  0.00     0.302 C 
HETATM   44  C16 UNL     1     -11.617  -8.898  14.376  1.00  0.00     0.303 C 
ENDBRANCH  37  38
ENDBRANCH  34  37
ENDBRANCH  28  31
ENDBRANCH   5  27
TORSDOF 7
ENDMDL
MODEL 8
REMARK minimizedAffinity -10.3336115
REMARK CNNscore 0.195569664
REMARK CNNaffinity 7.0056057
REMARK  7 active torsions:
REMARK  status: ('A' for Active; 'I' for Inactive)
REMARK    1  A    between atoms: C5_5  and  N1_6 
REMARK       I    between atoms: N1_6  and  C6_7 
REMARK    2  A    between atoms: C6_7  and  C7_9 
REMARK    3  A    between atoms: C10_12  and  C11_13 
REMARK    4  A    between atoms: C11_13  and  N2_14 
REMARK    5  A    between atoms: C20_24  and  C21_25 
REMARK       I    between atoms: C21_25  and  N4_27 
REMARK    6  A    between atoms: N4_27  and  C22_28 
REMARK    7  A    between atoms: C25_33  and  C26_34 
ROOT
HETATM    1  C1  UNL     1      -3.899   1.416  11.622  1.00  0.00     0.049 C 
HETATM    2  C2  UNL     1      -4.725   2.599  12.044  1.00  0.00    -0.046 A 
HETATM    3  C3  UNL     1      -6.115   2.472  12.136  1.00  0.00     0.010 A 
HETATM    4  C4  UNL     1      -6.903   3.557  12.532  1.00  0.00     0.030 A 
HETATM    5  C5  UNL     1      -6.325   4.795  12.846  1.00  0.00     0.036 A 
HETATM    6  C19 UNL     1      -4.942   4.934  12.751  1.00  0.00     0.047 A 
HETATM    7  C20 UNL     1      -4.154   3.852  12.334  1.00  0.00     0.041 A 
ENDROOT
BRANCH   7   8
HETATM    8  C21 UNL     1      -2.699   4.086  12.190  1.00  0.00     0.270 C 
HETATM    9  O2  UNL     1      -2.039   3.271  11.564  1.00  0.00    -0.267 OA
HETATM   10  N4  UNL     1      -2.284   5.232  12.812  1.00  0.00    -0.155 N 
HETATM   11  H25 UNL     1      -2.939   5.792  13.335  1.00  0.00     0.187 HD
BRANCH  10  12
HETATM   12  C22 UNL     1      -0.995   5.735  12.839  1.00  0.00     0.685 A 
HETATM   13  N5  UNL     1      -0.323   5.898  13.979  1.00  0.00    -0.202 N 
HETATM   14  C23 UNL     1       0.921   6.386  13.882  1.00  0.00     0.108 A 
ATOM     15  H5  UNL     1      -0.736   5.661  14.881  1.00  0.00     0.183 HD
HETATM   16  C24 UNL     1       1.516   6.715  12.688  1.00  0.00     0.048 A 
HETATM   17  C25 UNL     1       0.755   6.518  11.552  1.00  0.00     0.060 A 
HETATM   18  N6  UNL     1      -0.500   6.020  11.623  1.00  0.00    -0.191 N 
ATOM     19  H6  UNL     1      -1.054   5.865  10.781  1.00  0.00     0.184 HD
BRANCH  17  20
HETATM   20  C26 UNL     1       1.241   6.824  10.188  1.00  0.00    -0.006 A 
HETATM   21  C27 UNL     1       0.901   8.040   9.558  1.00  0.00     0.014 A 
HETATM   22  C28 UNL     1       1.351   8.357   8.271  1.00  0.00     0.004 A 
HETATM   23  C29 UNL     1       2.159   7.459   7.581  1.00  0.00     0.042 A 
HETATM   24  C30 UNL     1       2.508   6.260   8.187  1.00  0.00     0.117 A 
HETATM   25  F1  UNL     1       3.292   5.394   7.529  1.00  0.00    -0.206 F 
HETATM   26  C31 UNL     1       2.062   5.938   9.469  1.00  0.00     0.056 A 
ENDBRANCH  17  20
ENDBRANCH  10  12
ENDBRANCH   7   8
BRANCH   5  27
HETATM   27  N1  UNL     1      -7.203   5.825  13.247  1.00  0.00    -0.323 N 
HETATM   28  C6  UNL     1      -7.480   6.241  14.537  1.00  0.00     0.256 C 
HETATM   29  O1  UNL     1      -6.947   5.836  15.562  1.00  0.00    -0.267 OA
HETATM   30  H6  UNL     1      -7.634   6.344  12.494  1.00  0.00     0.169 HD
BRANCH  28  31
HETATM   31  C7  UNL     1      -8.507   7.322  14.651  1.00  0.00     0.032 A 
HETATM   32  C8  UNL     1      -9.784   7.083  14.127  1.00  0.00     0.017 A 
HETATM   33  C9  UNL     1     -10.781   8.058  14.220  1.00  0.00     0.010 A 
HETATM   34  C10 UNL     1     -10.516   9.292  14.830  1.00  0.00    -0.030 A 
HETATM   35  C17 UNL     1      -9.232   9.527  15.348  1.00  0.00     0.010 A 
HETATM   36  C18 UNL     1      -8.229   8.560  15.244  1.00  0.00     0.017 A 
BRANCH  34  37
HETATM   37  C11 UNL     1     -11.615  10.327  14.978  1.00  0.00     0.311 C 
BRANCH  37  38
HETATM   38  N2  UNL     1     -12.930   9.874  14.497  1.00  0.00     0.096 N 
HETATM   39  C12 UNL     1     -13.745   9.306  15.592  1.00  0.00     0.303 C 
HETATM   40  C13 UNL     1     -13.787   7.762  15.615  1.00  0.00     0.302 C 
HETATM   41  N3  UNL     1     -14.364   7.191  14.381  1.00  0.00     0.087 N 
HETATM   42  C14 UNL     1     -13.949   5.802  14.211  1.00  0.00     0.310 C 
HETATM   43  C15 UNL     1     -14.046   8.019  13.199  1.00  0.00     0.302 C 
HETATM   44  C16 UNL     1     -12.800   8.916  13.373  1.00  0.00     0.303 C 
ENDBRANCH  37  38
ENDBRANCH  34  37
ENDBRANCH  28  31
ENDBRANCH   5  27
TORSDOF 7
ENDMDL
MODEL 9
REMARK minimizedAffinity -9.3186121
REMARK CNNscore 0.191356957
REMARK CNNaffinity 6.85646248
REMARK  7 active torsions:
REMARK  status: ('A' for Active; 'I' for Inactive)
REMARK    1  A    between atoms: C5_5  and  N1_6 
REMARK       I    between atoms: N1_6  and  C6_7 
REMARK    2  A    between atoms: C6_7  and  C7_9 
REMARK    3  A    between atoms: C10_12  and  C11_13 
REMARK    4  A    between atoms: C11_13  and  N2_14 
REMARK    5  A    between atoms: C20_24  and  C21_25 
REMARK       I    between atoms: C21_25  and  N4_27 
REMARK    6  A    between atoms: N4_27  and  C22_28 
REMARK    7  A    between atoms: C25_33  and  C26_34 
ROOT
HETATM    1  C1  UNL     1      -3.446   2.809  12.184  1.00  0.00     0.049 C 
HETATM    2  C2  UNL     1      -4.657   3.618  12.557  1.00  0.00    -0.046 A 
HETATM    3  C3  UNL     1      -5.928   3.170  12.180  1.00  0.00     0.010 A 
HETATM    4  C4  UNL     1      -7.069   3.902  12.521  1.00  0.00     0.030 A 
HETATM    5  C5  UNL     1      -6.973   5.098  13.245  1.00  0.00     0.036 A 
HETATM    6  C19 UNL     1      -5.712   5.557  13.620  1.00  0.00     0.047 A 
HETATM    7  C20 UNL     1      -4.566   4.833  13.260  1.00  0.00     0.041 A 
ENDROOT
BRANCH   7   8
HETATM    8  C21 UNL     1      -3.253   5.410  13.631  1.00  0.00     0.270 C 
HETATM    9  O2  UNL     1      -2.791   5.142  14.729  1.00  0.00    -0.267 OA
HETATM   10  N4  UNL     1      -2.726   6.201  12.647  1.00  0.00    -0.155 N 
HETATM   11  H25 UNL     1      -3.244   6.372  11.800  1.00  0.00     0.187 HD
BRANCH  10  12
HETATM   12  C22 UNL     1      -1.509   6.859  12.682  1.00  0.00     0.685 A 
HETATM   13  N5  UNL     1      -1.216   7.753  13.627  1.00  0.00    -0.202 N 
HETATM   14  C23 UNL     1      -0.004   8.322  13.565  1.00  0.00     0.108 A 
ATOM     15  H5  UNL     1      -1.881   7.992  14.362  1.00  0.00     0.183 HD
HETATM   16  C24 UNL     1       0.923   8.028  12.595  1.00  0.00     0.048 A 
HETATM   17  C25 UNL     1       0.544   7.092  11.651  1.00  0.00     0.060 A 
HETATM   18  N6  UNL     1      -0.670   6.499  11.697  1.00  0.00    -0.191 N 
ATOM     19  H6  UNL     1      -0.941   5.800  11.006  1.00  0.00     0.184 HD
BRANCH  17  20
HETATM   20  C26 UNL     1       1.420   6.663  10.538  1.00  0.00    -0.006 A 
HETATM   21  C27 UNL     1       2.382   5.649  10.728  1.00  0.00     0.014 A 
HETATM   22  C28 UNL     1       3.219   5.220   9.691  1.00  0.00     0.004 A 
HETATM   23  C29 UNL     1       3.110   5.799   8.432  1.00  0.00     0.042 A 
HETATM   24  C30 UNL     1       2.166   6.795   8.224  1.00  0.00     0.117 A 
HETATM   25  F1  UNL     1       2.053   7.352   7.010  1.00  0.00    -0.206 F 
HETATM   26  C31 UNL     1       1.330   7.227   9.253  1.00  0.00     0.056 A 
ENDBRANCH  17  20
ENDBRANCH  10  12
ENDBRANCH   7   8
BRANCH   5  27
HETATM   27  N1  UNL     1      -8.182   5.758  13.551  1.00  0.00    -0.323 N 
HETATM   28  C6  UNL     1      -9.138   6.220  12.662  1.00  0.00     0.256 C 
HETATM   29  O1  UNL     1      -9.137   6.062  11.448  1.00  0.00    -0.267 OA
HETATM   30  H6  UNL     1      -8.386   5.856  14.535  1.00  0.00     0.169 HD
BRANCH  28  31
HETATM   31  C7  UNL     1     -10.291   6.940  13.284  1.00  0.00     0.032 A 
HETATM   32  C8  UNL     1     -11.344   7.348  12.455  1.00  0.00     0.017 A 
HETATM   33  C9  UNL     1     -12.449   8.014  12.991  1.00  0.00     0.010 A 
HETATM   34  C10 UNL     1     -12.516   8.292  14.363  1.00  0.00    -0.030 A 
HETATM   35  C17 UNL     1     -11.454   7.886  15.187  1.00  0.00     0.010 A 
HETATM   36  C18 UNL     1     -10.342   7.232  14.652  1.00  0.00     0.017 A 
BRANCH  34  37
HETATM   37  C11 UNL     1     -13.742   8.966  14.951  1.00  0.00     0.311 C 
BRANCH  37  38
HETATM   38  N2  UNL     1     -13.550  10.393  15.254  1.00  0.00     0.096 N 
HETATM   39  C12 UNL     1     -13.902  10.706  16.656  1.00  0.00     0.303 C 
HETATM   40  C13 UNL     1     -15.283  11.376  16.828  1.00  0.00     0.302 C 
HETATM   41  N3  UNL     1     -15.379  12.667  16.119  1.00  0.00     0.087 N 
HETATM   42  C14 UNL     1     -16.774  13.022  15.879  1.00  0.00     0.310 C 
HETATM   43  C15 UNL     1     -14.579  12.667  14.876  1.00  0.00     0.302 C 
HETATM   44  C16 UNL     1     -14.297  11.258  14.309  1.00  0.00     0.303 C 
ENDBRANCH  37  38
ENDBRANCH  34  37
ENDBRANCH  28  31
ENDBRANCH   5  27
TORSDOF 7
ENDMDL
