MODEL 1
REMARK minimizedAffinity -7.33297586
REMARK  3 active torsions:
REMARK  status: ('A' for Active; 'I' for Inactive)
REMARK    1  A    between atoms: C2_2  and  C3_3 
REMARK       I    between atoms: C3_3  and  N1_5 
REMARK    2  A    between atoms: C10_17  and  N4_18 
REMARK    3  A    between atoms: N4_18  and  C11_19 
ROOT
HETATM    1  C3  UNL     1      11.519  56.957  -1.947  1.00  0.00     0.242 C 
HETATM    2  O1  UNL     1      11.203  55.778  -1.802  1.00  0.00    -0.268 OA
HETATM    3  N1  UNL     1      12.688  57.490  -1.429  1.00  0.00    -0.344 N 
HETATM    4  C4  UNL     1      13.593  56.577  -0.721  1.00  0.00     0.131 C 
HETATM    5  C5  UNL     1      13.304  56.589   0.789  1.00  0.00     0.060 C 
HETATM    6  C6  UNL     1      13.181  58.005   1.293  1.00  0.00    -0.025 A 
HETATM    7  C7  UNL     1      12.987  59.043   0.393  1.00  0.00     0.010 A 
HETATM    8  S1  UNL     1      12.933  60.560   1.155  1.00  0.00    -0.074 SA
HETATM    9  C8  UNL     1      13.139  59.860   2.694  1.00  0.00     0.090 A 
HETATM   10  N2  UNL     1      13.191  60.649   3.779  1.00  0.00    -0.346 N 
ATOM     11  H2  UNL     1      13.118  61.665   3.746  1.00  0.00     0.167 HD
HETATM   12  C9  UNL     1      13.349  59.951   4.901  1.00  0.00     0.182 A 
HETATM   13  N3  UNL     1      13.436  58.621   5.026  1.00  0.00    -0.338 N 
ATOM     14  H3  UNL     1      13.558  58.201   5.948  1.00  0.00     0.168 HD
HETATM   15  C10 UNL     1      13.363  57.835   3.925  1.00  0.00     0.120 A 
HETATM   16  C18 UNL     1      13.230  58.473   2.664  1.00  0.00     0.049 A 
HETATM   17  C19 UNL     1      12.871  58.914  -1.103  1.00  0.00     0.172 C 
ENDROOT
BRANCH  15  18
HETATM   18  N4  UNL     1      13.376  56.435   4.044  1.00  0.00    -0.342 N 
HETATM   19  H9  UNL     1      12.451  56.038   4.104  1.00  0.00     0.167 HD
BRANCH  18  20
HETATM   20  C11 UNL     1      14.403  55.527   4.362  1.00  0.00     0.034 A 
HETATM   21  C12 UNL     1      14.059  54.309   4.964  1.00  0.00     0.031 A 
HETATM   22  C13 UNL     1      15.034  53.364   5.295  1.00  0.00     0.022 A 
HETATM   23  C14 UNL     1      16.377  53.619   5.023  1.00  0.00     0.017 A 
HETATM   24 BR1  UNL     1      17.641  52.286   5.502  1.00  0.00    -0.051 Br
HETATM   25  C15 UNL     1      16.758  54.820   4.413  1.00  0.00    -0.043 A 
HETATM   26  C16 UNL     1      18.191  55.143   4.091  1.00  0.00     0.049 C 
HETATM   27  C17 UNL     1      15.757  55.758   4.088  1.00  0.00     0.037 A 
ENDBRANCH  18  20
ENDBRANCH  15  18
BRANCH   1  28
HETATM   28  C2  UNL     1      10.656  57.873  -2.739  1.00  0.00     0.064 C 
HETATM   29  C1  UNL     1       9.876  57.392  -3.716  1.00  0.00     0.017 C 
ENDBRANCH   1  28
TORSDOF 3
ENDMDL
MODEL 2
REMARK minimizedAffinity -7.24462891
REMARK  3 active torsions:
REMARK  status: ('A' for Active; 'I' for Inactive)
REMARK    1  A    between atoms: C2_2  and  C3_3 
REMARK       I    between atoms: C3_3  and  N1_5 
REMARK    2  A    between atoms: C10_17  and  N4_18 
REMARK    3  A    between atoms: N4_18  and  C11_19 
ROOT
HETATM    1  C3  UNL     1      16.790  45.483   3.540  1.00  0.00     0.242 C 
HETATM    2  O1  UNL     1      16.144  45.993   2.627  1.00  0.00    -0.268 OA
HETATM    3  N1  UNL     1      16.588  45.806   4.872  1.00  0.00    -0.344 N 
HETATM    4  C4  UNL     1      15.521  46.765   5.183  1.00  0.00     0.131 C 
HETATM    5  C5  UNL     1      16.083  48.195   5.260  1.00  0.00     0.060 C 
HETATM    6  C6  UNL     1      17.337  48.227   6.097  1.00  0.00    -0.025 A 
HETATM    7  C7  UNL     1      18.007  47.045   6.380  1.00  0.00     0.010 A 
HETATM    8  S1  UNL     1      19.358  47.289   7.381  1.00  0.00    -0.074 SA
HETATM    9  C8  UNL     1      19.089  48.971   7.432  1.00  0.00     0.090 A 
HETATM   10  N2  UNL     1      19.911  49.751   8.150  1.00  0.00    -0.346 N 
ATOM     11  H2  UNL     1      20.705  49.399   8.686  1.00  0.00     0.167 HD
HETATM   12  C9  UNL     1      19.572  51.036   8.083  1.00  0.00     0.182 A 
HETATM   13  N3  UNL     1      18.559  51.574   7.393  1.00  0.00    -0.338 N 
ATOM     14  H3  UNL     1      18.399  52.582   7.421  1.00  0.00     0.168 HD
HETATM   15  C10 UNL     1      17.748  50.777   6.656  1.00  0.00     0.120 A 
HETATM   16  C18 UNL     1      17.994  49.380   6.679  1.00  0.00     0.049 A 
HETATM   17  C19 UNL     1      17.614  45.666   5.918  1.00  0.00     0.172 C 
ENDROOT
BRANCH  15  18
HETATM   18  N4  UNL     1      16.728  51.332   5.865  1.00  0.00    -0.342 N 
HETATM   19  H9  UNL     1      16.119  50.635   5.465  1.00  0.00     0.167 HD
BRANCH  18  20
HETATM   20  C11 UNL     1      16.556  52.616   5.316  1.00  0.00     0.034 A 
HETATM   21  C12 UNL     1      17.693  53.336   4.922  1.00  0.00     0.031 A 
HETATM   22  C13 UNL     1      17.584  54.612   4.364  1.00  0.00     0.022 A 
HETATM   23  C14 UNL     1      16.329  55.193   4.183  1.00  0.00     0.017 A 
HETATM   24 BR1  UNL     1      16.265  56.929   3.417  1.00  0.00    -0.051 Br
HETATM   25  C15 UNL     1      15.171  54.500   4.555  1.00  0.00    -0.043 A 
HETATM   26  C16 UNL     1      13.794  55.077   4.375  1.00  0.00     0.049 C 
HETATM   27  C17 UNL     1      15.305  53.214   5.116  1.00  0.00     0.037 A 
ENDBRANCH  18  20
ENDBRANCH  15  18
BRANCH   1  28
HETATM   28  C2  UNL     1      17.811  44.443   3.248  1.00  0.00     0.064 C 
HETATM   29  C1  UNL     1      17.458  43.295   2.656  1.00  0.00     0.017 C 
ENDBRANCH   1  28
TORSDOF 3
ENDMDL
MODEL 3
REMARK minimizedAffinity -7.11237478
REMARK  3 active torsions:
REMARK  status: ('A' for Active; 'I' for Inactive)
REMARK    1  A    between atoms: C2_2  and  C3_3 
REMARK       I    between atoms: C3_3  and  N1_5 
REMARK    2  A    between atoms: C10_17  and  N4_18 
REMARK    3  A    between atoms: N4_18  and  C11_19 
ROOT
HETATM    1  C3  UNL     1       9.919  34.871  22.639  1.00  0.00     0.242 C 
HETATM    2  O1  UNL     1      10.701  34.779  23.583  1.00  0.00    -0.268 OA
HETATM    3  N1  UNL     1      10.066  34.143  21.469  1.00  0.00    -0.344 N 
HETATM    4  C4  UNL     1      11.185  33.196  21.398  1.00  0.00     0.131 C 
HETATM    5  C5  UNL     1      12.416  33.858  20.755  1.00  0.00     0.060 C 
HETATM    6  C6  UNL     1      12.025  34.597  19.501  1.00  0.00    -0.025 A 
HETATM    7  C7  UNL     1      10.691  34.898  19.264  1.00  0.00     0.010 A 
HETATM    8  S1  UNL     1      10.456  35.679  17.775  1.00  0.00    -0.074 SA
HETATM    9  C8  UNL     1      12.125  35.653  17.432  1.00  0.00     0.090 A 
HETATM   10  N2  UNL     1      12.571  36.169  16.276  1.00  0.00    -0.346 N 
ATOM     11  H2  UNL     1      11.966  36.582  15.566  1.00  0.00     0.167 HD
HETATM   12  C9  UNL     1      13.894  36.079  16.162  1.00  0.00     0.182 A 
HETATM   13  N3  UNL     1      14.753  35.567  17.052  1.00  0.00    -0.338 N 
ATOM     14  H3  UNL     1      15.753  35.554  16.848  1.00  0.00     0.168 HD
HETATM   15  C10 UNL     1      14.291  35.067  18.224  1.00  0.00     0.120 A 
HETATM   16  C18 UNL     1      12.889  35.078  18.441  1.00  0.00     0.049 A 
HETATM   17  C19 UNL     1       9.530  34.563  20.165  1.00  0.00     0.172 C 
ENDROOT
BRANCH  15  18
HETATM   18  N4  UNL     1      15.184  34.596  19.201  1.00  0.00    -0.342 N 
HETATM   19  H9  UNL     1      15.084  33.609  19.380  1.00  0.00     0.167 HD
BRANCH  18  20
HETATM   20  C11 UNL     1      15.982  35.265  20.147  1.00  0.00     0.034 A 
HETATM   21  C12 UNL     1      17.059  36.038  19.690  1.00  0.00     0.031 A 
HETATM   22  C13 UNL     1      17.882  36.731  20.582  1.00  0.00     0.022 A 
HETATM   23  C14 UNL     1      17.639  36.668  21.953  1.00  0.00     0.017 A 
HETATM   24 BR1  UNL     1      18.802  37.637  23.099  1.00  0.00    -0.051 Br
HETATM   25  C15 UNL     1      16.566  35.914  22.446  1.00  0.00    -0.043 A 
HETATM   26  C16 UNL     1      16.255  35.818  23.914  1.00  0.00     0.049 C 
HETATM   27  C17 UNL     1      15.750  35.224  21.528  1.00  0.00     0.037 A 
ENDBRANCH  18  20
ENDBRANCH  15  18
BRANCH   1  28
HETATM   28  C2  UNL     1       8.730  35.758  22.733  1.00  0.00     0.064 C 
HETATM   29  C1  UNL     1       7.602  35.450  22.081  1.00  0.00     0.017 C 
ENDBRANCH   1  28
TORSDOF 3
ENDMDL
MODEL 4
REMARK minimizedAffinity -6.77412176
REMARK  3 active torsions:
REMARK  status: ('A' for Active; 'I' for Inactive)
REMARK    1  A    between atoms: C2_2  and  C3_3 
REMARK       I    between atoms: C3_3  and  N1_5 
REMARK    2  A    between atoms: C10_17  and  N4_18 
REMARK    3  A    between atoms: N4_18  and  C11_19 
ROOT
HETATM    1  C3  UNL     1      20.670  51.094  10.466  1.00  0.00     0.242 C 
HETATM    2  O1  UNL     1      19.883  51.840  11.045  1.00  0.00    -0.268 OA
HETATM    3  N1  UNL     1      21.001  51.244   9.129  1.00  0.00    -0.344 N 
HETATM    4  C4  UNL     1      20.408  52.377   8.408  1.00  0.00     0.131 C 
HETATM    5  C5  UNL     1      19.110  51.952   7.702  1.00  0.00     0.060 C 
HETATM    6  C6  UNL     1      19.313  50.658   6.954  1.00  0.00    -0.025 A 
HETATM    7  C7  UNL     1      20.413  49.861   7.241  1.00  0.00     0.010 A 
HETATM    8  S1  UNL     1      20.490  48.482   6.252  1.00  0.00    -0.074 SA
HETATM    9  C8  UNL     1      19.050  48.908   5.447  1.00  0.00     0.090 A 
HETATM   10  N2  UNL     1      18.585  48.122   4.464  1.00  0.00    -0.346 N 
ATOM     11  H2  UNL     1      19.046  47.267   4.152  1.00  0.00     0.167 HD
HETATM   12  C9  UNL     1      17.452  48.586   3.941  1.00  0.00     0.182 A 
HETATM   13  N3  UNL     1      16.781  49.686   4.304  1.00  0.00    -0.338 N 
ATOM     14  H3  UNL     1      15.917  49.940   3.824  1.00  0.00     0.168 HD
HETATM   15  C10 UNL     1      17.252  50.461   5.312  1.00  0.00     0.120 A 
HETATM   16  C18 UNL     1      18.475  50.081   5.923  1.00  0.00     0.049 A 
HETATM   17  C19 UNL     1      21.476  50.148   8.269  1.00  0.00     0.172 C 
ENDROOT
BRANCH  15  18
HETATM   18  N4  UNL     1      16.521  51.575   5.757  1.00  0.00    -0.342 N 
HETATM   19  H9  UNL     1      15.855  51.344   6.478  1.00  0.00     0.167 HD
BRANCH  18  20
HETATM   20  C11 UNL     1      16.350  52.864   5.220  1.00  0.00     0.034 A 
HETATM   21  C12 UNL     1      17.488  53.589   4.839  1.00  0.00     0.031 A 
HETATM   22  C13 UNL     1      17.381  54.870   4.293  1.00  0.00     0.022 A 
HETATM   23  C14 UNL     1      16.127  55.452   4.111  1.00  0.00     0.017 A 
HETATM   24 BR1  UNL     1      16.065  57.195   3.362  1.00  0.00    -0.051 Br
HETATM   25  C15 UNL     1      14.967  54.754   4.470  1.00  0.00    -0.043 A 
HETATM   26  C16 UNL     1      13.591  55.331   4.288  1.00  0.00     0.049 C 
HETATM   27  C17 UNL     1      15.100  53.463   5.019  1.00  0.00     0.037 A 
ENDBRANCH  18  20
ENDBRANCH  15  18
BRANCH   1  28
HETATM   28  C2  UNL     1      21.348  49.997  11.206  1.00  0.00     0.064 C 
HETATM   29  C1  UNL     1      21.210  48.726  10.810  1.00  0.00     0.017 C 
ENDBRANCH   1  28
TORSDOF 3
ENDMDL
MODEL 5
REMARK minimizedAffinity -6.62554407
REMARK  3 active torsions:
REMARK  status: ('A' for Active; 'I' for Inactive)
REMARK    1  A    between atoms: C2_2  and  C3_3 
REMARK       I    between atoms: C3_3  and  N1_5 
REMARK    2  A    between atoms: C10_17  and  N4_18 
REMARK    3  A    between atoms: N4_18  and  C11_19 
ROOT
HETATM    1  C3  UNL     1      17.527  36.977  21.522  1.00  0.00     0.242 C 
HETATM    2  O1  UNL     1      17.259  35.973  22.179  1.00  0.00    -0.268 OA
HETATM    3  N1  UNL     1      16.556  37.842  21.045  1.00  0.00    -0.344 N 
HETATM    4  C4  UNL     1      15.159  37.549  21.391  1.00  0.00     0.131 C 
HETATM    5  C5  UNL     1      14.491  36.711  20.288  1.00  0.00     0.060 C 
HETATM    6  C6  UNL     1      14.782  37.296  18.929  1.00  0.00    -0.025 A 
HETATM    7  C7  UNL     1      15.814  38.211  18.779  1.00  0.00     0.010 A 
HETATM    8  S1  UNL     1      15.940  38.791  17.187  1.00  0.00    -0.074 SA
HETATM    9  C8  UNL     1      14.643  37.816  16.668  1.00  0.00     0.090 A 
HETATM   10  N2  UNL     1      14.247  37.870  15.386  1.00  0.00    -0.346 N 
ATOM     11  H2  UNL     1      14.675  38.472  14.683  1.00  0.00     0.167 HD
HETATM   12  C9  UNL     1      13.230  37.047  15.139  1.00  0.00     0.182 A 
HETATM   13  N3  UNL     1      12.627  36.218  16.000  1.00  0.00    -0.338 N 
ATOM     14  H3  UNL     1      11.852  35.633  15.689  1.00  0.00     0.168 HD
HETATM   15  C10 UNL     1      13.050  36.160  17.287  1.00  0.00     0.120 A 
HETATM   16  C18 UNL     1      14.108  37.022  17.676  1.00  0.00     0.049 A 
HETATM   17  C19 UNL     1      16.729  38.707  19.867  1.00  0.00     0.172 C 
ENDROOT
BRANCH  15  18
HETATM   18  N4  UNL     1      12.480  35.242  18.185  1.00  0.00    -0.342 N 
HETATM   19  H9  UNL     1      12.996  34.378  18.242  1.00  0.00     0.167 HD
BRANCH  18  20
HETATM   20  C11 UNL     1      11.215  35.188  18.799  1.00  0.00     0.034 A 
HETATM   21  C12 UNL     1      11.037  34.328  19.892  1.00  0.00     0.031 A 
HETATM   22  C13 UNL     1       9.807  34.236  20.548  1.00  0.00     0.022 A 
HETATM   23  C14 UNL     1       8.728  35.012  20.124  1.00  0.00     0.017 A 
HETATM   24 BR1  UNL     1       7.090  34.831  21.067  1.00  0.00    -0.051 Br
HETATM   25  C15 UNL     1       8.871  35.890  19.043  1.00  0.00    -0.043 A 
HETATM   26  C16 UNL     1       7.743  36.753  18.551  1.00  0.00     0.049 C 
HETATM   27  C17 UNL     1      10.122  35.965  18.397  1.00  0.00     0.037 A 
ENDBRANCH  18  20
ENDBRANCH  15  18
BRANCH   1  28
HETATM   28  C2  UNL     1      18.942  37.335  21.242  1.00  0.00     0.064 C 
HETATM   29  C1  UNL     1      19.593  36.769  20.218  1.00  0.00     0.017 C 
ENDBRANCH   1  28
TORSDOF 3
ENDMDL
MODEL 6
REMARK minimizedAffinity -6.61602545
REMARK  3 active torsions:
REMARK  status: ('A' for Active; 'I' for Inactive)
REMARK    1  A    between atoms: C2_2  and  C3_3 
REMARK       I    between atoms: C3_3  and  N1_5 
REMARK    2  A    between atoms: C10_17  and  N4_18 
REMARK    3  A    between atoms: N4_18  and  C11_19 
ROOT
HETATM    1  C3  UNL     1      12.805  34.496  18.577  1.00  0.00     0.242 C 
HETATM    2  O1  UNL     1      12.572  33.590  17.779  1.00  0.00    -0.268 OA
HETATM    3  N1  UNL     1      12.923  35.822  18.194  1.00  0.00    -0.344 N 
HETATM    4  C4  UNL     1      12.711  36.138  16.776  1.00  0.00     0.131 C 
HETATM    5  C5  UNL     1      14.048  36.140  16.015  1.00  0.00     0.060 C 
HETATM    6  C6  UNL     1      15.089  36.924  16.774  1.00  0.00    -0.025 A 
HETATM    7  C7  UNL     1      14.885  37.224  18.114  1.00  0.00     0.010 A 
HETATM    8  S1  UNL     1      16.143  38.160  18.767  1.00  0.00    -0.074 SA
HETATM    9  C8  UNL     1      16.990  38.159  17.288  1.00  0.00     0.090 A 
HETATM   10  N2  UNL     1      18.157  38.814  17.194  1.00  0.00    -0.346 N 
ATOM     11  H2  UNL     1      18.583  39.331  17.964  1.00  0.00     0.167 HD
HETATM   12  C9  UNL     1      18.695  38.713  15.981  1.00  0.00     0.182 A 
HETATM   13  N3  UNL     1      18.207  38.044  14.929  1.00  0.00    -0.338 N 
ATOM     14  H3  UNL     1      18.715  38.041  14.044  1.00  0.00     0.168 HD
HETATM   15  C10 UNL     1      17.036  37.370  15.044  1.00  0.00     0.120 A 
HETATM   16  C18 UNL     1      16.353  37.436  16.286  1.00  0.00     0.049 A 
HETATM   17  C19 UNL     1      13.690  36.831  18.942  1.00  0.00     0.172 C 
ENDROOT
BRANCH  15  18
HETATM   18  N4  UNL     1      16.548  36.600  13.975  1.00  0.00    -0.342 N 
HETATM   19  H9  UNL     1      15.636  36.897  13.663  1.00  0.00     0.167 HD
BRANCH  18  20
HETATM   20  C11 UNL     1      16.950  35.360  13.446  1.00  0.00     0.034 A 
HETATM   21  C12 UNL     1      16.050  34.650  12.640  1.00  0.00     0.031 A 
HETATM   22  C13 UNL     1      16.396  33.417  12.081  1.00  0.00     0.022 A 
HETATM   23  C14 UNL     1      17.658  32.871  12.315  1.00  0.00     0.017 A 
HETATM   24 BR1  UNL     1      18.052  31.193  11.519  1.00  0.00    -0.051 Br
HETATM   25  C15 UNL     1      18.587  33.556  13.106  1.00  0.00    -0.043 A 
HETATM   26  C16 UNL     1      19.963  33.017  13.384  1.00  0.00     0.049 C 
HETATM   27  C17 UNL     1      18.216  34.798  13.660  1.00  0.00     0.037 A 
ENDBRANCH  18  20
ENDBRANCH  15  18
BRANCH   1  28
HETATM   28  C2  UNL     1      12.931  34.202  20.029  1.00  0.00     0.064 C 
HETATM   29  C1  UNL     1      11.935  33.596  20.687  1.00  0.00     0.017 C 
ENDBRANCH   1  28
TORSDOF 3
ENDMDL
MODEL 7
REMARK minimizedAffinity -6.5389123
REMARK  3 active torsions:
REMARK  status: ('A' for Active; 'I' for Inactive)
REMARK    1  A    between atoms: C2_2  and  C3_3 
REMARK       I    between atoms: C3_3  and  N1_5 
REMARK    2  A    between atoms: C10_17  and  N4_18 
REMARK    3  A    between atoms: N4_18  and  C11_19 
ROOT
HETATM    1  C3  UNL     1       7.190  64.871 -11.438  1.00  0.00     0.242 C 
HETATM    2  O1  UNL     1       8.163  64.125 -11.355  1.00  0.00    -0.268 OA
HETATM    3  N1  UNL     1       6.968  65.916 -10.555  1.00  0.00    -0.344 N 
HETATM    4  C4  UNL     1       7.977  66.147  -9.513  1.00  0.00     0.131 C 
HETATM    5  C5  UNL     1       7.600  65.405  -8.219  1.00  0.00     0.060 C 
HETATM    6  C6  UNL     1       6.152  65.642  -7.876  1.00  0.00    -0.025 A 
HETATM    7  C7  UNL     1       5.286  66.141  -8.840  1.00  0.00     0.010 A 
HETATM    8  S1  UNL     1       3.718  66.390  -8.237  1.00  0.00    -0.074 SA
HETATM    9  C8  UNL     1       4.157  65.815  -6.694  1.00  0.00     0.090 A 
HETATM   10  N2  UNL     1       3.242  65.789  -5.712  1.00  0.00    -0.346 N 
ATOM     11  H2  UNL     1       2.278  66.102  -5.826  1.00  0.00     0.167 HD
HETATM   12  C9  UNL     1       3.738  65.310  -4.574  1.00  0.00     0.182 A 
HETATM   13  N3  UNL     1       4.982  64.867  -4.353  1.00  0.00    -0.338 N 
ATOM     14  H3  UNL     1       5.244  64.521  -3.430  1.00  0.00     0.168 HD
HETATM   15  C10 UNL     1       5.890  64.880  -5.358  1.00  0.00     0.120 A 
HETATM   16  C18 UNL     1       5.483  65.405  -6.612  1.00  0.00     0.049 A 
HETATM   17  C19 UNL     1       5.641  66.481 -10.263  1.00  0.00     0.172 C 
ENDROOT
BRANCH  15  18
HETATM   18  N4  UNL     1       7.177  64.349  -5.165  1.00  0.00    -0.342 N 
HETATM   19  H9  UNL     1       7.876  65.061  -5.018  1.00  0.00     0.167 HD
BRANCH  18  20
HETATM   20  C11 UNL     1       7.712  63.069  -5.400  1.00  0.00     0.034 A 
HETATM   21  C12 UNL     1       6.863  61.958  -5.300  1.00  0.00     0.031 A 
HETATM   22  C13 UNL     1       7.336  60.664  -5.530  1.00  0.00     0.022 A 
HETATM   23  C14 UNL     1       8.672  60.456  -5.871  1.00  0.00     0.017 A 
HETATM   24 BR1  UNL     1       9.236  58.667  -6.168  1.00  0.00    -0.051 Br
HETATM   25  C15 UNL     1       9.547  61.542  -5.990  1.00  0.00    -0.043 A 
HETATM   26  C16 UNL     1      10.994  61.375  -6.363  1.00  0.00     0.049 C 
HETATM   27  C17 UNL     1       9.047  62.839  -5.754  1.00  0.00     0.037 A 
ENDBRANCH  18  20
ENDBRANCH  15  18
BRANCH   1  28
HETATM   28  C2  UNL     1       6.208  64.705 -12.542  1.00  0.00     0.064 C 
HETATM   29  C1  UNL     1       6.628  64.465 -13.790  1.00  0.00     0.017 C 
ENDBRANCH   1  28
TORSDOF 3
ENDMDL
MODEL 8
REMARK minimizedAffinity -6.52162409
REMARK  3 active torsions:
REMARK  status: ('A' for Active; 'I' for Inactive)
REMARK    1  A    between atoms: C2_2  and  C3_3 
REMARK       I    between atoms: C3_3  and  N1_5 
REMARK    2  A    between atoms: C10_17  and  N4_18 
REMARK    3  A    between atoms: N4_18  and  C11_19 
ROOT
HETATM    1  C3  UNL     1      18.669  32.595  11.566  1.00  0.00     0.242 C 
HETATM    2  O1  UNL     1      18.299  31.579  12.151  1.00  0.00    -0.268 OA
HETATM    3  N1  UNL     1      19.248  33.669  12.223  1.00  0.00    -0.344 N 
HETATM    4  C4  UNL     1      19.459  33.545  13.670  1.00  0.00     0.131 C 
HETATM    5  C5  UNL     1      18.267  34.134  14.444  1.00  0.00     0.060 C 
HETATM    6  C6  UNL     1      17.892  35.485  13.891  1.00  0.00    -0.025 A 
HETATM    7  C7  UNL     1      18.354  35.871  12.640  1.00  0.00     0.010 A 
HETATM    8  S1  UNL     1      17.869  37.446  12.227  1.00  0.00    -0.074 SA
HETATM    9  C8  UNL     1      17.017  37.630  13.691  1.00  0.00     0.090 A 
HETATM   10  N2  UNL     1      16.384  38.785  13.947  1.00  0.00    -0.346 N 
ATOM     11  H2  UNL     1      16.380  39.584  13.313  1.00  0.00     0.167 HD
HETATM   12  C9  UNL     1      15.762  38.768  15.124  1.00  0.00     0.182 A 
HETATM   13  N3  UNL     1      15.708  37.757  16.000  1.00  0.00    -0.338 N 
ATOM     14  H3  UNL     1      15.196  37.866  16.876  1.00  0.00     0.168 HD
HETATM   15  C10 UNL     1      16.336  36.589  15.720  1.00  0.00     0.120 A 
HETATM   16  C18 UNL     1      17.063  36.503  14.504  1.00  0.00     0.049 A 
HETATM   17  C19 UNL     1      19.222  35.052  11.721  1.00  0.00     0.172 C 
ENDROOT
BRANCH  15  18
HETATM   18  N4  UNL     1      16.226  35.493  16.592  1.00  0.00    -0.342 N 
HETATM   19  H9  UNL     1      16.916  34.779  16.413  1.00  0.00     0.167 HD
BRANCH  18  20
HETATM   20  C11 UNL     1      15.202  35.083  17.465  1.00  0.00     0.034 A 
HETATM   21  C12 UNL     1      13.898  34.969  16.963  1.00  0.00     0.031 A 
HETATM   22  C13 UNL     1      12.841  34.560  17.780  1.00  0.00     0.022 A 
HETATM   23  C14 UNL     1      13.071  34.248  19.120  1.00  0.00     0.017 A 
HETATM   24 BR1  UNL     1      11.584  33.698  20.164  1.00  0.00    -0.051 Br
HETATM   25  C15 UNL     1      14.362  34.339  19.653  1.00  0.00    -0.043 A 
HETATM   26  C16 UNL     1      14.667  34.009  21.088  1.00  0.00     0.049 C 
HETATM   27  C17 UNL     1      15.413  34.755  18.810  1.00  0.00     0.037 A 
ENDBRANCH  18  20
ENDBRANCH  15  18
BRANCH   1  28
HETATM   28  C2  UNL     1      18.546  32.698  10.088  1.00  0.00     0.064 C 
HETATM   29  C1  UNL     1      18.630  31.602   9.324  1.00  0.00     0.017 C 
ENDBRANCH   1  28
TORSDOF 3
ENDMDL
MODEL 9
REMARK minimizedAffinity -6.47720385
REMARK  3 active torsions:
REMARK  status: ('A' for Active; 'I' for Inactive)
REMARK    1  A    between atoms: C2_2  and  C3_3 
REMARK       I    between atoms: C3_3  and  N1_5 
REMARK    2  A    between atoms: C10_17  and  N4_18 
REMARK    3  A    between atoms: N4_18  and  C11_19 
ROOT
HETATM    1  C3  UNL     1      17.215  41.271  15.201  1.00  0.00     0.242 C 
HETATM    2  O1  UNL     1      17.234  41.451  16.416  1.00  0.00    -0.268 OA
HETATM    3  N1  UNL     1      16.441  40.292  14.599  1.00  0.00    -0.344 N 
HETATM    4  C4  UNL     1      15.581  39.479  15.469  1.00  0.00     0.131 C 
HETATM    5  C5  UNL     1      16.303  38.188  15.891  1.00  0.00     0.060 C 
HETATM    6  C6  UNL     1      16.943  37.524  14.698  1.00  0.00    -0.025 A 
HETATM    7  C7  UNL     1      17.126  38.243  13.525  1.00  0.00     0.010 A 
HETATM    8  S1  UNL     1      17.808  37.300  12.287  1.00  0.00    -0.074 SA
HETATM    9  C8  UNL     1      17.895  35.931  13.298  1.00  0.00     0.090 A 
HETATM   10  N2  UNL     1      18.383  34.780  12.811  1.00  0.00    -0.346 N 
ATOM     11  H2  UNL     1      18.710  34.661  11.852  1.00  0.00     0.167 HD
HETATM   12  C9  UNL     1      18.391  33.811  13.724  1.00  0.00     0.182 A 
HETATM   13  N3  UNL     1      17.995  33.893  15.000  1.00  0.00    -0.338 N 
ATOM     14  H3  UNL     1      18.049  33.075  15.606  1.00  0.00     0.168 HD
HETATM   15  C10 UNL     1      17.522  35.068  15.484  1.00  0.00     0.120 A 
HETATM   16  C18 UNL     1      17.435  36.166  14.589  1.00  0.00     0.049 A 
HETATM   17  C19 UNL     1      16.749  39.683  13.296  1.00  0.00     0.172 C 
ENDROOT
BRANCH  15  18
HETATM   18  N4  UNL     1      17.174  35.194  16.839  1.00  0.00    -0.342 N 
HETATM   19  H9  UNL     1      17.977  35.284  17.443  1.00  0.00     0.167 HD
BRANCH  18  20
HETATM   20  C11 UNL     1      15.972  34.952  17.529  1.00  0.00     0.034 A 
HETATM   21  C12 UNL     1      14.763  35.059  16.827  1.00  0.00     0.031 A 
HETATM   22  C13 UNL     1      13.538  34.823  17.457  1.00  0.00     0.022 A 
HETATM   23  C14 UNL     1      13.499  34.470  18.805  1.00  0.00     0.017 A 
HETATM   24 BR1  UNL     1      11.796  34.166  19.587  1.00  0.00    -0.051 Br
HETATM   25  C15 UNL     1      14.687  34.343  19.535  1.00  0.00    -0.043 A 
HETATM   26  C16 UNL     1      14.703  33.958  20.988  1.00  0.00     0.049 C 
HETATM   27  C17 UNL     1      15.911  34.586  18.879  1.00  0.00     0.037 A 
ENDBRANCH  18  20
ENDBRANCH  15  18
BRANCH   1  28
HETATM   28  C2  UNL     1      18.010  42.146  14.300  1.00  0.00     0.064 C 
HETATM   29  C1  UNL     1      17.414  43.124  13.606  1.00  0.00     0.017 C 
ENDBRANCH   1  28
TORSDOF 3
ENDMDL
