MODEL 1
REMARK minimizedAffinity -7.89775801
REMARK  4 active torsions:
REMARK  status: ('A' for Active; 'I' for Inactive)
REMARK    1  A    between atoms: N1_1  and  C1_2 
REMARK    2  A    between atoms: C1_2  and  N2_4 
REMARK    3  A    between atoms: C2_7  and  C3_8 
REMARK    4  A    between atoms: C10_17  and  C11_18 
ROOT
HETATM    1  N2  UNL     1      10.509  35.386  18.439  1.00  0.00    -0.258 N 
HETATM    2  N3  UNL     1      11.680  35.552  17.721  1.00  0.00    -0.299 N 
ATOM      3  H3  UNL     1      11.805  36.116  16.881  1.00  0.00     0.187 HD
HETATM    4  C2  UNL     1      12.591  34.851  18.327  1.00  0.00     0.038 C 
HETATM    5  C9  UNL     1      12.104  34.038  19.498  1.00  0.00     0.091 C 
HETATM    6  C10 UNL     1      10.717  34.640  19.693  1.00  0.00     0.150 C 
ENDROOT
BRANCH   6   7
HETATM    7  C11 UNL     1      10.678  35.493  20.961  1.00  0.00    -0.022 A 
HETATM    8  C12 UNL     1      11.560  36.583  21.101  1.00  0.00     0.010 A 
HETATM    9  C13 UNL     1      11.569  37.361  22.253  1.00  0.00     0.002 A 
HETATM   10  C14 UNL     1      10.704  37.057  23.298  1.00  0.00     0.012 A 
HETATM   11  C15 UNL     1       9.823  35.973  23.209  1.00  0.00    -0.025 A 
HETATM   12  C16 UNL     1       8.969  35.685  24.288  1.00  0.00     0.012 A 
HETATM   13  C20 UNL     1       9.796  35.169  22.040  1.00  0.00    -0.018 A 
HETATM   14  C17 UNL     1       8.084  34.610  24.238  1.00  0.00     0.001 A 
HETATM   15  C18 UNL     1       8.044  33.809  23.106  1.00  0.00     0.001 A 
HETATM   16  C19 UNL     1       8.886  34.083  22.025  1.00  0.00     0.013 A 
ENDBRANCH   6   7
BRANCH   1  17
HETATM   17  C1  UNL     1       9.310  35.863  17.935  1.00  0.00     0.187 C 
HETATM   18  S1  UNL     1       8.045  36.515  18.800  1.00  0.00    -0.040 SA
BRANCH  17  19
HETATM   19  N1  UNL     1       9.206  35.760  16.580  1.00  0.00    -0.375 N 
HETATM   20  H1  UNL     1       9.940  35.248  16.107  1.00  0.00     0.158 HD
HETATM   21  H2  UNL     1       8.346  35.990  16.105  1.00  0.00     0.158 HD
ENDBRANCH  17  19
ENDBRANCH   1  17
BRANCH   4  22
HETATM   22  C3  UNL     1      14.003  34.806  17.877  1.00  0.00    -0.010 A 
HETATM   23  C4  UNL     1      15.001  34.220  18.660  1.00  0.00     0.015 A 
HETATM   24  C5  UNL     1      16.324  34.195  18.205  1.00  0.00     0.026 A 
HETATM   25  C6  UNL     1      16.655  34.753  16.967  1.00  0.00     0.055 A 
HETATM   26 CL1  UNL     1      18.308  34.685  16.471  1.00  0.00    -0.083 Cl
HETATM   27  C7  UNL     1      15.658  35.339  16.180  1.00  0.00     0.056 A 
HETATM   28 CL2  UNL     1      15.991  36.047  14.640  1.00  0.00    -0.083 Cl
HETATM   29  C8  UNL     1      14.335  35.363  16.635  1.00  0.00     0.039 A 
ENDBRANCH   4  22
TORSDOF 4
ENDMDL
MODEL 2
REMARK minimizedAffinity -7.35134983
REMARK  4 active torsions:
REMARK  status: ('A' for Active; 'I' for Inactive)
REMARK    1  A    between atoms: N1_1  and  C1_2 
REMARK    2  A    between atoms: C1_2  and  N2_4 
REMARK    3  A    between atoms: C2_7  and  C3_8 
REMARK    4  A    between atoms: C10_17  and  C11_18 
ROOT
HETATM    1  N2  UNL     1      15.125  36.338  15.216  1.00  0.00    -0.258 N 
HETATM    2  N3  UNL     1      15.318  35.445  14.176  1.00  0.00    -0.299 N 
ATOM      3  H3  UNL     1      14.599  34.905  13.696  1.00  0.00     0.187 HD
HETATM    4  C2  UNL     1      16.594  35.430  13.930  1.00  0.00     0.038 C 
HETATM    5  C9  UNL     1      17.439  36.261  14.860  1.00  0.00     0.091 C 
HETATM    6  C10 UNL     1      16.355  37.069  15.567  1.00  0.00     0.150 C 
ENDROOT
BRANCH   6   7
HETATM    7  C11 UNL     1      16.390  38.527  15.105  1.00  0.00    -0.022 A 
HETATM    8  C12 UNL     1      16.788  38.836  13.789  1.00  0.00     0.010 A 
HETATM    9  C13 UNL     1      16.856  40.153  13.347  1.00  0.00     0.002 A 
HETATM   10  C14 UNL     1      16.541  41.190  14.216  1.00  0.00     0.012 A 
HETATM   11  C15 UNL     1      16.157  40.930  15.538  1.00  0.00    -0.025 A 
HETATM   12  C16 UNL     1      15.856  42.001  16.395  1.00  0.00     0.012 A 
HETATM   13  C20 UNL     1      16.078  39.592  16.006  1.00  0.00    -0.018 A 
HETATM   14  C17 UNL     1      15.479  41.781  17.717  1.00  0.00     0.001 A 
HETATM   15  C18 UNL     1      15.398  40.482  18.198  1.00  0.00     0.001 A 
HETATM   16  C19 UNL     1      15.693  39.406  17.358  1.00  0.00     0.013 A 
ENDBRANCH   6   7
BRANCH   1  17
HETATM   17  C1  UNL     1      13.887  36.434  15.830  1.00  0.00     0.187 C 
HETATM   18  S1  UNL     1      13.561  36.312  17.458  1.00  0.00    -0.040 SA
BRANCH  17  19
HETATM   19  N1  UNL     1      12.860  36.647  14.960  1.00  0.00    -0.375 N 
HETATM   20  H1  UNL     1      13.082  36.591  13.974  1.00  0.00     0.158 HD
HETATM   21  H2  UNL     1      11.901  36.644  15.276  1.00  0.00     0.158 HD
ENDBRANCH  17  19
ENDBRANCH   1  17
BRANCH   4  22
HETATM   22  C3  UNL     1      17.195  34.616  12.846  1.00  0.00    -0.010 A 
HETATM   23  C4  UNL     1      17.963  35.199  11.835  1.00  0.00     0.015 A 
HETATM   24  C5  UNL     1      18.514  34.402  10.826  1.00  0.00     0.026 A 
HETATM   25  C6  UNL     1      18.303  33.020  10.824  1.00  0.00     0.055 A 
HETATM   26 CL1  UNL     1      19.014  32.101   9.547  1.00  0.00    -0.083 Cl
HETATM   27  C7  UNL     1      17.535  32.433  11.836  1.00  0.00     0.056 A 
HETATM   28 CL2  UNL     1      17.231  30.734  11.898  1.00  0.00    -0.083 Cl
HETATM   29  C8  UNL     1      16.984  33.231  12.844  1.00  0.00     0.039 A 
ENDBRANCH   4  22
TORSDOF 4
ENDMDL
MODEL 3
REMARK minimizedAffinity -7.29936361
REMARK  4 active torsions:
REMARK  status: ('A' for Active; 'I' for Inactive)
REMARK    1  A    between atoms: N1_1  and  C1_2 
REMARK    2  A    between atoms: C1_2  and  N2_4 
REMARK    3  A    between atoms: C2_7  and  C3_8 
REMARK    4  A    between atoms: C10_17  and  C11_18 
ROOT
HETATM    1  N2  UNL     1      15.400  35.674  16.680  1.00  0.00    -0.258 N 
HETATM    2  N3  UNL     1      14.519  35.091  17.574  1.00  0.00    -0.299 N 
ATOM      3  H3  UNL     1      14.734  34.360  18.251  1.00  0.00     0.187 HD
HETATM    4  C2  UNL     1      13.364  35.656  17.383  1.00  0.00     0.038 C 
HETATM    5  C9  UNL     1      13.312  36.644  16.247  1.00  0.00     0.091 C 
HETATM    6  C10 UNL     1      14.801  36.812  15.960  1.00  0.00     0.150 C 
ENDROOT
BRANCH   6   7
HETATM    7  C11 UNL     1      15.282  38.189  16.421  1.00  0.00    -0.022 A 
HETATM    8  C12 UNL     1      15.200  38.540  17.784  1.00  0.00     0.010 A 
HETATM    9  C13 UNL     1      15.604  39.793  18.231  1.00  0.00     0.002 A 
HETATM   10  C14 UNL     1      16.085  40.728  17.322  1.00  0.00     0.012 A 
HETATM   11  C15 UNL     1      16.167  40.428  15.957  1.00  0.00    -0.025 A 
HETATM   12  C16 UNL     1      16.647  41.399  15.062  1.00  0.00     0.012 A 
HETATM   13  C20 UNL     1      15.763  39.153  15.482  1.00  0.00    -0.018 A 
HETATM   14  C17 UNL     1      16.736  41.139  13.697  1.00  0.00     0.001 A 
HETATM   15  C18 UNL     1      16.344  39.900  13.209  1.00  0.00     0.001 A 
HETATM   16  C19 UNL     1      15.865  38.924  14.086  1.00  0.00     0.013 A 
ENDBRANCH   6   7
BRANCH   1  17
HETATM   17  C1  UNL     1      16.671  35.151  16.514  1.00  0.00     0.187 C 
HETATM   18  S1  UNL     1      17.740  35.482  15.280  1.00  0.00    -0.040 SA
BRANCH  17  19
HETATM   19  N1  UNL     1      17.033  34.271  17.490  1.00  0.00    -0.375 N 
HETATM   20  H1  UNL     1      16.313  34.004  18.149  1.00  0.00     0.158 HD
HETATM   21  H2  UNL     1      17.898  33.756  17.431  1.00  0.00     0.158 HD
ENDBRANCH  17  19
ENDBRANCH   1  17
BRANCH   4  22
HETATM   22  C3  UNL     1      12.164  35.324  18.186  1.00  0.00    -0.010 A 
HETATM   23  C4  UNL     1      12.224  34.423  19.253  1.00  0.00     0.015 A 
HETATM   24  C5  UNL     1      11.071  34.133  19.990  1.00  0.00     0.026 A 
HETATM   25  C6  UNL     1       9.854  34.740  19.667  1.00  0.00     0.055 A 
HETATM   26 CL1  UNL     1       8.474  34.333  20.621  1.00  0.00    -0.083 Cl
HETATM   27  C7  UNL     1       9.791  35.644  18.601  1.00  0.00     0.056 A 
HETATM   28 CL2  UNL     1       8.324  36.433  18.143  1.00  0.00    -0.083 Cl
HETATM   29  C8  UNL     1      10.944  35.934  17.864  1.00  0.00     0.039 A 
ENDBRANCH   4  22
TORSDOF 4
ENDMDL
MODEL 4
REMARK minimizedAffinity -7.26472759
REMARK  4 active torsions:
REMARK  status: ('A' for Active; 'I' for Inactive)
REMARK    1  A    between atoms: N1_1  and  C1_2 
REMARK    2  A    between atoms: C1_2  and  N2_4 
REMARK    3  A    between atoms: C2_7  and  C3_8 
REMARK    4  A    between atoms: C10_17  and  C11_18 
ROOT
HETATM    1  N2  UNL     1      14.623  35.196  19.096  1.00  0.00    -0.258 N 
HETATM    2  N3  UNL     1      13.342  35.274  19.614  1.00  0.00    -0.299 N 
ATOM      3  H3  UNL     1      13.086  35.331  20.599  1.00  0.00     0.187 HD
HETATM    4  C2  UNL     1      12.528  35.261  18.600  1.00  0.00     0.038 C 
HETATM    5  C9  UNL     1      13.179  35.075  17.255  1.00  0.00     0.091 C 
HETATM    6  C10 UNL     1      14.642  35.293  17.626  1.00  0.00     0.150 C 
ENDROOT
BRANCH   6   7
HETATM    7  C11 UNL     1      15.138  36.632  17.077  1.00  0.00    -0.022 A 
HETATM    8  C12 UNL     1      14.809  37.829  17.746  1.00  0.00     0.010 A 
HETATM    9  C13 UNL     1      15.221  39.064  17.258  1.00  0.00     0.002 A 
HETATM   10  C14 UNL     1      15.959  39.131  16.083  1.00  0.00     0.012 A 
HETATM   11  C15 UNL     1      16.294  37.968  15.376  1.00  0.00    -0.025 A 
HETATM   12  C16 UNL     1      17.032  38.071  14.185  1.00  0.00     0.012 A 
HETATM   13  C20 UNL     1      15.886  36.698  15.860  1.00  0.00    -0.018 A 
HETATM   14  C17 UNL     1      17.376  36.938  13.453  1.00  0.00     0.001 A 
HETATM   15  C18 UNL     1      16.985  35.685  13.905  1.00  0.00     0.001 A 
HETATM   16  C19 UNL     1      16.252  35.567  15.088  1.00  0.00     0.013 A 
ENDBRANCH   6   7
BRANCH   1  17
HETATM   17  C1  UNL     1      15.704  35.003  19.939  1.00  0.00     0.187 C 
HETATM   18  S1  UNL     1      15.899  35.611  21.478  1.00  0.00    -0.040 SA
BRANCH  17  19
HETATM   19  N1  UNL     1      16.687  34.228  19.400  1.00  0.00    -0.375 N 
HETATM   20  H1  UNL     1      16.586  33.982  18.423  1.00  0.00     0.158 HD
HETATM   21  H2  UNL     1      17.563  34.090  19.881  1.00  0.00     0.158 HD
ENDBRANCH  17  19
ENDBRANCH   1  17
BRANCH   4  22
HETATM   22  C3  UNL     1      11.057  35.369  18.748  1.00  0.00    -0.010 A 
HETATM   23  C4  UNL     1      10.262  35.934  17.748  1.00  0.00     0.015 A 
HETATM   24  C5  UNL     1       8.876  36.022  17.921  1.00  0.00     0.026 A 
HETATM   25  C6  UNL     1       8.279  35.544  19.091  1.00  0.00     0.055 A 
HETATM   26 CL1  UNL     1       6.564  35.686  19.233  1.00  0.00    -0.083 Cl
HETATM   27  C7  UNL     1       9.072  34.977  20.094  1.00  0.00     0.056 A 
HETATM   28 CL2  UNL     1       8.406  34.366  21.566  1.00  0.00    -0.083 Cl
HETATM   29  C8  UNL     1      10.458  34.890  19.920  1.00  0.00     0.039 A 
ENDBRANCH   4  22
TORSDOF 4
ENDMDL
MODEL 5
REMARK minimizedAffinity -7.19872618
REMARK  4 active torsions:
REMARK  status: ('A' for Active; 'I' for Inactive)
REMARK    1  A    between atoms: N1_1  and  C1_2 
REMARK    2  A    between atoms: C1_2  and  N2_4 
REMARK    3  A    between atoms: C2_7  and  C3_8 
REMARK    4  A    between atoms: C10_17  and  C11_18 
ROOT
HETATM    1  N2  UNL     1      10.289  35.538  18.621  1.00  0.00    -0.258 N 
HETATM    2  N3  UNL     1      11.546  36.091  18.452  1.00  0.00    -0.299 N 
ATOM      3  H3  UNL     1      11.773  36.943  17.940  1.00  0.00     0.187 HD
HETATM    4  C2  UNL     1      12.382  35.314  19.074  1.00  0.00     0.038 C 
HETATM    5  C9  UNL     1      11.780  34.068  19.669  1.00  0.00     0.091 C 
HETATM    6  C10 UNL     1      10.296  34.396  19.553  1.00  0.00     0.150 C 
ENDROOT
BRANCH   6   7
HETATM    7  C11 UNL     1       9.703  34.690  20.932  1.00  0.00    -0.022 A 
HETATM    8  C12 UNL     1       8.332  34.466  21.168  1.00  0.00     0.010 A 
HETATM    9  C13 UNL     1       7.757  34.749  22.402  1.00  0.00     0.002 A 
HETATM   10  C14 UNL     1       8.539  35.275  23.424  1.00  0.00     0.012 A 
HETATM   11  C15 UNL     1       9.903  35.530  23.228  1.00  0.00    -0.025 A 
HETATM   12  C16 UNL     1      10.663  36.073  24.277  1.00  0.00     0.012 A 
HETATM   13  C20 UNL     1      10.508  35.244  21.976  1.00  0.00    -0.018 A 
HETATM   14  C17 UNL     1      12.019  36.345  24.116  1.00  0.00     0.001 A 
HETATM   15  C18 UNL     1      12.632  36.078  22.900  1.00  0.00     0.001 A 
HETATM   16  C19 UNL     1      11.889  35.537  21.848  1.00  0.00     0.013 A 
ENDBRANCH   6   7
BRANCH   1  17
HETATM   17  C1  UNL     1       9.208  36.039  17.915  1.00  0.00     0.187 C 
HETATM   18  S1  UNL     1       7.891  36.848  18.535  1.00  0.00    -0.040 SA
BRANCH  17  19
HETATM   19  N1  UNL     1       9.278  35.814  16.572  1.00  0.00    -0.375 N 
HETATM   20  H1  UNL     1      10.028  35.214  16.252  1.00  0.00     0.158 HD
HETATM   21  H2  UNL     1       8.509  36.051  15.964  1.00  0.00     0.158 HD
ENDBRANCH  17  19
ENDBRANCH   1  17
BRANCH   4  22
HETATM   22  C3  UNL     1      13.835  35.597  19.156  1.00  0.00    -0.010 A 
HETATM   23  C4  UNL     1      14.744  34.630  19.594  1.00  0.00     0.015 A 
HETATM   24  C5  UNL     1      16.108  34.932  19.660  1.00  0.00     0.026 A 
HETATM   25  C6  UNL     1      16.571  36.197  19.288  1.00  0.00     0.055 A 
HETATM   26 CL1  UNL     1      18.268  36.495  19.395  1.00  0.00    -0.083 Cl
HETATM   27  C7  UNL     1      15.663  37.166  18.848  1.00  0.00     0.056 A 
HETATM   28 CL2  UNL     1      16.160  38.751  18.372  1.00  0.00    -0.083 Cl
HETATM   29  C8  UNL     1      14.299  36.865  18.782  1.00  0.00     0.039 A 
ENDBRANCH   4  22
TORSDOF 4
ENDMDL
MODEL 6
REMARK minimizedAffinity -7.14098549
REMARK  4 active torsions:
REMARK  status: ('A' for Active; 'I' for Inactive)
REMARK    1  A    between atoms: N1_1  and  C1_2 
REMARK    2  A    between atoms: C1_2  and  N2_4 
REMARK    3  A    between atoms: C2_7  and  C3_8 
REMARK    4  A    between atoms: C10_17  and  C11_18 
ROOT
HETATM    1  N2  UNL     1      11.394  35.564  17.927  1.00  0.00    -0.258 N 
HETATM    2  N3  UNL     1      12.153  36.278  17.016  1.00  0.00    -0.299 N 
ATOM      3  H3  UNL     1      11.828  37.031  16.410  1.00  0.00     0.187 HD
HETATM    4  C2  UNL     1      13.361  35.803  17.084  1.00  0.00     0.038 C 
HETATM    5  C9  UNL     1      13.537  34.623  18.003  1.00  0.00     0.091 C 
HETATM    6  C10 UNL     1      12.211  34.660  18.755  1.00  0.00     0.150 C 
ENDROOT
BRANCH   6   7
HETATM    7  C11 UNL     1      12.426  35.127  20.196  1.00  0.00    -0.022 A 
HETATM    8  C12 UNL     1      11.314  35.443  21.003  1.00  0.00     0.010 A 
HETATM    9  C13 UNL     1      11.477  35.896  22.307  1.00  0.00     0.002 A 
HETATM   10  C14 UNL     1      12.755  36.058  22.828  1.00  0.00     0.012 A 
HETATM   11  C15 UNL     1      13.888  35.773  22.055  1.00  0.00    -0.025 A 
HETATM   12  C16 UNL     1      15.167  35.957  22.607  1.00  0.00     0.012 A 
HETATM   13  C20 UNL     1      13.743  35.305  20.723  1.00  0.00    -0.018 A 
HETATM   14  C17 UNL     1      16.316  35.691  21.866  1.00  0.00     0.001 A 
HETATM   15  C18 UNL     1      16.198  35.236  20.560  1.00  0.00     0.001 A 
HETATM   16  C19 UNL     1      14.933  35.047  19.998  1.00  0.00     0.013 A 
ENDBRANCH   6   7
BRANCH   1  17
HETATM   17  C1  UNL     1      10.017  35.714  17.954  1.00  0.00     0.187 C 
HETATM   18  S1  UNL     1       9.048  35.854  19.302  1.00  0.00    -0.040 SA
BRANCH  17  19
HETATM   19  N1  UNL     1       9.444  35.738  16.718  1.00  0.00    -0.375 N 
HETATM   20  H1  UNL     1      10.049  35.526  15.934  1.00  0.00     0.158 HD
HETATM   21  H2  UNL     1       8.441  35.751  16.609  1.00  0.00     0.158 HD
ENDBRANCH  17  19
ENDBRANCH   1  17
BRANCH   4  22
HETATM   22  C3  UNL     1      14.483  36.343  16.280  1.00  0.00    -0.010 A 
HETATM   23  C4  UNL     1      14.885  37.677  16.388  1.00  0.00     0.015 A 
HETATM   24  C5  UNL     1      15.948  38.153  15.614  1.00  0.00     0.026 A 
HETATM   25  C6  UNL     1      16.616  37.301  14.731  1.00  0.00     0.055 A 
HETATM   26 CL1  UNL     1      17.919  37.959  13.809  1.00  0.00    -0.083 Cl
HETATM   27  C7  UNL     1      16.218  35.964  14.622  1.00  0.00     0.056 A 
HETATM   28 CL2  UNL     1      16.995  34.852  13.552  1.00  0.00    -0.083 Cl
HETATM   29  C8  UNL     1      15.154  35.488  15.396  1.00  0.00     0.039 A 
ENDBRANCH   4  22
TORSDOF 4
ENDMDL
MODEL 7
REMARK minimizedAffinity -7.13325739
REMARK  4 active torsions:
REMARK  status: ('A' for Active; 'I' for Inactive)
REMARK    1  A    between atoms: N1_1  and  C1_2 
REMARK    2  A    between atoms: C1_2  and  N2_4 
REMARK    3  A    between atoms: C2_7  and  C3_8 
REMARK    4  A    between atoms: C10_17  and  C11_18 
ROOT
HETATM    1  N2  UNL     1       1.976  65.230  -4.895  1.00  0.00    -0.258 N 
HETATM    2  N3  UNL     1       2.945  64.982  -5.851  1.00  0.00    -0.299 N 
ATOM      3  H3  UNL     1       2.790  64.660  -6.806  1.00  0.00     0.187 HD
HETATM    4  C2  UNL     1       4.092  65.239  -5.296  1.00  0.00     0.038 C 
HETATM    5  C9  UNL     1       4.031  65.609  -3.837  1.00  0.00     0.091 C 
HETATM    6  C10 UNL     1       2.532  65.840  -3.675  1.00  0.00     0.150 C 
ENDROOT
BRANCH   6   7
HETATM    7  C11 UNL     1       2.236  67.332  -3.510  1.00  0.00    -0.022 A 
HETATM    8  C12 UNL     1       2.571  68.231  -4.542  1.00  0.00     0.010 A 
HETATM    9  C13 UNL     1       2.340  69.596  -4.413  1.00  0.00     0.002 A 
HETATM   10  C14 UNL     1       1.782  70.094  -3.241  1.00  0.00     0.012 A 
HETATM   11  C15 UNL     1       1.449  69.238  -2.183  1.00  0.00    -0.025 A 
HETATM   12  C16 UNL     1       0.896  69.774  -1.008  1.00  0.00     0.012 A 
HETATM   13  C20 UNL     1       1.674  67.842  -2.298  1.00  0.00    -0.018 A 
HETATM   14  C17 UNL     1       0.560  68.955   0.067  1.00  0.00     0.001 A 
HETATM   15  C18 UNL     1       0.774  67.587  -0.021  1.00  0.00     0.001 A 
HETATM   16  C19 UNL     1       1.322  67.039  -1.184  1.00  0.00     0.013 A 
ENDBRANCH   6   7
BRANCH   1  17
HETATM   17  C1  UNL     1       0.659  64.870  -5.129  1.00  0.00     0.187 C 
HETATM   18  S1  UNL     1      -0.565  64.752  -4.006  1.00  0.00    -0.040 SA
BRANCH  17  19
HETATM   19  N1  UNL     1       0.393  64.588  -6.436  1.00  0.00    -0.375 N 
HETATM   20  H1  UNL     1       1.187  64.550  -7.063  1.00  0.00     0.158 HD
HETATM   21  H2  UNL     1      -0.506  64.226  -6.717  1.00  0.00     0.158 HD
ENDBRANCH  17  19
ENDBRANCH   1  17
BRANCH   4  22
HETATM   22  C3  UNL     1       5.380  65.129  -6.021  1.00  0.00    -0.010 A 
HETATM   23  C4  UNL     1       5.646  65.897  -7.158  1.00  0.00     0.015 A 
HETATM   24  C5  UNL     1       6.872  65.767  -7.819  1.00  0.00     0.026 A 
HETATM   25  C6  UNL     1       7.838  64.874  -7.348  1.00  0.00     0.055 A 
HETATM   26 CL1  UNL     1       9.327  64.768  -8.215  1.00  0.00    -0.083 Cl
HETATM   27  C7  UNL     1       7.575  64.104  -6.209  1.00  0.00     0.056 A 
HETATM   28 CL2  UNL     1       8.719  62.979  -5.568  1.00  0.00    -0.083 Cl
HETATM   29  C8  UNL     1       6.349  64.234  -5.548  1.00  0.00     0.039 A 
ENDBRANCH   4  22
TORSDOF 4
ENDMDL
MODEL 8
REMARK minimizedAffinity -7.12662411
REMARK  4 active torsions:
REMARK  status: ('A' for Active; 'I' for Inactive)
REMARK    1  A    between atoms: N1_1  and  C1_2 
REMARK    2  A    between atoms: C1_2  and  N2_4 
REMARK    3  A    between atoms: C2_7  and  C3_8 
REMARK    4  A    between atoms: C10_17  and  C11_18 
ROOT
HETATM    1  N2  UNL     1      15.852  37.222  15.504  1.00  0.00    -0.258 N 
HETATM    2  N3  UNL     1      14.649  37.181  16.188  1.00  0.00    -0.299 N 
ATOM      3  H3  UNL     1      13.931  37.904  16.201  1.00  0.00     0.187 HD
HETATM    4  C2  UNL     1      14.614  36.041  16.811  1.00  0.00     0.038 C 
HETATM    5  C9  UNL     1      15.859  35.203  16.689  1.00  0.00     0.091 C 
HETATM    6  C10 UNL     1      16.581  35.944  15.569  1.00  0.00     0.150 C 
ENDROOT
BRANCH   6   7
HETATM    7  C11 UNL     1      16.553  35.122  14.279  1.00  0.00    -0.022 A 
HETATM    8  C12 UNL     1      15.352  34.996  13.554  1.00  0.00     0.010 A 
HETATM    9  C13 UNL     1      15.287  34.234  12.393  1.00  0.00     0.002 A 
HETATM   10  C14 UNL     1      16.420  33.568  11.940  1.00  0.00     0.012 A 
HETATM   11  C15 UNL     1      17.630  33.651  12.639  1.00  0.00    -0.025 A 
HETATM   12  C16 UNL     1      18.755  32.958  12.160  1.00  0.00     0.012 A 
HETATM   13  C20 UNL     1      17.717  34.428  13.824  1.00  0.00    -0.018 A 
HETATM   14  C17 UNL     1      19.973  33.011  12.833  1.00  0.00     0.001 A 
HETATM   15  C18 UNL     1      20.081  33.761  13.996  1.00  0.00     0.001 A 
HETATM   16  C19 UNL     1      18.972  34.457  14.483  1.00  0.00     0.013 A 
ENDBRANCH   6   7
BRANCH   1  17
HETATM   17  C1  UNL     1      16.264  38.394  14.892  1.00  0.00     0.187 C 
HETATM   18  S1  UNL     1      16.232  39.930  15.537  1.00  0.00    -0.040 SA
BRANCH  17  19
HETATM   19  N1  UNL     1      16.733  38.215  13.625  1.00  0.00    -0.375 N 
HETATM   20  H1  UNL     1      16.621  37.291  13.226  1.00  0.00     0.158 HD
HETATM   21  H2  UNL     1      16.978  39.003  13.044  1.00  0.00     0.158 HD
ENDBRANCH  17  19
ENDBRANCH   1  17
BRANCH   4  22
HETATM   22  C3  UNL     1      13.455  35.607  17.628  1.00  0.00    -0.010 A 
HETATM   23  C4  UNL     1      13.627  34.902  18.823  1.00  0.00     0.015 A 
HETATM   24  C5  UNL     1      12.512  34.507  19.568  1.00  0.00     0.026 A 
HETATM   25  C6  UNL     1      11.222  34.815  19.127  1.00  0.00     0.055 A 
HETATM   26 CL1  UNL     1       9.894  34.295  20.101  1.00  0.00    -0.083 Cl
HETATM   27  C7  UNL     1      11.047  35.521  17.932  1.00  0.00     0.056 A 
HETATM   28 CL2  UNL     1       9.484  35.937  17.324  1.00  0.00    -0.083 Cl
HETATM   29  C8  UNL     1      12.162  35.916  17.186  1.00  0.00     0.039 A 
ENDBRANCH   4  22
TORSDOF 4
ENDMDL
MODEL 9
REMARK minimizedAffinity -7.1080184
REMARK  4 active torsions:
REMARK  status: ('A' for Active; 'I' for Inactive)
REMARK    1  A    between atoms: N1_1  and  C1_2 
REMARK    2  A    between atoms: C1_2  and  N2_4 
REMARK    3  A    between atoms: C2_7  and  C3_8 
REMARK    4  A    between atoms: C10_17  and  C11_18 
ROOT
HETATM    1  N2  UNL     1       0.744  65.287  -3.456  1.00  0.00    -0.258 N 
HETATM    2  N3  UNL     1       1.609  65.231  -4.535  1.00  0.00    -0.299 N 
ATOM      3  H3  UNL     1       1.351  65.175  -5.520  1.00  0.00     0.187 HD
HETATM    4  C2  UNL     1       2.814  65.266  -4.049  1.00  0.00     0.038 C 
HETATM    5  C9  UNL     1       2.901  65.255  -2.545  1.00  0.00     0.091 C 
HETATM    6  C10 UNL     1       1.446  65.530  -2.183  1.00  0.00     0.150 C 
ENDROOT
BRANCH   6   7
HETATM    7  C11 UNL     1       1.292  66.945  -1.624  1.00  0.00    -0.022 A 
HETATM    8  C12 UNL     1       0.813  67.132  -0.312  1.00  0.00     0.010 A 
HETATM    9  C13 UNL     1       0.636  68.407   0.215  1.00  0.00     0.002 A 
HETATM   10  C14 UNL     1       0.921  69.522  -0.563  1.00  0.00     0.012 A 
HETATM   11  C15 UNL     1       1.383  69.382  -1.878  1.00  0.00    -0.025 A 
HETATM   12  C16 UNL     1       1.652  70.530  -2.643  1.00  0.00     0.012 A 
HETATM   13  C20 UNL     1       1.574  68.090  -2.433  1.00  0.00    -0.018 A 
HETATM   14  C17 UNL     1       2.105  70.430  -3.956  1.00  0.00     0.001 A 
HETATM   15  C18 UNL     1       2.295  69.177  -4.521  1.00  0.00     0.001 A 
HETATM   16  C19 UNL     1       2.033  68.026  -3.772  1.00  0.00     0.013 A 
ENDBRANCH   6   7
BRANCH   1  17
HETATM   17  C1  UNL     1      -0.613  65.082  -3.641  1.00  0.00     0.187 C 
HETATM   18  S1  UNL     1      -1.645  64.232  -2.648  1.00  0.00    -0.040 SA
BRANCH  17  19
HETATM   19  N1  UNL     1      -1.104  65.654  -4.776  1.00  0.00    -0.375 N 
HETATM   20  H1  UNL     1      -0.425  66.054  -5.413  1.00  0.00     0.158 HD
HETATM   21  H2  UNL     1      -2.057  65.498  -5.067  1.00  0.00     0.158 HD
ENDBRANCH  17  19
ENDBRANCH   1  17
BRANCH   4  22
HETATM   22  C3  UNL     1       4.026  65.265  -4.902  1.00  0.00    -0.010 A 
HETATM   23  C4  UNL     1       5.230  64.710  -4.461  1.00  0.00     0.015 A 
HETATM   24  C5  UNL     1       6.355  64.727  -5.293  1.00  0.00     0.026 A 
HETATM   25  C6  UNL     1       6.282  65.295  -6.568  1.00  0.00     0.055 A 
HETATM   26 CL1  UNL     1       7.711  65.279  -7.537  1.00  0.00    -0.083 Cl
HETATM   27  C7  UNL     1       5.078  65.850  -7.012  1.00  0.00     0.056 A 
HETATM   28 CL2  UNL     1       4.912  66.570  -8.574  1.00  0.00    -0.083 Cl
HETATM   29  C8  UNL     1       3.953  65.833  -6.181  1.00  0.00     0.039 A 
ENDBRANCH   4  22
TORSDOF 4
ENDMDL
