MODEL 1
REMARK minimizedAffinity -8.30284691
REMARK  6 active torsions:
REMARK  status: ('A' for Active; 'I' for Inactive)
REMARK    1  A    between atoms: O1_2  and  C2_3 
REMARK    2  A    between atoms: C4_5  and  N1_6 
REMARK    3  A    between atoms: N1_6  and  C5_7 
REMARK    4  A    between atoms: C9_15  and  O2_16 
REMARK    5  A    between atoms: C11_18  and  O3_19 
REMARK    6  A    between atoms: C16_24  and  O4_25 
ROOT
HETATM    1  C5  UNL     1       9.303  -5.403  29.259  1.00  0.00     0.073 A 
HETATM    2  N2  UNL     1       9.926  -5.255  28.092  1.00  0.00    -0.350 N 
ATOM      3  H2  UNL     1       9.641  -5.867  27.328  1.00  0.00     0.166 HD
HETATM    4  C6  UNL     1      10.898  -4.368  27.838  1.00  0.00     0.181 A 
HETATM    5  N3  UNL     1      11.285  -3.549  28.847  1.00  0.00    -0.352 N 
ATOM      6  H3  UNL     1      12.023  -2.865  28.679  1.00  0.00     0.166 HD
HETATM    7  C7  UNL     1      10.717  -3.619  30.063  1.00  0.00     0.048 A 
HETATM    8  C8  UNL     1      11.152  -2.762  31.041  1.00  0.00     0.070 A 
HETATM    9  C9  UNL     1      10.598  -2.795  32.305  1.00  0.00     0.103 A 
HETATM   10  C11 UNL     1       9.600  -3.715  32.548  1.00  0.00     0.102 A 
HETATM   11  C13 UNL     1       9.171  -4.578  31.541  1.00  0.00     0.055 A 
HETATM   12  C14 UNL     1       9.704  -4.561  30.287  1.00  0.00     0.022 A 
ENDROOT
BRANCH   1  13
HETATM   13  N1  UNL     1       8.287  -6.345  29.489  1.00  0.00     0.000 N 
HETATM   14  H5  UNL     1       8.529  -7.314  29.794  1.00  0.00     0.000 HD
HETATM   15  H20 UNL     1       7.892  -5.971  29.497  1.00  0.00     0.145 HD
HETATM   16 CL1  UNL     1       9.262  -6.051  29.581  1.00  0.00    -0.145 Cl
BRANCH  13  17
HETATM   17  C4  UNL     1       6.891  -6.100  29.338  1.00  0.00    -0.021 A 
HETATM   18  C3  UNL     1       6.039  -6.892  28.614  1.00  0.00     0.049 A 
HETATM   19  C2  UNL     1       4.682  -6.595  28.521  1.00  0.00     0.071 A 
HETATM   20  C18 UNL     1       4.132  -5.498  29.147  1.00  0.00     0.073 A 
HETATM   21  C16 UNL     1       4.980  -4.695  29.877  1.00  0.00     0.071 A 
HETATM   22  C15 UNL     1       6.310  -4.990  29.965  1.00  0.00     0.049 A 
BRANCH  19  23
HETATM   23  O1  UNL     1       3.861  -7.422  27.780  1.00  0.00    -0.356 OA
HETATM   24  C1  UNL     1       4.266  -8.701  27.336  1.00  0.00     0.210 C 
ENDBRANCH  19  23
BRANCH  21  25
HETATM   25  O4  UNL     1       4.522  -3.564  30.547  1.00  0.00    -0.356 OA
HETATM   26  C17 UNL     1       5.478  -2.721  31.157  1.00  0.00     0.210 C 
ENDBRANCH  21  25
ENDBRANCH  13  17
ENDBRANCH   1  13
BRANCH  10  27
HETATM   27  O3  UNL     1       9.040  -3.756  33.807  1.00  0.00    -0.353 OA
HETATM   28  C12 UNL     1       8.976  -4.907  34.611  1.00  0.00     0.210 C 
ENDBRANCH  10  27
BRANCH   9  29
HETATM   29  O2  UNL     1      10.998  -1.953  33.333  1.00  0.00    -0.353 OA
HETATM   30  C10 UNL     1      12.063  -2.284  34.203  1.00  0.00     0.210 C 
ENDBRANCH   9  29
TORSDOF 6
ENDMDL
MODEL 2
REMARK minimizedAffinity -8.26234341
REMARK  6 active torsions:
REMARK  status: ('A' for Active; 'I' for Inactive)
REMARK    1  A    between atoms: O1_2  and  C2_3 
REMARK    2  A    between atoms: C4_5  and  N1_6 
REMARK    3  A    between atoms: N1_6  and  C5_7 
REMARK    4  A    between atoms: C9_15  and  O2_16 
REMARK    5  A    between atoms: C11_18  and  O3_19 
REMARK    6  A    between atoms: C16_24  and  O4_25 
ROOT
HETATM    1  C5  UNL     1       9.360  -5.469  28.944  1.00  0.00     0.073 A 
HETATM    2  N2  UNL     1       9.825  -4.974  27.800  1.00  0.00    -0.350 N 
ATOM      3  H2  UNL     1       9.358  -5.263  26.940  1.00  0.00     0.166 HD
HETATM    4  C6  UNL     1      10.857  -4.127  27.683  1.00  0.00     0.181 A 
HETATM    5  N3  UNL     1      11.486  -3.737  28.819  1.00  0.00    -0.352 N 
ATOM      6  H3  UNL     1      12.274  -3.092  28.757  1.00  0.00     0.166 HD
HETATM    7  C7  UNL     1      11.092  -4.180  30.025  1.00  0.00     0.048 A 
HETATM    8  C8  UNL     1      11.767  -3.747  31.137  1.00  0.00     0.070 A 
HETATM    9  C9  UNL     1      11.399  -4.173  32.396  1.00  0.00     0.103 A 
HETATM   10  C11 UNL     1      10.335  -5.045  32.498  1.00  0.00     0.102 A 
HETATM   11  C13 UNL     1       9.660  -5.474  31.356  1.00  0.00     0.055 A 
HETATM   12  C14 UNL     1      10.008  -5.065  30.103  1.00  0.00     0.022 A 
ENDROOT
BRANCH   1  13
HETATM   13  N1  UNL     1       8.274  -6.356  29.028  1.00  0.00     0.000 N 
HETATM   14  H5  UNL     1       8.434  -7.387  28.990  1.00  0.00     0.000 HD
HETATM   15  H20 UNL     1       7.930  -5.975  29.206  1.00  0.00     0.145 HD
HETATM   16 CL1  UNL     1       9.281  -6.180  29.060  1.00  0.00    -0.145 Cl
BRANCH  13  17
HETATM   17  C4  UNL     1       6.909  -5.971  29.164  1.00  0.00    -0.021 A 
HETATM   18  C3  UNL     1       6.480  -4.868  29.854  1.00  0.00     0.049 A 
HETATM   19  C2  UNL     1       5.128  -4.547  29.935  1.00  0.00     0.071 A 
HETATM   20  C18 UNL     1       4.160  -5.318  29.330  1.00  0.00     0.073 A 
HETATM   21  C16 UNL     1       4.580  -6.430  28.635  1.00  0.00     0.071 A 
HETATM   22  C15 UNL     1       5.907  -6.740  28.559  1.00  0.00     0.049 A 
BRANCH  19  23
HETATM   23  O1  UNL     1       4.742  -3.425  30.641  1.00  0.00    -0.356 OA
HETATM   24  C1  UNL     1       5.669  -2.565  31.273  1.00  0.00     0.210 C 
ENDBRANCH  19  23
BRANCH  21  25
HETATM   25  O4  UNL     1       3.680  -7.274  27.989  1.00  0.00    -0.356 OA
HETATM   26  C17 UNL     1       2.301  -6.991  28.109  1.00  0.00     0.210 C 
ENDBRANCH  21  25
ENDBRANCH  13  17
ENDBRANCH   1  13
BRANCH  10  27
HETATM   27  O3  UNL     1       9.959  -5.476  33.751  1.00  0.00    -0.353 OA
HETATM   28  C12 UNL     1       8.826  -5.013  34.443  1.00  0.00     0.210 C 
ENDBRANCH  10  27
BRANCH   9  29
HETATM   29  O2  UNL     1      12.045  -3.769  33.556  1.00  0.00    -0.353 OA
HETATM   30  C10 UNL     1      11.895  -2.464  34.082  1.00  0.00     0.210 C 
ENDBRANCH   9  29
TORSDOF 6
ENDMDL
MODEL 3
REMARK minimizedAffinity -8.15057278
REMARK  6 active torsions:
REMARK  status: ('A' for Active; 'I' for Inactive)
REMARK    1  A    between atoms: O1_2  and  C2_3 
REMARK    2  A    between atoms: C4_5  and  N1_6 
REMARK    3  A    between atoms: N1_6  and  C5_7 
REMARK    4  A    between atoms: C9_15  and  O2_16 
REMARK    5  A    between atoms: C11_18  and  O3_19 
REMARK    6  A    between atoms: C16_24  and  O4_25 
ROOT
HETATM    1  C5  UNL     1       6.685  -5.267  30.358  1.00  0.00     0.073 A 
HETATM    2  N2  UNL     1       6.017  -4.171  30.707  1.00  0.00    -0.350 N 
ATOM      3  H2  UNL     1       6.496  -3.503  31.312  1.00  0.00     0.166 HD
HETATM    4  C6  UNL     1       4.767  -3.870  30.329  1.00  0.00     0.181 A 
HETATM    5  N3  UNL     1       4.121  -4.751  29.524  1.00  0.00    -0.352 N 
ATOM      6  H3  UNL     1       3.169  -4.545  29.223  1.00  0.00     0.166 HD
HETATM    7  C7  UNL     1       4.710  -5.887  29.116  1.00  0.00     0.048 A 
HETATM    8  C8  UNL     1       4.005  -6.736  28.302  1.00  0.00     0.070 A 
HETATM    9  C9  UNL     1       4.567  -7.915  27.856  1.00  0.00     0.103 A 
HETATM   10  C11 UNL     1       5.855  -8.208  28.255  1.00  0.00     0.102 A 
HETATM   11  C13 UNL     1       6.556  -7.332  29.083  1.00  0.00     0.055 A 
HETATM   12  C14 UNL     1       6.018  -6.163  29.534  1.00  0.00     0.022 A 
ENDROOT
BRANCH   1  13
HETATM   13  N1  UNL     1       7.997  -5.549  30.774  1.00  0.00     0.000 N 
HETATM   14  H5  UNL     1       8.273  -6.527  31.014  1.00  0.00     0.000 HD
HETATM   15  H20 UNL     1       8.192  -5.070  30.606  1.00  0.00     0.145 HD
HETATM   16 CL1  UNL     1       7.084  -5.867  30.440  1.00  0.00    -0.145 Cl
BRANCH  13  17
HETATM   17  C4  UNL     1       9.040  -4.587  30.909  1.00  0.00    -0.021 A 
HETATM   18  C3  UNL     1       9.353  -3.944  32.077  1.00  0.00     0.049 A 
HETATM   19  C2  UNL     1      10.394  -3.022  32.137  1.00  0.00     0.071 A 
HETATM   20  C18 UNL     1      11.156  -2.712  31.032  1.00  0.00     0.073 A 
HETATM   21  C16 UNL     1      10.849  -3.352  29.852  1.00  0.00     0.071 A 
HETATM   22  C15 UNL     1       9.827  -4.255  29.799  1.00  0.00     0.049 A 
BRANCH  19  23
HETATM   23  O1  UNL     1      10.675  -2.399  33.337  1.00  0.00    -0.356 OA
HETATM   24  C1  UNL     1      11.956  -2.434  33.933  1.00  0.00     0.210 C 
ENDBRANCH  19  23
BRANCH  21  25
HETATM   25  O4  UNL     1      11.559  -3.109  28.679  1.00  0.00    -0.356 OA
HETATM   26  C17 UNL     1      11.109  -3.726  27.490  1.00  0.00     0.210 C 
ENDBRANCH  21  25
ENDBRANCH  13  17
ENDBRANCH   1  13
BRANCH  10  27
HETATM   27  O3  UNL     1       6.426  -9.381  27.814  1.00  0.00    -0.353 OA
HETATM   28  C12 UNL     1       7.712  -9.822  28.170  1.00  0.00     0.210 C 
ENDBRANCH  10  27
BRANCH   9  29
HETATM   29  O2  UNL     1       3.902  -8.811  27.031  1.00  0.00    -0.353 OA
HETATM   30  C10 UNL     1       2.632  -9.337  27.365  1.00  0.00     0.210 C 
ENDBRANCH   9  29
TORSDOF 6
ENDMDL
MODEL 4
REMARK minimizedAffinity -8.11619568
REMARK  6 active torsions:
REMARK  status: ('A' for Active; 'I' for Inactive)
REMARK    1  A    between atoms: O1_2  and  C2_3 
REMARK    2  A    between atoms: C4_5  and  N1_6 
REMARK    3  A    between atoms: N1_6  and  C5_7 
REMARK    4  A    between atoms: C9_15  and  O2_16 
REMARK    5  A    between atoms: C11_18  and  O3_19 
REMARK    6  A    between atoms: C16_24  and  O4_25 
ROOT
HETATM    1  C5  UNL     1       6.930  -4.705  30.881  1.00  0.00     0.073 A 
HETATM    2  N2  UNL     1       5.839  -3.949  30.800  1.00  0.00    -0.350 N 
ATOM      3  H2  UNL     1       4.999  -4.379  30.413  1.00  0.00     0.166 HD
HETATM    4  C6  UNL     1       5.751  -2.669  31.186  1.00  0.00     0.181 A 
HETATM    5  N3  UNL     1       6.861  -2.087  31.703  1.00  0.00    -0.352 N 
ATOM      6  H3  UNL     1       6.821  -1.113  32.005  1.00  0.00     0.166 HD
HETATM    7  C7  UNL     1       8.014  -2.766  31.827  1.00  0.00     0.048 A 
HETATM    8  C8  UNL     1       9.102  -2.123  32.359  1.00  0.00     0.070 A 
HETATM    9  C9  UNL     1      10.307  -2.779  32.507  1.00  0.00     0.103 A 
HETATM   10  C11 UNL     1      10.379  -4.096  32.104  1.00  0.00     0.102 A 
HETATM   11  C13 UNL     1       9.262  -4.734  31.566  1.00  0.00     0.055 A 
HETATM   12  C14 UNL     1       8.063  -4.103  31.411  1.00  0.00     0.022 A 
ENDROOT
BRANCH   1  13
HETATM   13  N1  UNL     1       6.986  -6.046  30.466  1.00  0.00     0.000 N 
HETATM   14  H5  UNL     1       7.740  -6.675  30.821  1.00  0.00     0.000 HD
HETATM   15  H20 UNL     1       6.482  -6.042  30.262  1.00  0.00     0.145 HD
HETATM   16 CL1  UNL     1       7.279  -5.301  31.101  1.00  0.00    -0.145 Cl
BRANCH  13  17
HETATM   17  C4  UNL     1       6.073  -6.664  29.562  1.00  0.00    -0.021 A 
HETATM   18  C3  UNL     1       4.809  -6.203  29.302  1.00  0.00     0.049 A 
HETATM   19  C2  UNL     1       3.976  -6.853  28.396  1.00  0.00     0.071 A 
HETATM   20  C18 UNL     1       4.378  -7.985  27.721  1.00  0.00     0.073 A 
HETATM   21  C16 UNL     1       5.646  -8.458  27.976  1.00  0.00     0.071 A 
HETATM   22  C15 UNL     1       6.459  -7.816  28.865  1.00  0.00     0.049 A 
BRANCH  19  23
HETATM   23  O1  UNL     1       2.710  -6.352  28.165  1.00  0.00    -0.356 OA
HETATM   24  C1  UNL     1       1.617  -7.176  27.814  1.00  0.00     0.210 C 
ENDBRANCH  19  23
BRANCH  21  25
HETATM   25  O4  UNL     1       6.145  -9.594  27.345  1.00  0.00    -0.356 OA
HETATM   26  C17 UNL     1       7.488  -9.955  27.595  1.00  0.00     0.210 C 
ENDBRANCH  21  25
ENDBRANCH  13  17
ENDBRANCH   1  13
BRANCH  10  27
HETATM   27  O3  UNL     1      11.577  -4.760  32.248  1.00  0.00    -0.353 OA
HETATM   28  C12 UNL     1      12.290  -5.351  31.191  1.00  0.00     0.210 C 
ENDBRANCH  10  27
BRANCH   9  29
HETATM   29  O2  UNL     1      11.440  -2.179  33.038  1.00  0.00    -0.353 OA
HETATM   30  C10 UNL     1      11.897  -2.466  34.346  1.00  0.00     0.210 C 
ENDBRANCH   9  29
TORSDOF 6
ENDMDL
MODEL 5
REMARK minimizedAffinity -8.06178188
REMARK  6 active torsions:
REMARK  status: ('A' for Active; 'I' for Inactive)
REMARK    1  A    between atoms: O1_2  and  C2_3 
REMARK    2  A    between atoms: C4_5  and  N1_6 
REMARK    3  A    between atoms: N1_6  and  C5_7 
REMARK    4  A    between atoms: C9_15  and  O2_16 
REMARK    5  A    between atoms: C11_18  and  O3_19 
REMARK    6  A    between atoms: C16_24  and  O4_25 
ROOT
HETATM    1  C5  UNL     1       6.640  -5.282  30.348  1.00  0.00     0.073 A 
HETATM    2  N2  UNL     1       5.983  -4.182  30.706  1.00  0.00    -0.350 N 
ATOM      3  H2  UNL     1       6.473  -3.519  31.307  1.00  0.00     0.166 HD
HETATM    4  C6  UNL     1       4.732  -3.871  30.341  1.00  0.00     0.181 A 
HETATM    5  N3  UNL     1       4.072  -4.745  29.541  1.00  0.00    -0.352 N 
ATOM      6  H3  UNL     1       3.118  -4.532  29.249  1.00  0.00     0.166 HD
HETATM    7  C7  UNL     1       4.648  -5.885  29.124  1.00  0.00     0.048 A 
HETATM    8  C8  UNL     1       3.929  -6.727  28.315  1.00  0.00     0.070 A 
HETATM    9  C9  UNL     1       4.478  -7.909  27.861  1.00  0.00     0.103 A 
HETATM   10  C11 UNL     1       5.767  -8.212  28.247  1.00  0.00     0.102 A 
HETATM   11  C13 UNL     1       6.483  -7.343  29.070  1.00  0.00     0.055 A 
HETATM   12  C14 UNL     1       5.958  -6.172  29.529  1.00  0.00     0.022 A 
ENDROOT
BRANCH   1  13
HETATM   13  N1  UNL     1       7.954  -5.575  30.750  1.00  0.00     0.000 N 
HETATM   14  H5  UNL     1       8.202  -6.536  31.074  1.00  0.00     0.000 HD
HETATM   15  H20 UNL     1       8.160  -5.122  30.532  1.00  0.00     0.145 HD
HETATM   16 CL1  UNL     1       7.020  -5.887  30.475  1.00  0.00    -0.145 Cl
BRANCH  13  17
HETATM   17  C4  UNL     1       9.034  -4.645  30.764  1.00  0.00    -0.021 A 
HETATM   18  C3  UNL     1       9.801  -4.333  29.672  1.00  0.00     0.049 A 
HETATM   19  C2  UNL     1      10.834  -3.405  29.758  1.00  0.00     0.071 A 
HETATM   20  C18 UNL     1      11.137  -2.759  30.937  1.00  0.00     0.073 A 
HETATM   21  C16 UNL     1      10.373  -3.067  32.041  1.00  0.00     0.071 A 
HETATM   22  C15 UNL     1       9.360  -3.978  31.951  1.00  0.00     0.049 A 
BRANCH  19  23
HETATM   23  O1  UNL     1      11.581  -3.120  28.632  1.00  0.00    -0.356 OA
HETATM   24  C1  UNL     1      11.250  -3.618  27.352  1.00  0.00     0.210 C 
ENDBRANCH  19  23
BRANCH  21  25
HETATM   25  O4  UNL     1      10.597  -2.469  33.278  1.00  0.00    -0.356 OA
HETATM   26  C17 UNL     1      11.935  -2.303  33.702  1.00  0.00     0.210 C 
ENDBRANCH  21  25
ENDBRANCH  13  17
ENDBRANCH   1  13
BRANCH  10  27
HETATM   27  O3  UNL     1       6.325  -9.389  27.798  1.00  0.00    -0.353 OA
HETATM   28  C12 UNL     1       7.673  -9.748  27.976  1.00  0.00     0.210 C 
ENDBRANCH  10  27
BRANCH   9  29
HETATM   29  O2  UNL     1       3.799  -8.798  27.041  1.00  0.00    -0.353 OA
HETATM   30  C10 UNL     1       2.461  -8.575  26.638  1.00  0.00     0.210 C 
ENDBRANCH   9  29
TORSDOF 6
ENDMDL
MODEL 6
REMARK minimizedAffinity -7.86275291
REMARK  6 active torsions:
REMARK  status: ('A' for Active; 'I' for Inactive)
REMARK    1  A    between atoms: O1_2  and  C2_3 
REMARK    2  A    between atoms: C4_5  and  N1_6 
REMARK    3  A    between atoms: N1_6  and  C5_7 
REMARK    4  A    between atoms: C9_15  and  O2_16 
REMARK    5  A    between atoms: C11_18  and  O3_19 
REMARK    6  A    between atoms: C16_24  and  O4_25 
ROOT
HETATM    1  C5  UNL     1       6.916  -4.687  30.916  1.00  0.00     0.073 A 
HETATM    2  N2  UNL     1       5.864  -3.874  30.859  1.00  0.00    -0.350 N 
ATOM      3  H2  UNL     1       4.997  -4.257  30.483  1.00  0.00     0.166 HD
HETATM    4  C6  UNL     1       5.849  -2.594  31.255  1.00  0.00     0.181 A 
HETATM    5  N3  UNL     1       6.997  -2.075  31.757  1.00  0.00    -0.352 N 
ATOM      6  H3  UNL     1       7.012  -1.103  32.066  1.00  0.00     0.166 HD
HETATM    7  C7  UNL     1       8.115  -2.814  31.857  1.00  0.00     0.048 A 
HETATM    8  C8  UNL     1       9.243  -2.232  32.375  1.00  0.00     0.070 A 
HETATM    9  C9  UNL     1      10.414  -2.951  32.498  1.00  0.00     0.103 A 
HETATM   10  C11 UNL     1      10.411  -4.267  32.085  1.00  0.00     0.102 A 
HETATM   11  C13 UNL     1       9.254  -4.842  31.562  1.00  0.00     0.055 A 
HETATM   12  C14 UNL     1       8.087  -4.149  31.431  1.00  0.00     0.022 A 
ENDROOT
BRANCH   1  13
HETATM   13  N1  UNL     1       6.894  -6.026  30.491  1.00  0.00     0.000 N 
HETATM   14  H5  UNL     1       7.174  -6.789  31.147  1.00  0.00     0.000 HD
HETATM   15  H20 UNL     1       6.598  -5.918  30.049  1.00  0.00     0.145 HD
HETATM   16 CL1  UNL     1       6.948  -5.334  31.242  1.00  0.00    -0.145 Cl
BRANCH  13  17
HETATM   17  C4  UNL     1       6.513  -6.468  29.191  1.00  0.00    -0.021 A 
HETATM   18  C3  UNL     1       7.325  -6.422  28.088  1.00  0.00     0.049 A 
HETATM   19  C2  UNL     1       6.888  -6.883  26.850  1.00  0.00     0.071 A 
HETATM   20  C18 UNL     1       5.624  -7.405  26.673  1.00  0.00     0.073 A 
HETATM   21  C16 UNL     1       4.800  -7.455  27.775  1.00  0.00     0.071 A 
HETATM   22  C15 UNL     1       5.234  -7.001  28.987  1.00  0.00     0.049 A 
BRANCH  19  23
HETATM   23  O1  UNL     1       7.740  -6.818  25.766  1.00  0.00    -0.356 OA
HETATM   24  C1  UNL     1       9.128  -6.586  25.900  1.00  0.00     0.210 C 
ENDBRANCH  19  23
BRANCH  21  25
HETATM   25  O4  UNL     1       3.507  -7.964  27.700  1.00  0.00    -0.356 OA
HETATM   26  C17 UNL     1       2.439  -7.126  28.093  1.00  0.00     0.210 C 
ENDBRANCH  21  25
ENDBRANCH  13  17
ENDBRANCH   1  13
BRANCH  10  27
HETATM   27  O3  UNL     1      11.575  -4.994  32.205  1.00  0.00    -0.353 OA
HETATM   28  C12 UNL     1      12.373  -5.400  31.121  1.00  0.00     0.210 C 
ENDBRANCH  10  27
BRANCH   9  29
HETATM   29  O2  UNL     1      11.586  -2.415  33.014  1.00  0.00    -0.353 OA
HETATM   30  C10 UNL     1      11.894  -2.475  34.394  1.00  0.00     0.210 C 
ENDBRANCH   9  29
TORSDOF 6
ENDMDL
MODEL 7
REMARK minimizedAffinity -7.82641172
REMARK  6 active torsions:
REMARK  status: ('A' for Active; 'I' for Inactive)
REMARK    1  A    between atoms: O1_2  and  C2_3 
REMARK    2  A    between atoms: C4_5  and  N1_6 
REMARK    3  A    between atoms: N1_6  and  C5_7 
REMARK    4  A    between atoms: C9_15  and  O2_16 
REMARK    5  A    between atoms: C11_18  and  O3_19 
REMARK    6  A    between atoms: C16_24  and  O4_25 
ROOT
HETATM    1  C5  UNL     1       6.599  -5.339  29.910  1.00  0.00     0.073 A 
HETATM    2  N2  UNL     1       5.854  -4.310  30.304  1.00  0.00    -0.350 N 
ATOM      3  H2  UNL     1       6.314  -3.577  30.843  1.00  0.00     0.166 HD
HETATM    4  C6  UNL     1       4.547  -4.156  30.050  1.00  0.00     0.181 A 
HETATM    5  N3  UNL     1       3.924  -5.125  29.334  1.00  0.00    -0.352 N 
ATOM      6  H3  UNL     1       2.929  -5.032  29.128  1.00  0.00     0.166 HD
HETATM    7  C7  UNL     1       4.589  -6.205  28.890  1.00  0.00     0.048 A 
HETATM    8  C8  UNL     1       3.904  -7.149  28.170  1.00  0.00     0.070 A 
HETATM    9  C9  UNL     1       4.544  -8.274  27.693  1.00  0.00     0.103 A 
HETATM   10  C11 UNL     1       5.889  -8.416  27.963  1.00  0.00     0.102 A 
HETATM   11  C13 UNL     1       6.570  -7.445  28.697  1.00  0.00     0.055 A 
HETATM   12  C14 UNL     1       5.955  -6.327  29.178  1.00  0.00     0.022 A 
ENDROOT
BRANCH   1  13
HETATM   13  N1  UNL     1       7.969  -5.466  30.195  1.00  0.00     0.000 N 
HETATM   14  H5  UNL     1       8.537  -6.203  29.721  1.00  0.00     0.000 HD
HETATM   15  H20 UNL     1       8.000  -4.982  30.439  1.00  0.00     0.145 HD
HETATM   16 CL1  UNL     1       7.161  -5.683  29.607  1.00  0.00    -0.145 Cl
BRANCH  13  17
HETATM   17  C4  UNL     1       8.696  -4.652  31.111  1.00  0.00    -0.021 A 
HETATM   18  C3  UNL     1       9.710  -3.802  30.757  1.00  0.00     0.049 A 
HETATM   19  C2  UNL     1      10.369  -3.028  31.707  1.00  0.00     0.071 A 
HETATM   20  C18 UNL     1      10.036  -3.078  33.044  1.00  0.00     0.073 A 
HETATM   21  C16 UNL     1       9.019  -3.930  33.411  1.00  0.00     0.071 A 
HETATM   22  C15 UNL     1       8.376  -4.687  32.474  1.00  0.00     0.049 A 
BRANCH  19  23
HETATM   23  O1  UNL     1      11.385  -2.184  31.304  1.00  0.00    -0.356 OA
HETATM   24  C1  UNL     1      12.183  -1.461  32.218  1.00  0.00     0.210 C 
ENDBRANCH  19  23
BRANCH  21  25
HETATM   25  O4  UNL     1       8.608  -4.053  34.735  1.00  0.00    -0.356 OA
HETATM   26  C17 UNL     1       9.599  -4.254  35.722  1.00  0.00     0.210 C 
ENDBRANCH  21  25
ENDBRANCH  13  17
ENDBRANCH   1  13
BRANCH  10  27
HETATM   27  O3  UNL     1       6.538  -9.535  27.490  1.00  0.00    -0.353 OA
HETATM   28  C12 UNL     1       7.745 -10.034  28.012  1.00  0.00     0.210 C 
ENDBRANCH  10  27
BRANCH   9  29
HETATM   29  O2  UNL     1       3.902  -9.262  26.959  1.00  0.00    -0.353 OA
HETATM   30  C10 UNL     1       3.308  -8.996  25.703  1.00  0.00     0.210 C 
ENDBRANCH   9  29
TORSDOF 6
ENDMDL
MODEL 8
REMARK minimizedAffinity -7.68216515
REMARK  6 active torsions:
REMARK  status: ('A' for Active; 'I' for Inactive)
REMARK    1  A    between atoms: O1_2  and  C2_3 
REMARK    2  A    between atoms: C4_5  and  N1_6 
REMARK    3  A    between atoms: N1_6  and  C5_7 
REMARK    4  A    between atoms: C9_15  and  O2_16 
REMARK    5  A    between atoms: C11_18  and  O3_19 
REMARK    6  A    between atoms: C16_24  and  O4_25 
ROOT
HETATM    1  C5  UNL     1       7.940  -5.441  29.627  1.00  0.00     0.073 A 
HETATM    2  N2  UNL     1       8.529  -5.683  28.458  1.00  0.00    -0.350 N 
ATOM      3  H2  UNL     1       7.951  -6.075  27.715  1.00  0.00     0.166 HD
HETATM    4  C6  UNL     1       9.819  -5.455  28.177  1.00  0.00     0.181 A 
HETATM    5  N3  UNL     1      10.597  -4.934  29.158  1.00  0.00    -0.352 N 
ATOM      6  H3  UNL     1      11.583  -4.751  28.969  1.00  0.00     0.166 HD
HETATM    7  C7  UNL     1      10.097  -4.653  30.373  1.00  0.00     0.048 A 
HETATM    8  C8  UNL     1      10.934  -4.126  31.323  1.00  0.00     0.070 A 
HETATM    9  C9  UNL     1      10.467  -3.821  32.584  1.00  0.00     0.103 A 
HETATM   10  C11 UNL     1       9.136  -4.062  32.856  1.00  0.00     0.102 A 
HETATM   11  C13 UNL     1       8.300  -4.598  31.878  1.00  0.00     0.055 A 
HETATM   12  C14 UNL     1       8.742  -4.907  30.626  1.00  0.00     0.022 A 
ENDROOT
BRANCH   1  13
HETATM   13  N1  UNL     1       6.582  -5.692  29.886  1.00  0.00     0.000 N 
HETATM   14  H5  UNL     1       6.108  -5.232  30.694  1.00  0.00     0.000 HD
HETATM   15  H20 UNL     1       6.494  -5.917  29.399  1.00  0.00     0.145 HD
HETATM   16 CL1  UNL     1       7.426  -5.136  30.038  1.00  0.00    -0.145 Cl
BRANCH  13  17
HETATM   17  C4  UNL     1       5.748  -6.557  29.120  1.00  0.00    -0.021 A 
HETATM   18  C3  UNL     1       4.435  -6.303  28.821  1.00  0.00     0.049 A 
HETATM   19  C2  UNL     1       3.683  -7.190  28.057  1.00  0.00     0.071 A 
HETATM   20  C18 UNL     1       4.218  -8.361  27.566  1.00  0.00     0.073 A 
HETATM   21  C16 UNL     1       5.537  -8.627  27.861  1.00  0.00     0.071 A 
HETATM   22  C15 UNL     1       6.269  -7.753  28.611  1.00  0.00     0.049 A 
BRANCH  19  23
HETATM   23  O1  UNL     1       2.364  -6.892  27.781  1.00  0.00    -0.356 OA
HETATM   24  C1  UNL     1       1.436  -7.867  27.349  1.00  0.00     0.210 C 
ENDBRANCH  19  23
BRANCH  21  25
HETATM   25  O4  UNL     1       6.169  -9.783  27.411  1.00  0.00    -0.356 OA
HETATM   26  C17 UNL     1       7.533  -9.962  27.734  1.00  0.00     0.210 C 
ENDBRANCH  21  25
ENDBRANCH  13  17
ENDBRANCH   1  13
BRANCH  10  27
HETATM   27  O3  UNL     1       8.659  -3.760  34.112  1.00  0.00    -0.353 OA
HETATM   28  C12 UNL     1       8.684  -4.643  35.206  1.00  0.00     0.210 C 
ENDBRANCH  10  27
BRANCH   9  29
HETATM   29  O2  UNL     1      11.267  -3.286  33.584  1.00  0.00    -0.353 OA
HETATM   30  C10 UNL     1      12.052  -2.127  33.377  1.00  0.00     0.210 C 
ENDBRANCH   9  29
TORSDOF 6
ENDMDL
MODEL 9
REMARK minimizedAffinity -7.5611577
REMARK  6 active torsions:
REMARK  status: ('A' for Active; 'I' for Inactive)
REMARK    1  A    between atoms: O1_2  and  C2_3 
REMARK    2  A    between atoms: C4_5  and  N1_6 
REMARK    3  A    between atoms: N1_6  and  C5_7 
REMARK    4  A    between atoms: C9_15  and  O2_16 
REMARK    5  A    between atoms: C11_18  and  O3_19 
REMARK    6  A    between atoms: C16_24  and  O4_25 
ROOT
HETATM    1  C5  UNL     1       6.504  -5.539  29.446  1.00  0.00     0.073 A 
HETATM    2  N2  UNL     1       6.146  -4.443  30.110  1.00  0.00    -0.350 N 
ATOM      3  H2  UNL     1       6.891  -3.879  30.518  1.00  0.00     0.166 HD
HETATM    4  C6  UNL     1       4.887  -4.020  30.288  1.00  0.00     0.181 A 
HETATM    5  N3  UNL     1       3.889  -4.763  29.750  1.00  0.00    -0.352 N 
ATOM      6  H3  UNL     1       2.922  -4.463  29.872  1.00  0.00     0.166 HD
HETATM    7  C7  UNL     1       4.146  -5.887  29.060  1.00  0.00     0.048 A 
HETATM    8  C8  UNL     1       3.093  -6.595  28.540  1.00  0.00     0.070 A 
HETATM    9  C9  UNL     1       3.307  -7.754  27.824  1.00  0.00     0.103 A 
HETATM   10  C11 UNL     1       4.610  -8.175  27.650  1.00  0.00     0.102 A 
HETATM   11  C13 UNL     1       5.668  -7.442  28.187  1.00  0.00     0.055 A 
HETATM   12  C14 UNL     1       5.477  -6.295  28.898  1.00  0.00     0.022 A 
ENDROOT
BRANCH   1  13
HETATM   13  N1  UNL     1       7.837  -5.952  29.279  1.00  0.00     0.000 N 
HETATM   14  H5  UNL     1       8.148  -6.365  28.371  1.00  0.00     0.000 HD
HETATM   15  H20 UNL     1       8.011  -5.689  29.720  1.00  0.00     0.145 HD
HETATM   16 CL1  UNL     1       6.923  -5.720  28.882  1.00  0.00    -0.145 Cl
BRANCH  13  17
HETATM   17  C4  UNL     1       8.854  -5.863  30.272  1.00  0.00    -0.021 A 
HETATM   18  C3  UNL     1       8.672  -5.333  31.522  1.00  0.00     0.049 A 
HETATM   19  C2  UNL     1       9.711  -5.289  32.447  1.00  0.00     0.071 A 
HETATM   20  C18 UNL     1      10.968  -5.773  32.152  1.00  0.00     0.073 A 
HETATM   21  C16 UNL     1      11.162  -6.306  30.897  1.00  0.00     0.071 A 
HETATM   22  C15 UNL     1      10.139  -6.347  29.995  1.00  0.00     0.049 A 
BRANCH  19  23
HETATM   23  O1  UNL     1       9.481  -4.747  33.695  1.00  0.00    -0.356 OA
HETATM   24  C1  UNL     1       8.513  -5.264  34.585  1.00  0.00     0.210 C 
ENDBRANCH  19  23
BRANCH  21  25
HETATM   25  O4  UNL     1      12.394  -6.821  30.503  1.00  0.00    -0.356 OA
HETATM   26  C17 UNL     1      12.477  -8.203  30.221  1.00  0.00     0.210 C 
ENDBRANCH  21  25
ENDBRANCH  13  17
ENDBRANCH   1  13
BRANCH  10  27
HETATM   27  O3  UNL     1       4.835  -9.331  26.935  1.00  0.00    -0.353 OA
HETATM   28  C12 UNL     1       5.837  -9.480  25.961  1.00  0.00     0.210 C 
ENDBRANCH  10  27
BRANCH   9  29
HETATM   29  O2  UNL     1       2.282  -8.510  27.274  1.00  0.00    -0.353 OA
HETATM   30  C10 UNL     1       1.555  -8.076  26.140  1.00  0.00     0.210 C 
ENDBRANCH   9  29
TORSDOF 6
ENDMDL
