MODEL 1
REMARK minimizedAffinity -8.5799551
REMARK CNNscore 0.216612279
REMARK CNNaffinity 6.92571211
REMARK  6 active torsions:
REMARK  status: ('A' for Active; 'I' for Inactive)
REMARK    1  A    between atoms: O1_2  and  C2_3 
REMARK    2  A    between atoms: C5_6  and  C6_7 
REMARK    3  A    between atoms: C8_11  and  C9_12 
REMARK       I    between atoms: N2_19  and  C15_20 
REMARK    4  A    between atoms: C15_20  and  C16_22 
REMARK    5  A    between atoms: C16_22  and  C17_23 
REMARK    6  A    between atoms: N5_32  and  C22_33 
ROOT
HETATM    1  C6  UNL     1     -14.455   9.528  13.949  1.00  0.00     0.046 C 
HETATM    2  C7  UNL     1     -13.349   9.366  14.701  1.00  0.00     0.104 C 
HETATM    3  N1  UNL     1     -12.567  10.471  14.955  1.00  0.00    -0.336 N 
ATOM      4  H1  UNL     1     -12.938  11.413  14.825  1.00  0.00     0.168 HD
HETATM    5  C8  UNL     1     -11.348  10.289  15.366  1.00  0.00     0.141 C 
HETATM    6  N2  UNL     1     -10.775   9.025  15.603  1.00  0.00    -0.203 N 
HETATM    7  C15 UNL     1      -9.393   8.752  15.591  1.00  0.00     0.251 C 
HETATM    8  O2  UNL     1      -8.553   9.510  15.101  1.00  0.00    -0.271 OA
HETATM    9  N7  UNL     1     -11.674   7.948  15.711  1.00  0.00    -0.254 N 
HETATM   10  C29 UNL     1     -12.970   8.029  15.276  1.00  0.00     0.287 C 
HETATM   11  O4  UNL     1     -13.713   7.065  15.409  1.00  0.00    -0.264 OA
HETATM   12  H22 UNL     1     -11.438   7.107  16.221  1.00  0.00     0.191 HD
ENDROOT
BRANCH   5  13
HETATM   13  C9  UNL     1     -10.521  11.503  15.611  1.00  0.00     0.010 A 
HETATM   14  C10 UNL     1     -10.171  11.881  16.913  1.00  0.00     0.017 A 
HETATM   15  C11 UNL     1      -9.414  13.038  17.119  1.00  0.00     0.025 A 
HETATM   16  C12 UNL     1      -9.031  13.821  16.029  1.00  0.00     0.034 A 
HETATM   17 CL1  UNL     1      -8.099  15.244  16.285  1.00  0.00    -0.084 Cl
HETATM   18  C13 UNL     1      -9.404  13.464  14.732  1.00  0.00     0.025 A 
HETATM   19  C14 UNL     1     -10.157  12.306  14.523  1.00  0.00     0.017 A 
ENDBRANCH   5  13
BRANCH   7  20
HETATM   20  C16 UNL     1      -8.963   7.406  16.132  1.00  0.00     0.181 C 
BRANCH  20  21
HETATM   21  C17 UNL     1      -8.082   6.614  15.194  1.00  0.00     0.094 A 
HETATM   22  N3  UNL     1      -6.833   6.957  15.052  1.00  0.00    -0.329 N 
HETATM   23  C18 UNL     1      -6.124   6.149  14.213  1.00  0.00     0.146 A 
ATOM     24  H3  UNL     1      -6.421   7.760  15.526  1.00  0.00     0.168 HD
HETATM   25  C19 UNL     1      -6.618   5.055  13.538  1.00  0.00     0.101 A 
HETATM   26  N5  UNL     1      -4.779   6.248  13.853  1.00  0.00    -0.239 N 
HETATM   27  C20 UNL     1      -5.553   4.526  12.805  1.00  0.00     0.042 A 
HETATM   28  C28 UNL     1      -7.999   4.701  13.689  1.00  0.00     0.262 A 
HETATM   29  C21 UNL     1      -5.555   3.340  11.914  1.00  0.00     0.071 C 
HETATM   30  N4  UNL     1      -4.436   5.237  12.992  1.00  0.00    -0.295 N 
ATOM     31  H4  UNL     1      -3.518   5.063  12.580  1.00  0.00     0.187 HD
HETATM   32  O3  UNL     1      -8.549   3.780  13.097  1.00  0.00    -0.267 OA
HETATM   33  N6  UNL     1      -8.663   5.523  14.575  1.00  0.00    -0.312 N 
HETATM   34  H21 UNL     1      -9.666   5.384  14.611  1.00  0.00     0.170 HD
BRANCH  26  35
HETATM   35  C22 UNL     1      -3.791   7.204  14.244  1.00  0.00     0.058 A 
HETATM   36  C23 UNL     1      -3.590   8.343  13.443  1.00  0.00     0.031 A 
HETATM   37  C24 UNL     1      -2.641   9.304  13.797  1.00  0.00     0.002 A 
HETATM   38  C25 UNL     1      -1.882   9.140  14.952  1.00  0.00     0.000 A 
HETATM   39  C26 UNL     1      -2.068   8.015  15.752  1.00  0.00     0.002 A 
HETATM   40  C27 UNL     1      -3.020   7.049  15.403  1.00  0.00     0.031 A 
ENDBRANCH  26  35
ENDBRANCH  20  21
ENDBRANCH   7  20
BRANCH   1  41
HETATM   41  C5  UNL     1     -15.410   8.505  13.525  1.00  0.00    -0.034 A 
HETATM   42  C4  UNL     1     -15.117   7.659  12.451  1.00  0.00     0.014 A 
HETATM   43  C3  UNL     1     -16.033   6.680  12.048  1.00  0.00     0.037 A 
HETATM   44  C2  UNL     1     -17.249   6.538  12.720  1.00  0.00     0.068 A 
HETATM   45  C31 UNL     1     -17.534   7.380  13.797  1.00  0.00     0.037 A 
HETATM   46  C30 UNL     1     -16.623   8.359  14.202  1.00  0.00     0.014 A 
BRANCH  44  47
HETATM   47  O1  UNL     1     -18.229   5.631  12.428  1.00  0.00    -0.356 OA
HETATM   48  C1  UNL     1     -17.890   4.256  12.563  1.00  0.00     0.210 C 
ENDBRANCH  44  47
ENDBRANCH   1  41
TORSDOF 6
ENDMDL
MODEL 2
REMARK minimizedAffinity -8.273036
REMARK CNNscore 0.0799248144
REMARK CNNaffinity 5.70711708
REMARK  6 active torsions:
REMARK  status: ('A' for Active; 'I' for Inactive)
REMARK    1  A    between atoms: O1_2  and  C2_3 
REMARK    2  A    between atoms: C5_6  and  C6_7 
REMARK    3  A    between atoms: C8_11  and  C9_12 
REMARK       I    between atoms: N2_19  and  C15_20 
REMARK    4  A    between atoms: C15_20  and  C16_22 
REMARK    5  A    between atoms: C16_22  and  C17_23 
REMARK    6  A    between atoms: N5_32  and  C22_33 
ROOT
HETATM    1  C6  UNL     1      -7.914  12.962  23.488  1.00  0.00     0.046 C 
HETATM    2  C7  UNL     1      -8.958  12.606  22.715  1.00  0.00     0.104 C 
HETATM    3  N1  UNL     1      -9.791  11.606  23.166  1.00  0.00    -0.336 N 
ATOM      4  H1  UNL     1      -9.795  11.334  24.149  1.00  0.00     0.168 HD
HETATM    5  C8  UNL     1     -10.574  11.016  22.312  1.00  0.00     0.141 C 
HETATM    6  N2  UNL     1     -10.653  11.356  20.948  1.00  0.00    -0.203 N 
HETATM    7  C15 UNL     1     -11.102  10.495  19.928  1.00  0.00     0.251 C 
HETATM    8  O2  UNL     1     -11.206   9.274  20.064  1.00  0.00    -0.271 OA
HETATM    9  N7  UNL     1     -10.102  12.599  20.586  1.00  0.00    -0.254 N 
HETATM   10  C29 UNL     1      -9.240  13.284  21.402  1.00  0.00     0.287 C 
HETATM   11  O4  UNL     1      -8.801  14.369  21.042  1.00  0.00    -0.264 OA
HETATM   12  H22 UNL     1     -10.408  13.098  19.761  1.00  0.00     0.191 HD
ENDROOT
BRANCH   5  13
HETATM   13  C9  UNL     1     -11.446   9.924  22.825  1.00  0.00     0.010 A 
HETATM   14  C10 UNL     1     -10.891   8.748  23.345  1.00  0.00     0.017 A 
HETATM   15  C11 UNL     1     -11.731   7.727  23.798  1.00  0.00     0.025 A 
HETATM   16  C12 UNL     1     -13.116   7.876  23.712  1.00  0.00     0.034 A 
HETATM   17 CL1  UNL     1     -14.147   6.619  24.272  1.00  0.00    -0.084 Cl
HETATM   18  C13 UNL     1     -13.672   9.034  23.167  1.00  0.00     0.025 A 
HETATM   19  C14 UNL     1     -12.836  10.058  22.716  1.00  0.00     0.017 A 
ENDBRANCH   5  13
BRANCH   7  20
HETATM   20  C16 UNL     1     -11.370  11.124  18.578  1.00  0.00     0.181 C 
BRANCH  20  21
HETATM   21  C17 UNL     1     -11.603  10.128  17.466  1.00  0.00     0.094 A 
HETATM   22  N3  UNL     1     -10.601   9.423  17.022  1.00  0.00    -0.329 N 
HETATM   23  C18 UNL     1     -10.935   8.529  16.048  1.00  0.00     0.146 A 
ATOM     24  H3  UNL     1      -9.649   9.531  17.371  1.00  0.00     0.168 HD
HETATM   25  C19 UNL     1     -12.195   8.337  15.527  1.00  0.00     0.101 A 
HETATM   26  N5  UNL     1     -10.100   7.637  15.372  1.00  0.00    -0.239 N 
HETATM   27  C20 UNL     1     -12.079   7.329  14.566  1.00  0.00     0.042 A 
HETATM   28  C28 UNL     1     -13.285   9.132  16.012  1.00  0.00     0.262 A 
HETATM   29  C21 UNL     1     -13.148   6.745  13.719  1.00  0.00     0.071 C 
HETATM   30  N4  UNL     1     -10.818   6.897  14.468  1.00  0.00    -0.295 N 
ATOM     31  H4  UNL     1     -10.462   6.168  13.849  1.00  0.00     0.187 HD
HETATM   32  O3  UNL     1     -14.431   9.076  15.584  1.00  0.00    -0.267 OA
HETATM   33  N6  UNL     1     -12.905   9.993  17.021  1.00  0.00    -0.312 N 
HETATM   34  H21 UNL     1     -13.616  10.658  17.300  1.00  0.00     0.170 HD
BRANCH  26  35
HETATM   35  C22 UNL     1      -8.693   7.421  15.500  1.00  0.00     0.058 A 
HETATM   36  C23 UNL     1      -8.236   6.211  16.052  1.00  0.00     0.031 A 
HETATM   37  C24 UNL     1      -6.869   5.960  16.185  1.00  0.00     0.002 A 
HETATM   38  C25 UNL     1      -5.943   6.912  15.769  1.00  0.00     0.000 A 
HETATM   39  C26 UNL     1      -6.382   8.116  15.223  1.00  0.00     0.002 A 
HETATM   40  C27 UNL     1      -7.752   8.373  15.086  1.00  0.00     0.031 A 
ENDBRANCH  26  35
ENDBRANCH  20  21
ENDBRANCH   7  20
BRANCH   1  41
HETATM   41  C5  UNL     1      -6.888  13.965  23.205  1.00  0.00    -0.034 A 
HETATM   42  C4  UNL     1      -6.969  15.244  23.763  1.00  0.00     0.014 A 
HETATM   43  C3  UNL     1      -5.985  16.201  23.491  1.00  0.00     0.037 A 
HETATM   44  C2  UNL     1      -4.909  15.884  22.659  1.00  0.00     0.068 A 
HETATM   45  C31 UNL     1      -4.827  14.602  22.110  1.00  0.00     0.037 A 
HETATM   46  C30 UNL     1      -5.808  13.644  22.379  1.00  0.00     0.014 A 
BRANCH  44  47
HETATM   47  O1  UNL     1      -3.887  16.721  22.310  1.00  0.00    -0.356 OA
HETATM   48  C1  UNL     1      -3.472  16.694  20.949  1.00  0.00     0.210 C 
ENDBRANCH  44  47
ENDBRANCH   1  41
TORSDOF 6
ENDMDL
MODEL 3
REMARK minimizedAffinity -10.5145082
REMARK CNNscore 0.0635390207
REMARK CNNaffinity 6.7495513
REMARK  6 active torsions:
REMARK  status: ('A' for Active; 'I' for Inactive)
REMARK    1  A    between atoms: O1_2  and  C2_3 
REMARK    2  A    between atoms: C5_6  and  C6_7 
REMARK    3  A    between atoms: C8_11  and  C9_12 
REMARK       I    between atoms: N2_19  and  C15_20 
REMARK    4  A    between atoms: C15_20  and  C16_22 
REMARK    5  A    between atoms: C16_22  and  C17_23 
REMARK    6  A    between atoms: N5_32  and  C22_33 
ROOT
HETATM    1  C6  UNL     1      -3.021  10.771  18.037  1.00  0.00     0.046 C 
HETATM    2  C7  UNL     1      -3.117  10.191  16.825  1.00  0.00     0.104 C 
HETATM    3  N1  UNL     1      -4.339   9.682  16.442  1.00  0.00    -0.336 N 
ATOM      4  H1  UNL     1      -5.195   9.967  16.918  1.00  0.00     0.168 HD
HETATM    5  C8  UNL     1      -4.377   8.831  15.461  1.00  0.00     0.141 C 
HETATM    6  N2  UNL     1      -3.247   8.413  14.732  1.00  0.00    -0.203 N 
HETATM    7  C15 UNL     1      -3.153   7.206  14.013  1.00  0.00     0.251 C 
HETATM    8  O2  UNL     1      -3.928   6.260  14.166  1.00  0.00    -0.271 OA
HETATM    9  N7  UNL     1      -2.094   9.208  14.869  1.00  0.00    -0.254 N 
HETATM   10  C29 UNL     1      -1.942  10.109  15.889  1.00  0.00     0.287 C 
HETATM   11  O4  UNL     1      -0.923  10.785  15.952  1.00  0.00    -0.264 OA
HETATM   12  H22 UNL     1      -1.377   9.234  14.156  1.00  0.00     0.191 HD
ENDROOT
BRANCH   5  13
HETATM   13  C9  UNL     1      -5.709   8.281  15.085  1.00  0.00     0.010 A 
HETATM   14  C10 UNL     1      -6.870   8.698  15.749  1.00  0.00     0.017 A 
HETATM   15  C11 UNL     1      -8.106   8.149  15.395  1.00  0.00     0.025 A 
HETATM   16  C12 UNL     1      -8.174   7.175  14.398  1.00  0.00     0.034 A 
HETATM   17 CL1  UNL     1      -9.696   6.503  13.963  1.00  0.00    -0.084 Cl
HETATM   18  C13 UNL     1      -7.016   6.736  13.755  1.00  0.00     0.025 A 
HETATM   19  C14 UNL     1      -5.779   7.284  14.104  1.00  0.00     0.017 A 
ENDBRANCH   5  13
BRANCH   7  20
HETATM   20  C16 UNL     1      -1.970   7.063  13.079  1.00  0.00     0.181 C 
BRANCH  20  21
HETATM   21  C17 UNL     1      -1.786   5.671  12.522  1.00  0.00     0.094 A 
HETATM   22  N3  UNL     1      -2.816   4.876  12.440  1.00  0.00    -0.329 N 
HETATM   23  C18 UNL     1      -2.541   3.661  11.886  1.00  0.00     0.146 A 
ATOM     24  H3  UNL     1      -3.747   5.140  12.763  1.00  0.00     0.168 HD
HETATM   25  C19 UNL     1      -1.310   3.240  11.435  1.00  0.00     0.101 A 
HETATM   26  N5  UNL     1      -3.417   2.598  11.661  1.00  0.00    -0.239 N 
HETATM   27  C20 UNL     1      -1.488   1.944  10.944  1.00  0.00     0.042 A 
HETATM   28  C28 UNL     1      -0.182   4.118  11.549  1.00  0.00     0.262 A 
HETATM   29  C21 UNL     1      -0.472   1.047  10.342  1.00  0.00     0.071 C 
HETATM   30  N4  UNL     1      -2.759   1.548  11.073  1.00  0.00    -0.295 N 
ATOM     31  H4  UNL     1      -3.156   0.652  10.791  1.00  0.00     0.187 HD
HETATM   32  O3  UNL     1       0.963   3.824  11.226  1.00  0.00    -0.267 OA
HETATM   33  N6  UNL     1      -0.518   5.346  12.080  1.00  0.00    -0.312 N 
HETATM   34  H21 UNL     1       0.271   5.945  12.293  1.00  0.00     0.170 HD
BRANCH  26  35
HETATM   35  C22 UNL     1      -4.812   2.480  11.950  1.00  0.00     0.058 A 
HETATM   36  C23 UNL     1      -5.418   3.434  12.788  1.00  0.00     0.031 A 
HETATM   37  C24 UNL     1      -6.780   3.357  13.087  1.00  0.00     0.002 A 
HETATM   38  C25 UNL     1      -7.552   2.329  12.554  1.00  0.00     0.000 A 
HETATM   39  C26 UNL     1      -6.963   1.376  11.726  1.00  0.00     0.002 A 
HETATM   40  C27 UNL     1      -5.599   1.449  11.422  1.00  0.00     0.031 A 
ENDBRANCH  26  35
ENDBRANCH  20  21
ENDBRANCH   7  20
BRANCH   1  41
HETATM   41  C5  UNL     1      -1.832  11.348  18.665  1.00  0.00    -0.034 A 
HETATM   42  C4  UNL     1      -1.625  12.730  18.661  1.00  0.00     0.014 A 
HETATM   43  C3  UNL     1      -0.487  13.278  19.264  1.00  0.00     0.037 A 
HETATM   44  C2  UNL     1       0.452  12.447  19.877  1.00  0.00     0.068 A 
HETATM   45  C31 UNL     1       0.237  11.066  19.885  1.00  0.00     0.037 A 
HETATM   46  C30 UNL     1      -0.898  10.515  19.284  1.00  0.00     0.014 A 
BRANCH  44  47
HETATM   47  O1  UNL     1       1.602  12.849  20.495  1.00  0.00    -0.356 OA
HETATM   48  C1  UNL     1       2.466  11.824  20.972  1.00  0.00     0.210 C 
ENDBRANCH  44  47
ENDBRANCH   1  41
TORSDOF 6
ENDMDL
MODEL 4
REMARK minimizedAffinity -9.13565445
REMARK CNNscore 0.0288315397
REMARK CNNaffinity 5.65921164
REMARK  6 active torsions:
REMARK  status: ('A' for Active; 'I' for Inactive)
REMARK    1  A    between atoms: O1_2  and  C2_3 
REMARK    2  A    between atoms: C5_6  and  C6_7 
REMARK    3  A    between atoms: C8_11  and  C9_12 
REMARK       I    between atoms: N2_19  and  C15_20 
REMARK    4  A    between atoms: C15_20  and  C16_22 
REMARK    5  A    between atoms: C16_22  and  C17_23 
REMARK    6  A    between atoms: N5_32  and  C22_33 
ROOT
HETATM    1  C6  UNL     1      -7.407   5.679  12.926  1.00  0.00     0.046 C 
HETATM    2  C7  UNL     1      -8.277   6.044  13.887  1.00  0.00     0.104 C 
HETATM    3  N1  UNL     1      -9.604   6.192  13.543  1.00  0.00    -0.336 N 
ATOM      4  H1  UNL     1      -9.967   5.783  12.682  1.00  0.00     0.168 HD
HETATM    5  C8  UNL     1     -10.381   6.863  14.339  1.00  0.00     0.141 C 
HETATM    6  N2  UNL     1      -9.965   7.428  15.559  1.00  0.00    -0.203 N 
HETATM    7  C15 UNL     1     -10.596   8.509  16.203  1.00  0.00     0.251 C 
HETATM    8  O2  UNL     1     -11.402   9.258  15.645  1.00  0.00    -0.271 OA
HETATM    9  N7  UNL     1      -8.744   6.955  16.076  1.00  0.00    -0.254 N 
HETATM   10  C29 UNL     1      -7.841   6.268  15.309  1.00  0.00     0.287 C 
HETATM   11  O4  UNL     1      -6.800   5.867  15.815  1.00  0.00    -0.264 OA
HETATM   12  H22 UNL     1      -8.532   6.999  17.064  1.00  0.00     0.191 HD
ENDROOT
BRANCH   5  13
HETATM   13  C9  UNL     1     -11.804   7.024  13.928  1.00  0.00     0.010 A 
HETATM   14  C10 UNL     1     -12.181   8.030  13.029  1.00  0.00     0.017 A 
HETATM   15  C11 UNL     1     -13.526   8.176  12.677  1.00  0.00     0.025 A 
HETATM   16  C12 UNL     1     -14.487   7.335  13.239  1.00  0.00     0.034 A 
HETATM   17 CL1  UNL     1     -16.141   7.517  12.804  1.00  0.00    -0.084 Cl
HETATM   18  C13 UNL     1     -14.119   6.352  14.159  1.00  0.00     0.025 A 
HETATM   19  C14 UNL     1     -12.775   6.200  14.510  1.00  0.00     0.017 A 
ENDBRANCH   5  13
BRANCH   7  20
HETATM   20  C16 UNL     1     -10.170   8.795  17.627  1.00  0.00     0.181 C 
BRANCH  20  21
HETATM   21  C17 UNL     1     -11.247   9.418  18.483  1.00  0.00     0.094 A 
HETATM   22  N3  UNL     1     -11.819   8.701  19.409  1.00  0.00    -0.329 N 
HETATM   23  C18 UNL     1     -12.746   9.376  20.146  1.00  0.00     0.146 A 
ATOM     24  H3  UNL     1     -11.593   7.719  19.568  1.00  0.00     0.168 HD
HETATM   25  C19 UNL     1     -13.101  10.696  19.981  1.00  0.00     0.101 A 
HETATM   26  N5  UNL     1     -13.526   8.897  21.199  1.00  0.00    -0.239 N 
HETATM   27  C20 UNL     1     -14.073  10.971  20.946  1.00  0.00     0.042 A 
HETATM   28  C28 UNL     1     -12.477  11.469  18.946  1.00  0.00     0.262 A 
HETATM   29  C21 UNL     1     -14.779  12.251  21.196  1.00  0.00     0.071 C 
HETATM   30  N4  UNL     1     -14.334   9.891  21.690  1.00  0.00    -0.295 N 
ATOM     31  H4  UNL     1     -14.997   9.820  22.463  1.00  0.00     0.187 HD
HETATM   32  O3  UNL     1     -12.755  12.632  18.683  1.00  0.00    -0.267 OA
HETATM   33  N6  UNL     1     -11.521  10.753  18.255  1.00  0.00    -0.312 N 
HETATM   34  H21 UNL     1     -11.151  11.223  17.437  1.00  0.00     0.170 HD
BRANCH  26  35
HETATM   35  C22 UNL     1     -13.581   7.593  21.782  1.00  0.00     0.058 A 
HETATM   36  C23 UNL     1     -14.159   6.541  21.048  1.00  0.00     0.031 A 
HETATM   37  C24 UNL     1     -14.223   5.252  21.580  1.00  0.00     0.002 A 
HETATM   38  C25 UNL     1     -13.713   4.998  22.850  1.00  0.00     0.000 A 
HETATM   39  C26 UNL     1     -13.142   6.031  23.589  1.00  0.00     0.002 A 
HETATM   40  C27 UNL     1     -13.073   7.326  23.060  1.00  0.00     0.031 A 
ENDBRANCH  26  35
ENDBRANCH  20  21
ENDBRANCH   7  20
BRANCH   1  41
HETATM   41  C5  UNL     1      -5.961   5.494  13.047  1.00  0.00    -0.034 A 
HETATM   42  C4  UNL     1      -5.117   6.593  13.232  1.00  0.00     0.014 A 
HETATM   43  C3  UNL     1      -3.733   6.412  13.350  1.00  0.00     0.037 A 
HETATM   44  C2  UNL     1      -3.186   5.130  13.284  1.00  0.00     0.068 A 
HETATM   45  C31 UNL     1      -4.034   4.034  13.107  1.00  0.00     0.037 A 
HETATM   46  C30 UNL     1      -5.415   4.211  12.989  1.00  0.00     0.014 A 
BRANCH  44  47
HETATM   47  O1  UNL     1      -1.859   4.815  13.379  1.00  0.00    -0.356 OA
HETATM   48  C1  UNL     1      -1.073   5.609  14.261  1.00  0.00     0.210 C 
ENDBRANCH  44  47
ENDBRANCH   1  41
TORSDOF 6
ENDMDL
MODEL 5
REMARK minimizedAffinity -9.16830444
REMARK CNNscore 0.0261872318
REMARK CNNaffinity 5.77256823
REMARK  6 active torsions:
REMARK  status: ('A' for Active; 'I' for Inactive)
REMARK    1  A    between atoms: O1_2  and  C2_3 
REMARK    2  A    between atoms: C5_6  and  C6_7 
REMARK    3  A    between atoms: C8_11  and  C9_12 
REMARK       I    between atoms: N2_19  and  C15_20 
REMARK    4  A    between atoms: C15_20  and  C16_22 
REMARK    5  A    between atoms: C16_22  and  C17_23 
REMARK    6  A    between atoms: N5_32  and  C22_33 
ROOT
HETATM    1  C6  UNL     1      -8.139   5.609  13.014  1.00  0.00     0.046 C 
HETATM    2  C7  UNL     1      -8.935   6.159  13.950  1.00  0.00     0.104 C 
HETATM    3  N1  UNL     1     -10.288   6.228  13.696  1.00  0.00    -0.336 N 
ATOM      4  H1  UNL     1     -10.711   5.650  12.969  1.00  0.00     0.168 HD
HETATM    5  C8  UNL     1     -11.012   7.044  14.401  1.00  0.00     0.141 C 
HETATM    6  N2  UNL     1     -10.509   7.848  15.442  1.00  0.00    -0.203 N 
HETATM    7  C15 UNL     1     -11.109   9.036  15.904  1.00  0.00     0.251 C 
HETATM    8  O2  UNL     1     -11.972   9.652  15.275  1.00  0.00    -0.271 OA
HETATM    9  N7  UNL     1      -9.241   7.496  15.940  1.00  0.00    -0.254 N 
HETATM   10  C29 UNL     1      -8.389   6.670  15.256  1.00  0.00     0.287 C 
HETATM   11  O4  UNL     1      -7.303   6.385  15.743  1.00  0.00    -0.264 OA
HETATM   12  H22 UNL     1      -8.950   7.741  16.877  1.00  0.00     0.191 HD
ENDROOT
BRANCH   5  13
HETATM   13  C9  UNL     1     -12.466   7.113  14.087  1.00  0.00     0.010 A 
HETATM   14  C10 UNL     1     -13.403   6.440  14.881  1.00  0.00     0.017 A 
HETATM   15  C11 UNL     1     -14.760   6.500  14.551  1.00  0.00     0.025 A 
HETATM   16  C12 UNL     1     -15.171   7.211  13.423  1.00  0.00     0.034 A 
HETATM   17 CL1  UNL     1     -16.842   7.284  13.020  1.00  0.00    -0.084 Cl
HETATM   18  C13 UNL     1     -14.236   7.857  12.612  1.00  0.00     0.025 A 
HETATM   19  C14 UNL     1     -12.880   7.802  12.940  1.00  0.00     0.017 A 
ENDBRANCH   5  13
BRANCH   7  20
HETATM   20  C16 UNL     1     -10.573   9.608  17.199  1.00  0.00     0.181 C 
BRANCH  20  21
HETATM   21  C17 UNL     1     -11.559   9.577  18.343  1.00  0.00     0.094 A 
HETATM   22  N3  UNL     1     -11.254  10.173  19.462  1.00  0.00    -0.329 N 
HETATM   23  C18 UNL     1     -12.233  10.116  20.409  1.00  0.00     0.146 A 
ATOM     24  H3  UNL     1     -10.361  10.641  19.615  1.00  0.00     0.168 HD
HETATM   25  C19 UNL     1     -13.455   9.497  20.270  1.00  0.00     0.101 A 
HETATM   26  N5  UNL     1     -12.217  10.649  21.699  1.00  0.00    -0.239 N 
HETATM   27  C20 UNL     1     -14.138   9.689  21.474  1.00  0.00     0.042 A 
HETATM   28  C28 UNL     1     -13.770   8.829  19.041  1.00  0.00     0.262 A 
HETATM   29  C21 UNL     1     -15.498   9.225  21.839  1.00  0.00     0.071 C 
HETATM   30  N4  UNL     1     -13.399  10.388  22.343  1.00  0.00    -0.295 N 
ATOM     31  H4  UNL     1     -13.661  10.668  23.289  1.00  0.00     0.187 HD
HETATM   32  O3  UNL     1     -14.804   8.208  18.832  1.00  0.00    -0.267 OA
HETATM   33  N6  UNL     1     -12.766   8.948  18.102  1.00  0.00    -0.312 N 
HETATM   34  H21 UNL     1     -12.895   8.384  17.270  1.00  0.00     0.170 HD
BRANCH  26  35
HETATM   35  C22 UNL     1     -11.192  11.379  22.378  1.00  0.00     0.058 A 
HETATM   36  C23 UNL     1     -10.122  11.906  21.633  1.00  0.00     0.031 A 
HETATM   37  C24 UNL     1      -9.106  12.631  22.260  1.00  0.00     0.002 A 
HETATM   38  C25 UNL     1      -9.147  12.839  23.636  1.00  0.00     0.000 A 
HETATM   39  C26 UNL     1     -10.200  12.319  24.386  1.00  0.00     0.002 A 
HETATM   40  C27 UNL     1     -11.222  11.593  23.763  1.00  0.00     0.031 A 
ENDBRANCH  26  35
ENDBRANCH  20  21
ENDBRANCH   7  20
BRANCH   1  41
HETATM   41  C5  UNL     1      -6.684   5.458  13.049  1.00  0.00    -0.034 A 
HETATM   42  C4  UNL     1      -6.096   4.197  12.911  1.00  0.00     0.014 A 
HETATM   43  C3  UNL     1      -4.704   4.056  12.943  1.00  0.00     0.037 A 
HETATM   44  C2  UNL     1      -3.889   5.177  13.112  1.00  0.00     0.068 A 
HETATM   45  C31 UNL     1      -4.480   6.436  13.241  1.00  0.00     0.037 A 
HETATM   46  C30 UNL     1      -5.870   6.580  13.209  1.00  0.00     0.014 A 
BRANCH  44  47
HETATM   47  O1  UNL     1      -2.523   5.179  13.165  1.00  0.00    -0.356 OA
HETATM   48  C1  UNL     1      -1.866   6.358  12.715  1.00  0.00     0.210 C 
ENDBRANCH  44  47
ENDBRANCH   1  41
TORSDOF 6
ENDMDL
MODEL 6
REMARK minimizedAffinity -8.85358143
REMARK CNNscore 0.0252826773
REMARK CNNaffinity 5.33328676
REMARK  6 active torsions:
REMARK  status: ('A' for Active; 'I' for Inactive)
REMARK    1  A    between atoms: O1_2  and  C2_3 
REMARK    2  A    between atoms: C5_6  and  C6_7 
REMARK    3  A    between atoms: C8_11  and  C9_12 
REMARK       I    between atoms: N2_19  and  C15_20 
REMARK    4  A    between atoms: C15_20  and  C16_22 
REMARK    5  A    between atoms: C16_22  and  C17_23 
REMARK    6  A    between atoms: N5_32  and  C22_33 
ROOT
HETATM    1  C6  UNL     1      -8.179   6.116  13.227  1.00  0.00     0.046 C 
HETATM    2  C7  UNL     1      -9.111   6.516  14.113  1.00  0.00     0.104 C 
HETATM    3  N1  UNL     1     -10.438   6.357  13.779  1.00  0.00    -0.336 N 
ATOM      4  H1  UNL     1     -10.714   5.721  13.030  1.00  0.00     0.168 HD
HETATM    5  C8  UNL     1     -11.331   7.033  14.438  1.00  0.00     0.141 C 
HETATM    6  N2  UNL     1     -11.034   7.903  15.504  1.00  0.00    -0.203 N 
HETATM    7  C15 UNL     1     -11.852   8.969  15.926  1.00  0.00     0.251 C 
HETATM    8  O2  UNL     1     -12.769   9.434  15.245  1.00  0.00    -0.271 OA
HETATM    9  N7  UNL     1      -9.756   7.768  16.077  1.00  0.00    -0.254 N 
HETATM   10  C29 UNL     1      -8.737   7.103  15.446  1.00  0.00     0.287 C 
HETATM   11  O4  UNL     1      -7.649   7.003  15.998  1.00  0.00    -0.264 OA
HETATM   12  H22 UNL     1      -9.566   8.052  17.028  1.00  0.00     0.191 HD
ENDROOT
BRANCH   5  13
HETATM   13  C9  UNL     1     -12.754   6.856  14.038  1.00  0.00     0.010 A 
HETATM   14  C10 UNL     1     -13.600   6.003  14.757  1.00  0.00     0.017 A 
HETATM   15  C11 UNL     1     -14.926   5.835  14.348  1.00  0.00     0.025 A 
HETATM   16  C12 UNL     1     -15.393   6.500  13.214  1.00  0.00     0.034 A 
HETATM   17 CL1  UNL     1     -17.025   6.293  12.713  1.00  0.00    -0.084 Cl
HETATM   18  C13 UNL     1     -14.544   7.328  12.477  1.00  0.00     0.025 A 
HETATM   19  C14 UNL     1     -13.220   7.501  12.885  1.00  0.00     0.017 A 
ENDBRANCH   5  13
BRANCH   7  20
HETATM   20  C16 UNL     1     -11.499   9.614  17.248  1.00  0.00     0.181 C 
BRANCH  20  21
HETATM   21  C17 UNL     1     -10.978  11.027  17.129  1.00  0.00     0.094 A 
HETATM   22  N3  UNL     1     -10.326  11.552  18.127  1.00  0.00    -0.329 N 
HETATM   23  C18 UNL     1      -9.869  12.815  17.893  1.00  0.00     0.146 A 
ATOM     24  H3  UNL     1     -10.171  11.061  19.008  1.00  0.00     0.168 HD
HETATM   25  C19 UNL     1     -10.047  13.536  16.734  1.00  0.00     0.101 A 
HETATM   26  N5  UNL     1      -9.144  13.643  18.752  1.00  0.00    -0.239 N 
HETATM   27  C20 UNL     1      -9.414  14.766  16.928  1.00  0.00     0.042 A 
HETATM   28  C28 UNL     1     -10.783  12.953  15.650  1.00  0.00     0.262 A 
HETATM   29  C21 UNL     1      -9.310  15.901  15.979  1.00  0.00     0.071 C 
HETATM   30  N4  UNL     1      -8.862  14.839  18.144  1.00  0.00    -0.295 N 
ATOM     31  H4  UNL     1      -8.339  15.622  18.537  1.00  0.00     0.187 HD
HETATM   32  O3  UNL     1     -11.041  13.524  14.597  1.00  0.00    -0.267 OA
HETATM   33  N6  UNL     1     -11.191  11.663  15.920  1.00  0.00    -0.312 N 
HETATM   34  H21 UNL     1     -11.820  11.265  15.232  1.00  0.00     0.170 HD
BRANCH  26  35
HETATM   35  C22 UNL     1      -8.696  13.411  20.090  1.00  0.00     0.058 A 
HETATM   36  C23 UNL     1      -9.610  12.921  21.040  1.00  0.00     0.031 A 
HETATM   37  C24 UNL     1      -9.207  12.675  22.354  1.00  0.00     0.002 A 
HETATM   38  C25 UNL     1      -7.890  12.914  22.735  1.00  0.00     0.000 A 
HETATM   39  C26 UNL     1      -6.975  13.402  21.804  1.00  0.00     0.002 A 
HETATM   40  C27 UNL     1      -7.373  13.650  20.485  1.00  0.00     0.031 A 
ENDBRANCH  26  35
ENDBRANCH  20  21
ENDBRANCH   7  20
BRANCH   1  41
HETATM   41  C5  UNL     1      -6.725   6.214  13.348  1.00  0.00    -0.034 A 
HETATM   42  C4  UNL     1      -6.087   7.456  13.280  1.00  0.00     0.014 A 
HETATM   43  C3  UNL     1      -4.695   7.546  13.398  1.00  0.00     0.037 A 
HETATM   44  C2  UNL     1      -3.931   6.393  13.585  1.00  0.00     0.068 A 
HETATM   45  C31 UNL     1      -4.572   5.155  13.661  1.00  0.00     0.037 A 
HETATM   46  C30 UNL     1      -5.961   5.061  13.543  1.00  0.00     0.014 A 
BRANCH  44  47
HETATM   47  O1  UNL     1      -2.570   6.340  13.711  1.00  0.00    -0.356 OA
HETATM   48  C1  UNL     1      -2.032   6.644  14.992  1.00  0.00     0.210 C 
ENDBRANCH  44  47
ENDBRANCH   1  41
TORSDOF 6
ENDMDL
MODEL 7
REMARK minimizedAffinity -10.4714155
REMARK CNNscore 0.0241257846
REMARK CNNaffinity 6.68275309
REMARK  6 active torsions:
REMARK  status: ('A' for Active; 'I' for Inactive)
REMARK    1  A    between atoms: O1_2  and  C2_3 
REMARK    2  A    between atoms: C5_6  and  C6_7 
REMARK    3  A    between atoms: C8_11  and  C9_12 
REMARK       I    between atoms: N2_19  and  C15_20 
REMARK    4  A    between atoms: C15_20  and  C16_22 
REMARK    5  A    between atoms: C16_22  and  C17_23 
REMARK    6  A    between atoms: N5_32  and  C22_33 
ROOT
HETATM    1  C6  UNL     1       6.771   8.626  13.277  1.00  0.00     0.046 C 
HETATM    2  C7  UNL     1       5.548   8.085  13.116  1.00  0.00     0.104 C 
HETATM    3  N1  UNL     1       5.067   7.932  11.834  1.00  0.00    -0.336 N 
ATOM      4  H1  UNL     1       5.699   7.963  11.033  1.00  0.00     0.168 HD
HETATM    5  C8  UNL     1       3.792   7.748  11.666  1.00  0.00     0.141 C 
HETATM    6  N2  UNL     1       2.861   7.659  12.718  1.00  0.00    -0.203 N 
HETATM    7  C15 UNL     1       1.483   7.922  12.599  1.00  0.00     0.251 C 
HETATM    8  O2  UNL     1       0.984   8.524  11.646  1.00  0.00    -0.271 OA
HETATM    9  N7  UNL     1       3.395   7.433  14.000  1.00  0.00    -0.254 N 
HETATM   10  C29 UNL     1       4.720   7.632  14.287  1.00  0.00     0.287 C 
HETATM   11  O4  UNL     1       5.134   7.406  15.417  1.00  0.00    -0.264 OA
HETATM   12  H22 UNL     1       2.851   7.002  14.736  1.00  0.00     0.191 HD
ENDROOT
BRANCH   5  13
HETATM   13  C9  UNL     1       3.300   7.608  10.267  1.00  0.00     0.010 A 
HETATM   14  C10 UNL     1       2.742   6.404   9.820  1.00  0.00     0.017 A 
HETATM   15  C11 UNL     1       2.309   6.291   8.495  1.00  0.00     0.025 A 
HETATM   16  C12 UNL     1       2.456   7.368   7.622  1.00  0.00     0.034 A 
HETATM   17 CL1  UNL     1       1.922   7.227   5.993  1.00  0.00    -0.084 Cl
HETATM   18  C13 UNL     1       3.040   8.560   8.055  1.00  0.00     0.025 A 
HETATM   19  C14 UNL     1       3.470   8.678   9.379  1.00  0.00     0.017 A 
ENDBRANCH   5  13
BRANCH   7  20
HETATM   20  C16 UNL     1       0.610   7.512  13.766  1.00  0.00     0.181 C 
BRANCH  20  21
HETATM   21  C17 UNL     1      -0.394   6.432  13.440  1.00  0.00     0.094 A 
HETATM   22  N3  UNL     1      -1.651   6.623  13.725  1.00  0.00    -0.329 N 
HETATM   23  C18 UNL     1      -2.470   5.600  13.350  1.00  0.00     0.146 A 
ATOM     24  H3  UNL     1      -1.992   7.464  14.190  1.00  0.00     0.168 HD
HETATM   25  C19 UNL     1      -2.076   4.437  12.727  1.00  0.00     0.101 A 
HETATM   26  N5  UNL     1      -3.853   5.498  13.513  1.00  0.00    -0.239 N 
HETATM   27  C20 UNL     1      -3.233   3.681  12.525  1.00  0.00     0.042 A 
HETATM   28  C28 UNL     1      -0.687   4.232  12.435  1.00  0.00     0.262 A 
HETATM   29  C21 UNL     1      -3.356   2.348  11.886  1.00  0.00     0.071 C 
HETATM   30  N4  UNL     1      -4.313   4.315  12.993  1.00  0.00    -0.295 N 
ATOM     31  H4  UNL     1      -5.280   3.988  12.969  1.00  0.00     0.187 HD
HETATM   32  O3  UNL     1      -0.225   3.216  11.930  1.00  0.00    -0.267 OA
HETATM   33  N6  UNL     1       0.095   5.309  12.798  1.00  0.00    -0.312 N 
HETATM   34  H21 UNL     1       1.093   5.151  12.726  1.00  0.00     0.170 HD
BRANCH  26  35
HETATM   35  C22 UNL     1      -4.776   6.409  14.114  1.00  0.00     0.058 A 
HETATM   36  C23 UNL     1      -5.503   5.997  15.246  1.00  0.00     0.031 A 
HETATM   37  C24 UNL     1      -6.408   6.862  15.865  1.00  0.00     0.002 A 
HETATM   38  C25 UNL     1      -6.598   8.147  15.362  1.00  0.00     0.000 A 
HETATM   39  C26 UNL     1      -5.887   8.565  14.240  1.00  0.00     0.002 A 
HETATM   40  C27 UNL     1      -4.977   7.703  13.616  1.00  0.00     0.031 A 
ENDBRANCH  26  35
ENDBRANCH  20  21
ENDBRANCH   7  20
BRANCH   1  41
HETATM   41  C5  UNL     1       7.468   8.912  14.530  1.00  0.00    -0.034 A 
HETATM   42  C4  UNL     1       7.224  10.101  15.225  1.00  0.00     0.014 A 
HETATM   43  C3  UNL     1       7.892  10.371  16.425  1.00  0.00     0.037 A 
HETATM   44  C2  UNL     1       8.808   9.453  16.940  1.00  0.00     0.068 A 
HETATM   45  C31 UNL     1       9.043   8.262  16.248  1.00  0.00     0.037 A 
HETATM   46  C30 UNL     1       8.378   7.989  15.049  1.00  0.00     0.014 A 
BRANCH  44  47
HETATM   47  O1  UNL     1       9.528   9.593  18.094  1.00  0.00    -0.356 OA
HETATM   48  C1  UNL     1       9.569  10.894  18.669  1.00  0.00     0.210 C 
ENDBRANCH  44  47
ENDBRANCH   1  41
TORSDOF 6
ENDMDL
MODEL 8
REMARK minimizedAffinity -9.44410229
REMARK CNNscore 0.0237167105
REMARK CNNaffinity 5.70364761
REMARK  6 active torsions:
REMARK  status: ('A' for Active; 'I' for Inactive)
REMARK    1  A    between atoms: O1_2  and  C2_3 
REMARK    2  A    between atoms: C5_6  and  C6_7 
REMARK    3  A    between atoms: C8_11  and  C9_12 
REMARK       I    between atoms: N2_19  and  C15_20 
REMARK    4  A    between atoms: C15_20  and  C16_22 
REMARK    5  A    between atoms: C16_22  and  C17_23 
REMARK    6  A    between atoms: N5_32  and  C22_33 
ROOT
HETATM    1  C6  UNL     1      -7.424   5.800  14.387  1.00  0.00     0.046 C 
HETATM    2  C7  UNL     1      -8.477   6.596  14.121  1.00  0.00     0.104 C 
HETATM    3  N1  UNL     1      -8.768   7.610  15.008  1.00  0.00    -0.336 N 
ATOM      4  H1  UNL     1      -8.072   7.927  15.683  1.00  0.00     0.168 HD
HETATM    5  C8  UNL     1      -9.948   8.154  14.965  1.00  0.00     0.141 C 
HETATM    6  N2  UNL     1     -10.949   7.797  14.043  1.00  0.00    -0.203 N 
HETATM    7  C15 UNL     1     -12.330   7.998  14.234  1.00  0.00     0.251 C 
HETATM    8  O2  UNL     1     -12.836   8.245  15.331  1.00  0.00    -0.271 OA
HETATM    9  N7  UNL     1     -10.525   7.057  12.923  1.00  0.00    -0.254 N 
HETATM   10  C29 UNL     1      -9.314   6.417  12.884  1.00  0.00     0.287 C 
HETATM   11  O4  UNL     1      -8.990   5.799  11.878  1.00  0.00    -0.264 OA
HETATM   12  H22 UNL     1     -11.043   7.061  12.055  1.00  0.00     0.191 HD
ENDROOT
BRANCH   5  13
HETATM   13  C9  UNL     1     -10.239   9.231  15.951  1.00  0.00     0.010 A 
HETATM   14  C10 UNL     1     -10.569   8.920  17.276  1.00  0.00     0.017 A 
HETATM   15  C11 UNL     1     -10.862   9.948  18.177  1.00  0.00     0.025 A 
HETATM   16  C12 UNL     1     -10.845  11.275  17.746  1.00  0.00     0.034 A 
HETATM   17 CL1  UNL     1     -11.205  12.539  18.857  1.00  0.00    -0.084 Cl
HETATM   18  C13 UNL     1     -10.547  11.587  16.419  1.00  0.00     0.025 A 
HETATM   19  C14 UNL     1     -10.250  10.563  15.517  1.00  0.00     0.017 A 
ENDBRANCH   5  13
BRANCH   7  20
HETATM   20  C16 UNL     1     -13.219   7.800  13.026  1.00  0.00     0.181 C 
BRANCH  20  21
HETATM   21  C17 UNL     1     -14.654   7.466  13.360  1.00  0.00     0.094 A 
HETATM   22  N3  UNL     1     -14.993   6.220  13.537  1.00  0.00    -0.329 N 
HETATM   23  C18 UNL     1     -16.302   6.040  13.874  1.00  0.00     0.146 A 
ATOM     24  H3  UNL     1     -14.337   5.447  13.432  1.00  0.00     0.168 HD
HETATM   25  C19 UNL     1     -17.240   7.037  14.026  1.00  0.00     0.101 A 
HETATM   26  N5  UNL     1     -16.971   4.841  14.127  1.00  0.00    -0.239 N 
HETATM   27  C20 UNL     1     -18.437   6.407  14.377  1.00  0.00     0.042 A 
HETATM   28  C28 UNL     1     -16.857   8.402  13.811  1.00  0.00     0.262 A 
HETATM   29  C21 UNL     1     -19.751   7.032  14.660  1.00  0.00     0.071 C 
HETATM   30  N4  UNL     1     -18.283   5.080  14.444  1.00  0.00    -0.295 N 
ATOM     31  H4  UNL     1     -18.995   4.388  14.683  1.00  0.00     0.187 HD
HETATM   32  O3  UNL     1     -17.622   9.356  13.872  1.00  0.00    -0.267 OA
HETATM   33  N6  UNL     1     -15.517   8.535  13.510  1.00  0.00    -0.312 N 
HETATM   34  H21 UNL     1     -15.238   9.467  13.227  1.00  0.00     0.170 HD
BRANCH  26  35
HETATM   35  C22 UNL     1     -16.488   3.496  14.095  1.00  0.00     0.058 A 
HETATM   36  C23 UNL     1     -17.139   2.557  13.275  1.00  0.00     0.031 A 
HETATM   37  C24 UNL     1     -16.691   1.235  13.211  1.00  0.00     0.002 A 
HETATM   38  C25 UNL     1     -15.590   0.837  13.964  1.00  0.00     0.000 A 
HETATM   39  C26 UNL     1     -14.938   1.757  14.783  1.00  0.00     0.002 A 
HETATM   40  C27 UNL     1     -15.382   3.083  14.849  1.00  0.00     0.031 A 
ENDBRANCH  26  35
ENDBRANCH  20  21
ENDBRANCH   7  20
BRANCH   1  41
HETATM   41  C5  UNL     1      -6.949   4.652  13.616  1.00  0.00    -0.034 A 
HETATM   42  C4  UNL     1      -7.723   3.492  13.517  1.00  0.00     0.014 A 
HETATM   43  C3  UNL     1      -7.266   2.395  12.777  1.00  0.00     0.037 A 
HETATM   44  C2  UNL     1      -6.031   2.453  12.128  1.00  0.00     0.068 A 
HETATM   45  C31 UNL     1      -5.264   3.616  12.222  1.00  0.00     0.037 A 
HETATM   46  C30 UNL     1      -5.717   4.713  12.961  1.00  0.00     0.014 A 
BRANCH  44  47
HETATM   47  O1  UNL     1      -5.467   1.457  11.380  1.00  0.00    -0.356 OA
HETATM   48  C1  UNL     1      -4.057   1.296  11.485  1.00  0.00     0.210 C 
ENDBRANCH  44  47
ENDBRANCH   1  41
TORSDOF 6
ENDMDL
MODEL 9
REMARK minimizedAffinity -8.59443569
REMARK CNNscore 0.0204689931
REMARK CNNaffinity 4.71864653
REMARK  6 active torsions:
REMARK  status: ('A' for Active; 'I' for Inactive)
REMARK    1  A    between atoms: O1_2  and  C2_3 
REMARK    2  A    between atoms: C5_6  and  C6_7 
REMARK    3  A    between atoms: C8_11  and  C9_12 
REMARK       I    between atoms: N2_19  and  C15_20 
REMARK    4  A    between atoms: C15_20  and  C16_22 
REMARK    5  A    between atoms: C16_22  and  C17_23 
REMARK    6  A    between atoms: N5_32  and  C22_33 
ROOT
HETATM    1  C6  UNL     1      14.110  12.687  17.874  1.00  0.00     0.046 C 
HETATM    2  C7  UNL     1      13.010  12.178  18.462  1.00  0.00     0.104 C 
HETATM    3  N1  UNL     1      12.006  11.691  17.653  1.00  0.00    -0.336 N 
ATOM      4  H1  UNL     1      12.188  11.467  16.675  1.00  0.00     0.168 HD
HETATM    5  C8  UNL     1      10.823  11.524  18.164  1.00  0.00     0.141 C 
HETATM    6  N2  UNL     1      10.501  11.777  19.511  1.00  0.00    -0.203 N 
HETATM    7  C15 UNL     1       9.207  12.056  19.991  1.00  0.00     0.251 C 
HETATM    8  O2  UNL     1       8.267  12.387  19.264  1.00  0.00    -0.271 OA
HETATM    9  N7  UNL     1      11.588  11.898  20.396  1.00  0.00    -0.254 N 
HETATM   10  C29 UNL     1      12.869  12.111  19.958  1.00  0.00     0.287 C 
HETATM   11  O4  UNL     1      13.780  12.194  20.772  1.00  0.00    -0.264 OA
HETATM   12  H22 UNL     1      11.492  11.716  21.386  1.00  0.00     0.191 HD
ENDROOT
BRANCH   5  13
HETATM   13  C9  UNL     1       9.754  11.018  17.259  1.00  0.00     0.010 A 
HETATM   14  C10 UNL     1       9.290   9.700  17.363  1.00  0.00     0.017 A 
HETATM   15  C11 UNL     1       8.303   9.241  16.487  1.00  0.00     0.025 A 
HETATM   16  C12 UNL     1       7.800  10.091  15.500  1.00  0.00     0.034 A 
HETATM   17 CL1  UNL     1       6.585   9.524  14.423  1.00  0.00    -0.084 Cl
HETATM   18  C13 UNL     1       8.281  11.395  15.374  1.00  0.00     0.025 A 
HETATM   19  C14 UNL     1       9.266  11.858  16.250  1.00  0.00     0.017 A 
ENDBRANCH   5  13
BRANCH   7  20
HETATM   20  C16 UNL     1       9.020  12.032  21.493  1.00  0.00     0.181 C 
BRANCH  20  21
HETATM   21  C17 UNL     1       7.810  12.794  21.979  1.00  0.00     0.094 A 
HETATM   22  N3  UNL     1       6.666  12.176  22.080  1.00  0.00    -0.329 N 
HETATM   23  C18 UNL     1       5.655  12.951  22.567  1.00  0.00     0.146 A 
ATOM     24  H3  UNL     1       6.539  11.199  21.818  1.00  0.00     0.168 HD
HETATM   25  C19 UNL     1       5.757  14.274  22.934  1.00  0.00     0.101 A 
HETATM   26  N5  UNL     1       4.325  12.591  22.791  1.00  0.00    -0.239 N 
HETATM   27  C20 UNL     1       4.490  14.663  23.377  1.00  0.00     0.042 A 
HETATM   28  C28 UNL     1       7.016  14.946  22.799  1.00  0.00     0.262 A 
HETATM   29  C21 UNL     1       4.067  15.990  23.886  1.00  0.00     0.071 C 
HETATM   30  N4  UNL     1       3.618  13.652  23.298  1.00  0.00    -0.295 N 
ATOM     31  H4  UNL     1       2.633  13.666  23.561  1.00  0.00     0.187 HD
HETATM   32  O3  UNL     1       7.203  16.131  23.049  1.00  0.00    -0.267 OA
HETATM   33  N6  UNL     1       8.015  14.112  22.340  1.00  0.00    -0.312 N 
HETATM   34  H21 UNL     1       8.884  14.580  22.112  1.00  0.00     0.170 HD
BRANCH  26  35
HETATM   35  C22 UNL     1       3.661  11.345  22.570  1.00  0.00     0.058 A 
HETATM   36  C23 UNL     1       2.746  11.238  21.507  1.00  0.00     0.031 A 
HETATM   37  C24 UNL     1       2.084  10.034  21.255  1.00  0.00     0.002 A 
HETATM   38  C25 UNL     1       2.327   8.925  22.060  1.00  0.00     0.000 A 
HETATM   39  C26 UNL     1       3.228   9.019  23.118  1.00  0.00     0.002 A 
HETATM   40  C27 UNL     1       3.895  10.222  23.375  1.00  0.00     0.031 A 
ENDBRANCH  26  35
ENDBRANCH  20  21
ENDBRANCH   7  20
BRANCH   1  41
HETATM   41  C5  UNL     1      15.278  13.284  18.520  1.00  0.00    -0.034 A 
HETATM   42  C4  UNL     1      15.256  14.617  18.938  1.00  0.00     0.014 A 
HETATM   43  C3  UNL     1      16.376  15.185  19.558  1.00  0.00     0.037 A 
HETATM   44  C2  UNL     1      17.525  14.421  19.765  1.00  0.00     0.068 A 
HETATM   45  C31 UNL     1      17.541  13.087  19.354  1.00  0.00     0.037 A 
HETATM   46  C30 UNL     1      16.425  12.516  18.735  1.00  0.00     0.014 A 
BRANCH  44  47
HETATM   47  O1  UNL     1      18.684  14.851  20.351  1.00  0.00    -0.356 OA
HETATM   48  C1  UNL     1      19.735  13.900  20.467  1.00  0.00     0.210 C 
ENDBRANCH  44  47
ENDBRANCH   1  41
TORSDOF 6
ENDMDL
