MODEL 1
REMARK minimizedAffinity -6.83114958
REMARK CNNscore 0.66999954
REMARK CNNaffinity 6.34934378
REMARK  5 active torsions:
REMARK  status: ('A' for Active; 'I' for Inactive)
REMARK    1  A    between atoms: C5_6  and  C6_7 
REMARK    2  A    between atoms: C6_7  and  O1_8 
REMARK    3  A    between atoms: O1_8  and  C7_9 
REMARK    4  A    between atoms: C10_12  and  N1_13 
REMARK    5  A    between atoms: N1_13  and  C11_14 
ROOT
HETATM    1  N1  UNL     1      13.696  57.607   0.786  1.00  0.00    -0.342 N 
HETATM    2  H8  UNL     1      14.469  57.506   1.425  1.00  0.00     0.167 HD
ENDROOT
BRANCH   1   3
HETATM    3  C10 UNL     1      13.585  56.556  -0.144  1.00  0.00     0.035 A 
HETATM    4  C9  UNL     1      12.365  56.063  -0.622  1.00  0.00     0.032 A 
HETATM    5  C8  UNL     1      12.314  54.993  -1.522  1.00  0.00     0.041 A 
HETATM    6  C7  UNL     1      13.491  54.376  -1.935  1.00  0.00     0.091 A 
HETATM    7  C21 UNL     1      14.719  54.849  -1.476  1.00  0.00     0.069 A 
HETATM    8  C20 UNL     1      14.762  55.922  -0.579  1.00  0.00     0.056 A 
HETATM    9 CL1  UNL     1      16.207  54.132  -1.978  1.00  0.00    -0.081 Cl
BRANCH   6  10
HETATM   10  O1  UNL     1      13.401  53.350  -2.837  1.00  0.00    -0.345 OA
BRANCH  10  11
HETATM   11  C6  UNL     1      12.081  52.787  -2.857  1.00  0.00     0.214 C 
BRANCH  11  12
HETATM   12  C5  UNL     1      12.120  51.362  -2.361  1.00  0.00    -0.031 A 
HETATM   13  C4  UNL     1      10.927  50.657  -2.129  1.00  0.00     0.009 A 
HETATM   14  C3  UNL     1      10.955  49.338  -1.670  1.00  0.00     0.004 A 
HETATM   15  C2  UNL     1      12.177  48.710  -1.438  1.00  0.00     0.042 A 
HETATM   16  C1  UNL     1      13.359  49.407  -1.664  1.00  0.00     0.117 A 
HETATM   17  F1  UNL     1      14.532  48.803  -1.439  1.00  0.00    -0.206 F 
HETATM   18  C22 UNL     1      13.342  50.720  -2.121  1.00  0.00     0.051 A 
ENDBRANCH  11  12
ENDBRANCH  10  11
ENDBRANCH   6  10
ENDBRANCH   1   3
BRANCH   1  19
HETATM   19  C11 UNL     1      13.153  58.897   0.809  1.00  0.00     0.123 A 
HETATM   20  N2  UNL     1      12.704  59.527  -0.318  1.00  0.00    -0.338 N 
HETATM   21  C12 UNL     1      12.245  60.815  -0.262  1.00  0.00     0.183 A 
ATOM     22  H2  UNL     1      12.713  59.033  -1.211  1.00  0.00     0.168 HD
HETATM   23  N3  UNL     1      12.142  61.652   0.793  1.00  0.00    -0.337 N 
HETATM   24  C13 UNL     1      12.560  61.051   1.930  1.00  0.00     0.137 A 
ATOM     25  H3  UNL     1      11.795  62.610   0.740  1.00  0.00     0.168 HD
HETATM   26  N4  UNL     1      12.579  61.611   3.135  1.00  0.00    -0.278 N 
HETATM   27  C19 UNL     1      13.043  59.716   1.949  1.00  0.00     0.082 A 
HETATM   28  N5  UNL     1      13.047  60.643   3.958  1.00  0.00    -0.265 N 
ATOM     29  H4  UNL     1      12.302  62.560   3.385  1.00  0.00     0.189 HD
HETATM   30  C14 UNL     1      13.251  60.770   5.334  1.00  0.00     0.116 A 
HETATM   31  C18 UNL     1      13.316  59.443   3.270  1.00  0.00     0.073 A 
HETATM   32  C15 UNL     1      13.698  59.731   6.054  1.00  0.00     0.019 A 
HETATM   33  C16 UNL     1      13.939  58.470   5.379  1.00  0.00     0.004 A 
HETATM   34  C17 UNL     1      13.752  58.328   4.054  1.00  0.00     0.032 A 
ENDBRANCH   1  19
TORSDOF 5
ENDMDL
MODEL 2
REMARK minimizedAffinity -7.35246515
REMARK CNNscore 0.388272554
REMARK CNNaffinity 5.49488258
REMARK  5 active torsions:
REMARK  status: ('A' for Active; 'I' for Inactive)
REMARK    1  A    between atoms: C5_6  and  C6_7 
REMARK    2  A    between atoms: C6_7  and  O1_8 
REMARK    3  A    between atoms: O1_8  and  C7_9 
REMARK    4  A    between atoms: C10_12  and  N1_13 
REMARK    5  A    between atoms: N1_13  and  C11_14 
ROOT
HETATM    1  N1  UNL     1       2.934  66.944  -5.192  1.00  0.00    -0.342 N 
HETATM    2  H8  UNL     1       2.250  66.846  -5.926  1.00  0.00     0.167 HD
ENDROOT
BRANCH   1   3
HETATM    3  C10 UNL     1       4.074  66.137  -5.363  1.00  0.00     0.035 A 
HETATM    4  C9  UNL     1       4.596  65.302  -4.368  1.00  0.00     0.032 A 
HETATM    5  C8  UNL     1       5.753  64.546  -4.584  1.00  0.00     0.041 A 
HETATM    6  C7  UNL     1       6.427  64.638  -5.798  1.00  0.00     0.091 A 
HETATM    7  C21 UNL     1       5.927  65.461  -6.806  1.00  0.00     0.069 A 
HETATM    8  C20 UNL     1       4.767  66.211  -6.584  1.00  0.00     0.056 A 
HETATM    9 CL1  UNL     1       6.715  65.591  -8.337  1.00  0.00    -0.081 Cl
BRANCH   6  10
HETATM   10  O1  UNL     1       7.540  63.863  -5.981  1.00  0.00    -0.345 OA
BRANCH  10  11
HETATM   11  C6  UNL     1       7.195  62.574  -6.508  1.00  0.00     0.214 C 
BRANCH  11  12
HETATM   12  C5  UNL     1       8.183  61.538  -6.028  1.00  0.00    -0.031 A 
HETATM   13  C4  UNL     1       9.555  61.837  -5.969  1.00  0.00     0.009 A 
HETATM   14  C3  UNL     1      10.474  60.884  -5.526  1.00  0.00     0.004 A 
HETATM   15  C2  UNL     1      10.032  59.620  -5.138  1.00  0.00     0.042 A 
HETATM   16  C1  UNL     1       8.676  59.322  -5.198  1.00  0.00     0.117 A 
HETATM   17  F1  UNL     1       8.252  58.107  -4.826  1.00  0.00    -0.206 F 
HETATM   18  C22 UNL     1       7.751  60.263  -5.638  1.00  0.00     0.051 A 
ENDBRANCH  11  12
ENDBRANCH  10  11
ENDBRANCH   6  10
ENDBRANCH   1   3
BRANCH   1  19
HETATM   19  C11 UNL     1       2.420  67.612  -4.074  1.00  0.00     0.123 A 
HETATM   20  N2  UNL     1       2.690  68.927  -3.814  1.00  0.00    -0.338 N 
HETATM   21  C12 UNL     1       2.224  69.522  -2.674  1.00  0.00     0.183 A 
ATOM     22  H2  UNL     1       3.244  69.470  -4.477  1.00  0.00     0.168 HD
HETATM   23  N3  UNL     1       1.482  69.008  -1.669  1.00  0.00    -0.337 N 
HETATM   24  C13 UNL     1       1.180  67.712  -1.906  1.00  0.00     0.137 A 
ATOM     25  H3  UNL     1       1.187  69.529  -0.842  1.00  0.00     0.168 HD
HETATM   26  N4  UNL     1       0.461  66.930  -1.107  1.00  0.00    -0.278 N 
HETATM   27  C19 UNL     1       1.623  67.030  -3.070  1.00  0.00     0.082 A 
HETATM   28  N5  UNL     1       0.402  65.740  -1.750  1.00  0.00    -0.265 N 
ATOM     29  H4  UNL     1       0.045  67.173  -0.208  1.00  0.00     0.189 HD
HETATM   30  C14 UNL     1      -0.247  64.593  -1.288  1.00  0.00     0.116 A 
HETATM   31  C18 UNL     1       1.080  65.768  -2.985  1.00  0.00     0.073 A 
HETATM   32  C15 UNL     1      -0.259  63.474  -2.026  1.00  0.00     0.019 A 
HETATM   33  C16 UNL     1       0.391  63.489  -3.321  1.00  0.00     0.004 A 
HETATM   34  C17 UNL     1       1.026  64.583  -3.784  1.00  0.00     0.032 A 
ENDBRANCH   1  19
TORSDOF 5
ENDMDL
MODEL 3
REMARK minimizedAffinity -7.64916182
REMARK CNNscore 0.383764863
REMARK CNNaffinity 5.75357628
REMARK  5 active torsions:
REMARK  status: ('A' for Active; 'I' for Inactive)
REMARK    1  A    between atoms: C5_6  and  C6_7 
REMARK    2  A    between atoms: C6_7  and  O1_8 
REMARK    3  A    between atoms: O1_8  and  C7_9 
REMARK    4  A    between atoms: C10_12  and  N1_13 
REMARK    5  A    between atoms: N1_13  and  C11_14 
ROOT
HETATM    1  N1  UNL     1      16.451  51.446   5.434  1.00  0.00    -0.342 N 
HETATM    2  H8  UNL     1      16.047  50.824   4.751  1.00  0.00     0.167 HD
ENDROOT
BRANCH   1   3
HETATM    3  C10 UNL     1      16.164  52.806   5.207  1.00  0.00     0.035 A 
HETATM    4  C9  UNL     1      14.888  53.366   5.337  1.00  0.00     0.032 A 
HETATM    5  C8  UNL     1      14.655  54.718   5.066  1.00  0.00     0.041 A 
HETATM    6  C7  UNL     1      15.697  55.528   4.626  1.00  0.00     0.091 A 
HETATM    7  C21 UNL     1      16.978  54.995   4.489  1.00  0.00     0.069 A 
HETATM    8  C20 UNL     1      17.204  53.642   4.766  1.00  0.00     0.056 A 
HETATM    9 CL1  UNL     1      18.308  55.965   3.969  1.00  0.00    -0.081 Cl
BRANCH   6  10
HETATM   10  O1  UNL     1      15.436  56.852   4.396  1.00  0.00    -0.345 OA
BRANCH  10  11
HETATM   11  C6  UNL     1      14.027  57.089   4.263  1.00  0.00     0.214 C 
BRANCH  11  12
HETATM   12  C5  UNL     1      13.684  57.359   2.818  1.00  0.00    -0.031 A 
HETATM   13  C4  UNL     1      13.394  58.665   2.387  1.00  0.00     0.009 A 
HETATM   14  C3  UNL     1      13.075  58.922   1.051  1.00  0.00     0.004 A 
HETATM   15  C2  UNL     1      13.042  57.875   0.132  1.00  0.00     0.042 A 
HETATM   16  C1  UNL     1      13.325  56.582   0.557  1.00  0.00     0.117 A 
HETATM   17  F1  UNL     1      13.291  55.576  -0.327  1.00  0.00    -0.206 F 
HETATM   18  C22 UNL     1      13.644  56.315   1.884  1.00  0.00     0.051 A 
ENDBRANCH  11  12
ENDBRANCH  10  11
ENDBRANCH   6  10
ENDBRANCH   1   3
BRANCH   1  19
HETATM   19  C11 UNL     1      17.422  50.813   6.220  1.00  0.00     0.123 A 
HETATM   20  N2  UNL     1      18.172  51.485   7.145  1.00  0.00    -0.338 N 
HETATM   21  C12 UNL     1      19.158  50.842   7.842  1.00  0.00     0.183 A 
ATOM     22  H2  UNL     1      17.995  52.475   7.316  1.00  0.00     0.168 HD
HETATM   23  N3  UNL     1      19.563  49.555   7.782  1.00  0.00    -0.337 N 
HETATM   24  C13 UNL     1      18.826  48.857   6.889  1.00  0.00     0.137 A 
ATOM     25  H3  UNL     1      20.324  49.161   8.337  1.00  0.00     0.168 HD
HETATM   26  N4  UNL     1      18.978  47.567   6.605  1.00  0.00    -0.278 N 
HETATM   27  C19 UNL     1      17.782  49.455   6.134  1.00  0.00     0.082 A 
HETATM   28  N5  UNL     1      18.021  47.302   5.685  1.00  0.00    -0.265 N 
ATOM     29  H4  UNL     1      19.664  46.921   6.995  1.00  0.00     0.189 HD
HETATM   30  C14 UNL     1      17.795  46.065   5.075  1.00  0.00     0.116 A 
HETATM   31  C18 UNL     1      17.237  48.435   5.389  1.00  0.00     0.073 A 
HETATM   32  C15 UNL     1      16.798  45.915   4.192  1.00  0.00     0.019 A 
HETATM   33  C16 UNL     1      15.947  47.052   3.904  1.00  0.00     0.004 A 
HETATM   34  C17 UNL     1      16.150  48.253   4.477  1.00  0.00     0.032 A 
ENDBRANCH   1  19
TORSDOF 5
ENDMDL
MODEL 4
REMARK minimizedAffinity -6.68360043
REMARK CNNscore 0.370945096
REMARK CNNaffinity 5.95373344
REMARK  5 active torsions:
REMARK  status: ('A' for Active; 'I' for Inactive)
REMARK    1  A    between atoms: C5_6  and  C6_7 
REMARK    2  A    between atoms: C6_7  and  O1_8 
REMARK    3  A    between atoms: O1_8  and  C7_9 
REMARK    4  A    between atoms: C10_12  and  N1_13 
REMARK    5  A    between atoms: N1_13  and  C11_14 
ROOT
HETATM    1  N1  UNL     1      13.452  56.668   3.881  1.00  0.00    -0.342 N 
HETATM    2  H8  UNL     1      12.882  56.973   4.655  1.00  0.00     0.167 HD
ENDROOT
BRANCH   1   3
HETATM    3  C10 UNL     1      14.407  55.693   4.225  1.00  0.00     0.035 A 
HETATM    4  C9  UNL     1      14.094  54.488   4.866  1.00  0.00     0.032 A 
HETATM    5  C8  UNL     1      15.090  53.569   5.214  1.00  0.00     0.041 A 
HETATM    6  C7  UNL     1      16.425  53.858   4.951  1.00  0.00     0.091 A 
HETATM    7  C21 UNL     1      16.763  55.050   4.312  1.00  0.00     0.069 A 
HETATM    8  C20 UNL     1      15.761  55.963   3.963  1.00  0.00     0.056 A 
HETATM    9 CL1  UNL     1      18.403  55.443   3.944  1.00  0.00    -0.081 Cl
BRANCH   6  10
HETATM   10  O1  UNL     1      17.368  52.922   5.282  1.00  0.00    -0.345 OA
BRANCH  10  11
HETATM   11  C6  UNL     1      16.812  51.600   5.280  1.00  0.00     0.214 C 
BRANCH  11  12
HETATM   12  C5  UNL     1      17.698  50.665   6.067  1.00  0.00    -0.031 A 
HETATM   13  C4  UNL     1      17.573  49.273   5.920  1.00  0.00     0.009 A 
HETATM   14  C3  UNL     1      18.390  48.403   6.645  1.00  0.00     0.004 A 
HETATM   15  C2  UNL     1      19.340  48.915   7.527  1.00  0.00     0.042 A 
HETATM   16  C1  UNL     1      19.463  50.291   7.676  1.00  0.00     0.117 A 
HETATM   17  F1  UNL     1      20.375  50.783   8.524  1.00  0.00    -0.206 F 
HETATM   18  C22 UNL     1      18.655  51.167   6.959  1.00  0.00     0.051 A 
ENDBRANCH  11  12
ENDBRANCH  10  11
ENDBRANCH   6  10
ENDBRANCH   1   3
BRANCH   1  19
HETATM   19  C11 UNL     1      13.338  57.516   2.772  1.00  0.00     0.123 A 
HETATM   20  N2  UNL     1      13.375  57.054   1.486  1.00  0.00    -0.338 N 
HETATM   21  C12 UNL     1      13.330  57.925   0.431  1.00  0.00     0.183 A 
ATOM     22  H2  UNL     1      13.438  56.051   1.310  1.00  0.00     0.168 HD
HETATM   23  N3  UNL     1      13.246  59.273   0.424  1.00  0.00    -0.337 N 
HETATM   24  C13 UNL     1      13.187  59.760   1.683  1.00  0.00     0.137 A 
ATOM     25  H3  UNL     1      13.230  59.847  -0.420  1.00  0.00     0.168 HD
HETATM   26  N4  UNL     1      13.097  61.046   2.008  1.00  0.00    -0.278 N 
HETATM   27  C19 UNL     1      13.223  58.918   2.826  1.00  0.00     0.082 A 
HETATM   28  N5  UNL     1      13.045  61.058   3.360  1.00  0.00    -0.265 N 
ATOM     29  H4  UNL     1      13.073  61.848   1.377  1.00  0.00     0.189 HD
HETATM   30  C14 UNL     1      12.955  62.197   4.165  1.00  0.00     0.116 A 
HETATM   31  C18 UNL     1      13.087  59.759   3.907  1.00  0.00     0.073 A 
HETATM   32  C15 UNL     1      12.886  62.083   5.499  1.00  0.00     0.019 A 
HETATM   33  C16 UNL     1      12.880  60.757   6.084  1.00  0.00     0.004 A 
HETATM   34  C17 UNL     1      12.970  59.647   5.328  1.00  0.00     0.032 A 
ENDBRANCH   1  19
TORSDOF 5
ENDMDL
MODEL 5
REMARK minimizedAffinity -7.26288795
REMARK CNNscore 0.341813326
REMARK CNNaffinity 5.74202776
REMARK  5 active torsions:
REMARK  status: ('A' for Active; 'I' for Inactive)
REMARK    1  A    between atoms: C5_6  and  C6_7 
REMARK    2  A    between atoms: C6_7  and  O1_8 
REMARK    3  A    between atoms: O1_8  and  C7_9 
REMARK    4  A    between atoms: C10_12  and  N1_13 
REMARK    5  A    between atoms: N1_13  and  C11_14 
ROOT
HETATM    1  N1  UNL     1      16.379  51.521   5.524  1.00  0.00    -0.342 N 
HETATM    2  H8  UNL     1      15.957  50.847   4.903  1.00  0.00     0.167 HD
ENDROOT
BRANCH   1   3
HETATM    3  C10 UNL     1      16.057  52.857   5.218  1.00  0.00     0.035 A 
HETATM    4  C9  UNL     1      14.757  53.373   5.254  1.00  0.00     0.032 A 
HETATM    5  C8  UNL     1      14.491  54.703   4.908  1.00  0.00     0.041 A 
HETATM    6  C7  UNL     1      15.527  55.531   4.488  1.00  0.00     0.091 A 
HETATM    7  C21 UNL     1      16.831  55.042   4.444  1.00  0.00     0.069 A 
HETATM    8  C20 UNL     1      17.089  53.712   4.796  1.00  0.00     0.056 A 
HETATM    9 CL1  UNL     1      18.152  56.037   3.952  1.00  0.00    -0.081 Cl
BRANCH   6  10
HETATM   10  O1  UNL     1      15.231  56.833   4.183  1.00  0.00    -0.345 OA
BRANCH  10  11
HETATM   11  C6  UNL     1      13.837  56.995   3.886  1.00  0.00     0.214 C 
BRANCH  11  12
HETATM   12  C5  UNL     1      13.492  58.462   3.813  1.00  0.00    -0.031 A 
HETATM   13  C4  UNL     1      13.442  59.121   2.572  1.00  0.00     0.009 A 
HETATM   14  C3  UNL     1      13.123  60.479   2.497  1.00  0.00     0.004 A 
HETATM   15  C2  UNL     1      12.852  61.194   3.663  1.00  0.00     0.042 A 
HETATM   16  C1  UNL     1      12.904  60.545   4.891  1.00  0.00     0.117 A 
HETATM   17  F1  UNL     1      12.645  61.233   6.010  1.00  0.00    -0.206 F 
HETATM   18  C22 UNL     1      13.220  59.193   4.977  1.00  0.00     0.051 A 
ENDBRANCH  11  12
ENDBRANCH  10  11
ENDBRANCH   6  10
ENDBRANCH   1   3
BRANCH   1  19
HETATM   19  C11 UNL     1      17.395  50.958   6.306  1.00  0.00     0.123 A 
HETATM   20  N2  UNL     1      18.112  51.686   7.215  1.00  0.00    -0.338 N 
HETATM   21  C12 UNL     1      19.143  51.113   7.909  1.00  0.00     0.183 A 
ATOM     22  H2  UNL     1      17.876  52.665   7.378  1.00  0.00     0.168 HD
HETATM   23  N3  UNL     1      19.625  49.852   7.859  1.00  0.00    -0.337 N 
HETATM   24  C13 UNL     1      18.924  49.101   6.982  1.00  0.00     0.137 A 
ATOM     25  H3  UNL     1      20.414  49.513   8.410  1.00  0.00     0.168 HD
HETATM   26  N4  UNL     1      19.152  47.819   6.711  1.00  0.00    -0.278 N 
HETATM   27  C19 UNL     1      17.838  49.624   6.232  1.00  0.00     0.082 A 
HETATM   28  N5  UNL     1      18.204  47.484   5.804  1.00  0.00    -0.265 N 
ATOM     29  H4  UNL     1      19.881  47.221   7.100  1.00  0.00     0.189 HD
HETATM   30  C14 UNL     1      18.049  46.229   5.211  1.00  0.00     0.116 A 
HETATM   31  C18 UNL     1      17.349  48.563   5.504  1.00  0.00     0.073 A 
HETATM   32  C15 UNL     1      17.054  46.007   4.340  1.00  0.00     0.019 A 
HETATM   33  C16 UNL     1      16.132  47.086   4.048  1.00  0.00     0.004 A 
HETATM   34  C17 UNL     1      16.266  48.304   4.606  1.00  0.00     0.032 A 
ENDBRANCH   1  19
TORSDOF 5
ENDMDL
MODEL 6
REMARK minimizedAffinity -6.93997002
REMARK CNNscore 0.32180509
REMARK CNNaffinity 5.51976538
REMARK  5 active torsions:
REMARK  status: ('A' for Active; 'I' for Inactive)
REMARK    1  A    between atoms: C5_6  and  C6_7 
REMARK    2  A    between atoms: C6_7  and  O1_8 
REMARK    3  A    between atoms: O1_8  and  C7_9 
REMARK    4  A    between atoms: C10_12  and  N1_13 
REMARK    5  A    between atoms: N1_13  and  C11_14 
ROOT
HETATM    1  N1  UNL     1       3.711  65.107  -4.526  1.00  0.00    -0.342 N 
HETATM    2  H8  UNL     1       4.330  64.332  -4.342  1.00  0.00     0.167 HD
ENDROOT
BRANCH   1   3
HETATM    3  C10 UNL     1       2.551  65.111  -3.728  1.00  0.00     0.035 A 
HETATM    4  C9  UNL     1       2.531  65.494  -2.382  1.00  0.00     0.032 A 
HETATM    5  C8  UNL     1       1.353  65.447  -1.629  1.00  0.00     0.041 A 
HETATM    6  C7  UNL     1       0.176  64.983  -2.207  1.00  0.00     0.091 A 
HETATM    7  C21 UNL     1       0.169  64.597  -3.547  1.00  0.00     0.069 A 
HETATM    8  C20 UNL     1       1.350  64.651  -4.295  1.00  0.00     0.056 A 
HETATM    9 CL1  UNL     1      -1.271  64.037  -4.316  1.00  0.00    -0.081 Cl
BRANCH   6  10
HETATM   10  O1  UNL     1      -0.961  64.976  -1.446  1.00  0.00    -0.345 OA
BRANCH  10  11
HETATM   11  C6  UNL     1      -1.608  66.257  -1.464  1.00  0.00     0.214 C 
BRANCH  11  12
HETATM   12  C5  UNL     1      -3.058  66.109  -1.073  1.00  0.00    -0.031 A 
HETATM   13  C4  UNL     1      -3.883  65.185  -1.737  1.00  0.00     0.009 A 
HETATM   14  C3  UNL     1      -5.226  65.043  -1.380  1.00  0.00     0.004 A 
HETATM   15  C2  UNL     1      -5.759  65.825  -0.357  1.00  0.00     0.042 A 
HETATM   16  C1  UNL     1      -4.946  66.743   0.297  1.00  0.00     0.117 A 
HETATM   17  F1  UNL     1      -5.459  67.495   1.279  1.00  0.00    -0.206 F 
HETATM   18  C22 UNL     1      -3.607  66.892  -0.049  1.00  0.00     0.051 A 
ENDBRANCH  11  12
ENDBRANCH  10  11
ENDBRANCH   6  10
ENDBRANCH   1   3
BRANCH   1  19
HETATM   19  C11 UNL     1       4.031  65.770  -5.717  1.00  0.00     0.123 A 
HETATM   20  N2  UNL     1       3.212  66.712  -6.277  1.00  0.00    -0.338 N 
HETATM   21  C12 UNL     1       3.530  67.285  -7.478  1.00  0.00     0.183 A 
ATOM     22  H2  UNL     1       2.357  66.989  -5.795  1.00  0.00     0.168 HD
HETATM   23  N3  UNL     1       4.595  67.078  -8.282  1.00  0.00    -0.337 N 
HETATM   24  C13 UNL     1       5.435  66.165  -7.746  1.00  0.00     0.137 A 
ATOM     25  H3  UNL     1       4.745  67.547  -9.176  1.00  0.00     0.168 HD
HETATM   26  N4  UNL     1       6.572  65.748  -8.294  1.00  0.00    -0.278 N 
HETATM   27  C19 UNL     1       5.175  65.533  -6.501  1.00  0.00     0.082 A 
HETATM   28  N5  UNL     1       7.081  64.863  -7.405  1.00  0.00    -0.265 N 
ATOM     29  H4  UNL     1       6.973  66.033  -9.188  1.00  0.00     0.189 HD
HETATM   30  C14 UNL     1       8.273  64.151  -7.553  1.00  0.00     0.116 A 
HETATM   31  C18 UNL     1       6.264  64.724  -6.265  1.00  0.00     0.073 A 
HETATM   32  C15 UNL     1       8.690  63.315  -6.590  1.00  0.00     0.019 A 
HETATM   33  C16 UNL     1       7.892  63.189  -5.386  1.00  0.00     0.004 A 
HETATM   34  C17 UNL     1       6.738  63.863  -5.226  1.00  0.00     0.032 A 
ENDBRANCH   1  19
TORSDOF 5
ENDMDL
MODEL 7
REMARK minimizedAffinity -6.59290791
REMARK CNNscore 0.319375992
REMARK CNNaffinity 5.8121109
REMARK  5 active torsions:
REMARK  status: ('A' for Active; 'I' for Inactive)
REMARK    1  A    between atoms: C5_6  and  C6_7 
REMARK    2  A    between atoms: C6_7  and  O1_8 
REMARK    3  A    between atoms: O1_8  and  C7_9 
REMARK    4  A    between atoms: C10_12  and  N1_13 
REMARK    5  A    between atoms: N1_13  and  C11_14 
ROOT
HETATM    1  N1  UNL     1      12.660  50.080  -3.239  1.00  0.00    -0.342 N 
HETATM    2  H8  UNL     1      12.193  49.724  -4.060  1.00  0.00     0.167 HD
ENDROOT
BRANCH   1   3
HETATM    3  C10 UNL     1      12.728  51.485  -3.187  1.00  0.00     0.035 A 
HETATM    4  C9  UNL     1      13.348  52.198  -2.154  1.00  0.00     0.032 A 
HETATM    5  C8  UNL     1      13.357  53.597  -2.137  1.00  0.00     0.041 A 
HETATM    6  C7  UNL     1      12.714  54.308  -3.145  1.00  0.00     0.091 A 
HETATM    7  C21 UNL     1      12.090  53.622  -4.186  1.00  0.00     0.069 A 
HETATM    8  C20 UNL     1      12.089  52.223  -4.198  1.00  0.00     0.056 A 
HETATM    9 CL1  UNL     1      11.298  54.460  -5.471  1.00  0.00    -0.081 Cl
BRANCH   6  10
HETATM   10  O1  UNL     1      12.767  55.675  -3.108  1.00  0.00    -0.345 OA
BRANCH  10  11
HETATM   11  C6  UNL     1      11.569  56.229  -2.544  1.00  0.00     0.214 C 
BRANCH  11  12
HETATM   12  C5  UNL     1      11.059  57.350  -3.416  1.00  0.00    -0.031 A 
HETATM   13  C4  UNL     1      11.926  58.371  -3.841  1.00  0.00     0.009 A 
HETATM   14  C3  UNL     1      11.460  59.412  -4.648  1.00  0.00     0.004 A 
HETATM   15  C2  UNL     1      10.122  59.445  -5.037  1.00  0.00     0.042 A 
HETATM   16  C1  UNL     1       9.262  58.438  -4.614  1.00  0.00     0.117 A 
HETATM   17  F1  UNL     1       7.977  58.470  -4.987  1.00  0.00    -0.206 F 
HETATM   18  C22 UNL     1       9.715  57.396  -3.811  1.00  0.00     0.051 A 
ENDBRANCH  11  12
ENDBRANCH  10  11
ENDBRANCH   6  10
ENDBRANCH   1   3
BRANCH   1  19
HETATM   19  C11 UNL     1      13.366  49.082  -2.556  1.00  0.00     0.123 A 
HETATM   20  N2  UNL     1      14.726  48.963  -2.629  1.00  0.00    -0.338 N 
HETATM   21  C12 UNL     1      15.369  47.931  -2.001  1.00  0.00     0.183 A 
ATOM     22  H2  UNL     1      15.266  49.649  -3.156  1.00  0.00     0.168 HD
HETATM   23  N3  UNL     1      14.867  46.922  -1.257  1.00  0.00    -0.337 N 
HETATM   24  C13 UNL     1      13.524  47.023  -1.149  1.00  0.00     0.137 A 
ATOM     25  H3  UNL     1      15.427  46.182  -0.833  1.00  0.00     0.168 HD
HETATM   26  N4  UNL     1      12.739  46.184  -0.480  1.00  0.00    -0.278 N 
HETATM   27  C19 UNL     1      12.789  48.069  -1.768  1.00  0.00     0.082 A 
HETATM   28  N5  UNL     1      11.490  46.686  -0.629  1.00  0.00    -0.265 N 
ATOM     29  H4  UNL     1      13.017  45.347   0.033  1.00  0.00     0.189 HD
HETATM   30  C14 UNL     1      10.320  46.133  -0.104  1.00  0.00     0.116 A 
HETATM   31  C18 UNL     1      11.480  47.871  -1.392  1.00  0.00     0.073 A 
HETATM   32  C15 UNL     1       9.137  46.734  -0.298  1.00  0.00     0.019 A 
HETATM   33  C16 UNL     1       9.104  47.979  -1.039  1.00  0.00     0.004 A 
HETATM   34  C17 UNL     1      10.219  48.526  -1.557  1.00  0.00     0.032 A 
ENDBRANCH   1  19
TORSDOF 5
ENDMDL
MODEL 8
REMARK minimizedAffinity -7.55412292
REMARK CNNscore 0.296830833
REMARK CNNaffinity 5.73133802
REMARK  5 active torsions:
REMARK  status: ('A' for Active; 'I' for Inactive)
REMARK    1  A    between atoms: C5_6  and  C6_7 
REMARK    2  A    between atoms: C6_7  and  O1_8 
REMARK    3  A    between atoms: O1_8  and  C7_9 
REMARK    4  A    between atoms: C10_12  and  N1_13 
REMARK    5  A    between atoms: N1_13  and  C11_14 
ROOT
HETATM    1  N1  UNL     1      13.390  57.794  -0.429  1.00  0.00    -0.342 N 
HETATM    2  H8  UNL     1      14.307  57.624  -0.812  1.00  0.00     0.167 HD
ENDROOT
BRANCH   1   3
HETATM    3  C10 UNL     1      13.372  57.922   0.973  1.00  0.00     0.035 A 
HETATM    4  C9  UNL     1      13.261  59.147   1.642  1.00  0.00     0.032 A 
HETATM    5  C8  UNL     1      13.282  59.218   3.039  1.00  0.00     0.041 A 
HETATM    6  C7  UNL     1      13.449  58.059   3.791  1.00  0.00     0.091 A 
HETATM    7  C21 UNL     1      13.561  56.827   3.149  1.00  0.00     0.069 A 
HETATM    8  C20 UNL     1      13.535  56.764   1.751  1.00  0.00     0.056 A 
HETATM    9 CL1  UNL     1      13.747  55.360   4.039  1.00  0.00    -0.081 Cl
BRANCH   6  10
HETATM   10  O1  UNL     1      13.438  58.166   5.156  1.00  0.00    -0.345 OA
BRANCH  10  11
HETATM   11  C6  UNL     1      13.223  59.523   5.571  1.00  0.00     0.214 C 
BRANCH  11  12
HETATM   12  C5  UNL     1      12.435  59.551   6.857  1.00  0.00    -0.031 A 
HETATM   13  C4  UNL     1      11.235  60.279   6.941  1.00  0.00     0.009 A 
HETATM   14  C3  UNL     1      10.501  60.309   8.128  1.00  0.00     0.004 A 
HETATM   15  C2  UNL     1      10.958  59.613   9.246  1.00  0.00     0.042 A 
HETATM   16  C1  UNL     1      12.146  58.896   9.167  1.00  0.00     0.117 A 
HETATM   17  F1  UNL     1      12.586  58.228  10.241  1.00  0.00    -0.206 F 
HETATM   18  C22 UNL     1      12.886  58.858   7.989  1.00  0.00     0.051 A 
ENDBRANCH  11  12
ENDBRANCH  10  11
ENDBRANCH   6  10
ENDBRANCH   1   3
BRANCH   1  19
HETATM   19  C11 UNL     1      12.372  57.546  -1.359  1.00  0.00     0.123 A 
HETATM   20  N2  UNL     1      11.376  58.446  -1.617  1.00  0.00    -0.338 N 
HETATM   21  C12 UNL     1      10.363  58.135  -2.482  1.00  0.00     0.183 A 
ATOM     22  H2  UNL     1      11.389  59.358  -1.160  1.00  0.00     0.168 HD
HETATM   23  N3  UNL     1      10.145  57.007  -3.191  1.00  0.00    -0.337 N 
HETATM   24  C13 UNL     1      11.125  56.102  -2.973  1.00  0.00     0.137 A 
ATOM     25  H3  UNL     1       9.347  56.857  -3.809  1.00  0.00     0.168 HD
HETATM   26  N4  UNL     1      11.197  54.895  -3.526  1.00  0.00    -0.278 N 
HETATM   27  C19 UNL     1      12.211  56.356  -2.094  1.00  0.00     0.082 A 
HETATM   28  N5  UNL     1      12.341  54.360  -3.039  1.00  0.00    -0.265 N 
ATOM     29  H4  UNL     1      10.536  54.468  -4.175  1.00  0.00     0.189 HD
HETATM   30  C14 UNL     1      12.837  53.088  -3.334  1.00  0.00     0.116 A 
HETATM   31  C18 UNL     1      13.017  55.243  -2.175  1.00  0.00     0.073 A 
HETATM   32  C15 UNL     1      13.999  52.672  -2.809  1.00  0.00     0.019 A 
HETATM   33  C16 UNL     1      14.738  53.579  -1.953  1.00  0.00     0.004 A 
HETATM   34  C17 UNL     1      14.276  54.807  -1.653  1.00  0.00     0.032 A 
ENDBRANCH   1  19
TORSDOF 5
ENDMDL
MODEL 9
REMARK minimizedAffinity -7.48105669
REMARK CNNscore 0.262347221
REMARK CNNaffinity 5.81591606
REMARK  5 active torsions:
REMARK  status: ('A' for Active; 'I' for Inactive)
REMARK    1  A    between atoms: C5_6  and  C6_7 
REMARK    2  A    between atoms: C6_7  and  O1_8 
REMARK    3  A    between atoms: O1_8  and  C7_9 
REMARK    4  A    between atoms: C10_12  and  N1_13 
REMARK    5  A    between atoms: N1_13  and  C11_14 
ROOT
HETATM    1  N1  UNL     1      13.145  57.956  -0.830  1.00  0.00    -0.342 N 
HETATM    2  H8  UNL     1      13.997  58.240  -1.288  1.00  0.00     0.167 HD
ENDROOT
BRANCH   1   3
HETATM    3  C10 UNL     1      13.292  57.712   0.548  1.00  0.00     0.035 A 
HETATM    4  C9  UNL     1      13.475  56.438   1.100  1.00  0.00     0.032 A 
HETATM    5  C8  UNL     1      13.582  56.252   2.482  1.00  0.00     0.041 A 
HETATM    6  C7  UNL     1      13.475  57.341   3.341  1.00  0.00     0.091 A 
HETATM    7  C21 UNL     1      13.294  58.620   2.817  1.00  0.00     0.069 A 
HETATM    8  C20 UNL     1      13.191  58.799   1.433  1.00  0.00     0.056 A 
HETATM    9 CL1  UNL     1      13.178  60.005   3.840  1.00  0.00    -0.081 Cl
BRANCH   6  10
HETATM   10  O1  UNL     1      13.612  57.122   4.685  1.00  0.00    -0.345 OA
BRANCH  10  11
HETATM   11  C6  UNL     1      14.994  57.035   5.061  1.00  0.00     0.214 C 
BRANCH  11  12
HETATM   12  C5  UNL     1      15.437  55.592   5.067  1.00  0.00    -0.031 A 
HETATM   13  C4  UNL     1      14.525  54.569   5.376  1.00  0.00     0.009 A 
HETATM   14  C3  UNL     1      14.929  53.231   5.383  1.00  0.00     0.004 A 
HETATM   15  C2  UNL     1      16.250  52.903   5.083  1.00  0.00     0.042 A 
HETATM   16  C1  UNL     1      17.154  53.914   4.781  1.00  0.00     0.117 A 
HETATM   17  F1  UNL     1      18.424  53.599   4.494  1.00  0.00    -0.206 F 
HETATM   18  C22 UNL     1      16.763  55.249   4.770  1.00  0.00     0.051 A 
ENDBRANCH  11  12
ENDBRANCH  10  11
ENDBRANCH   6  10
ENDBRANCH   1   3
BRANCH   1  19
HETATM   19  C11 UNL     1      12.149  57.591  -1.745  1.00  0.00     0.123 A 
HETATM   20  N2  UNL     1      11.115  58.422  -2.076  1.00  0.00    -0.338 N 
HETATM   21  C12 UNL     1      10.125  58.000  -2.921  1.00  0.00     0.183 A 
ATOM     22  H2  UNL     1      11.081  59.366  -1.690  1.00  0.00     0.168 HD
HETATM   23  N3  UNL     1       9.966  56.812  -3.544  1.00  0.00    -0.337 N 
HETATM   24  C13 UNL     1      10.985  55.974  -3.252  1.00  0.00     0.137 A 
ATOM     25  H3  UNL     1       9.181  56.579  -4.154  1.00  0.00     0.168 HD
HETATM   26  N4  UNL     1      11.118  54.733  -3.712  1.00  0.00    -0.278 N 
HETATM   27  C19 UNL     1      12.050  56.344  -2.388  1.00  0.00     0.082 A 
HETATM   28  N5  UNL     1      12.280  54.290  -3.180  1.00  0.00    -0.265 N 
ATOM     29  H4  UNL     1      10.483  54.228  -4.331  1.00  0.00     0.189 HD
HETATM   30  C14 UNL     1      12.838  53.024  -3.374  1.00  0.00     0.116 A 
HETATM   31  C18 UNL     1      12.907  55.267  -2.380  1.00  0.00     0.073 A 
HETATM   32  C15 UNL     1      14.012  52.704  -2.812  1.00  0.00     0.019 A 
HETATM   33  C16 UNL     1      14.700  53.706  -2.023  1.00  0.00     0.004 A 
HETATM   34  C17 UNL     1      14.179  54.930  -1.820  1.00  0.00     0.032 A 
ENDBRANCH   1  19
TORSDOF 5
ENDMDL
