MODEL 1
REMARK minimizedAffinity -7.69420242
REMARK CNNscore 0.842545271
REMARK CNNaffinity 5.96904802
REMARK  3 active torsions:
REMARK  status: ('A' for Active; 'I' for Inactive)
REMARK    1  A    between atoms: C4_5  and  C5_6 
REMARK    2  A    between atoms: N2_9  and  C6_10 
REMARK    3  A    between atoms: C12_16  and  C13_17 
ROOT
HETATM    1  C5  UNL     1      17.226  52.118   5.422  1.00  0.00     0.038 C 
HETATM    2  N1  UNL     1      16.684  50.961   5.658  1.00  0.00    -0.301 N 
ATOM      3  H1  UNL     1      15.691  50.733   5.601  1.00  0.00     0.187 HD
HETATM    4  N2  UNL     1      17.695  50.106   5.998  1.00  0.00    -0.283 N 
HETATM    5  C12 UNL     1      18.988  50.776   6.140  1.00  0.00     0.147 C 
HETATM    6  C23 UNL     1      18.726  52.148   5.517  1.00  0.00     0.091 C 
ENDROOT
BRANCH   5   7
HETATM    7  C13 UNL     1      19.453  50.916   7.583  1.00  0.00    -0.032 A 
HETATM    8  C14 UNL     1      20.148  49.859   8.187  1.00  0.00     0.010 A 
HETATM    9  C15 UNL     1      20.610  49.968   9.502  1.00  0.00     0.013 A 
HETATM   10  C16 UNL     1      20.396  51.139  10.244  1.00  0.00    -0.026 A 
HETATM   11  C17 UNL     1      20.853  51.263  11.566  1.00  0.00     0.012 A 
HETATM   12  C21 UNL     1      19.703  52.215   9.647  1.00  0.00    -0.025 A 
HETATM   13  C18 UNL     1      20.628  52.434  12.291  1.00  0.00     0.001 A 
HETATM   14  C19 UNL     1      19.944  53.495  11.703  1.00  0.00     0.001 A 
HETATM   15  C20 UNL     1      19.485  53.387  10.390  1.00  0.00     0.012 A 
HETATM   16  C22 UNL     1      19.245  52.091   8.325  1.00  0.00     0.021 A 
ENDBRANCH   5   7
BRANCH   4  17
HETATM   17  C6  UNL     1      17.459  48.740   6.144  1.00  0.00     0.051 A 
HETATM   18  C7  UNL     1      16.151  48.226   6.108  1.00  0.00     0.031 A 
HETATM   19  C8  UNL     1      15.887  46.860   6.251  1.00  0.00     0.002 A 
HETATM   20  C9  UNL     1      16.934  45.966   6.437  1.00  0.00     0.000 A 
HETATM   21  C10 UNL     1      18.240  46.441   6.477  1.00  0.00     0.002 A 
HETATM   22  C11 UNL     1      18.496  47.811   6.330  1.00  0.00     0.031 A 
ENDBRANCH   4  17
BRANCH   1  23
HETATM   23  C4  UNL     1      16.441  53.319   5.056  1.00  0.00    -0.012 A 
HETATM   24  C3  UNL     1      17.048  54.449   4.495  1.00  0.00     0.015 A 
HETATM   25  C2  UNL     1      16.276  55.568   4.165  1.00  0.00     0.020 A 
HETATM   26  C1  UNL     1      14.901  55.556   4.395  1.00  0.00     0.011 A 
HETATM   27 BR1  UNL     1      13.862  57.070   3.946  1.00  0.00    -0.051 Br
HETATM   28  C25 UNL     1      14.287  54.436   4.951  1.00  0.00     0.020 A 
HETATM   29  C24 UNL     1      15.058  53.318   5.281  1.00  0.00     0.015 A 
ENDBRANCH   1  23
TORSDOF 3
ENDMDL
MODEL 2
REMARK minimizedAffinity -7.81731224
REMARK CNNscore 0.828203619
REMARK CNNaffinity 5.99515295
REMARK  3 active torsions:
REMARK  status: ('A' for Active; 'I' for Inactive)
REMARK    1  A    between atoms: C4_5  and  C5_6 
REMARK    2  A    between atoms: N2_9  and  C6_10 
REMARK    3  A    between atoms: C12_16  and  C13_17 
ROOT
HETATM    1  C5  UNL     1      17.154  52.244   5.406  1.00  0.00     0.038 C 
HETATM    2  N1  UNL     1      16.664  51.073   5.680  1.00  0.00    -0.301 N 
ATOM      3  H1  UNL     1      15.679  50.806   5.656  1.00  0.00     0.187 HD
HETATM    4  N2  UNL     1      17.716  50.264   6.006  1.00  0.00    -0.283 N 
HETATM    5  C12 UNL     1      18.987  50.985   6.097  1.00  0.00     0.147 C 
HETATM    6  C23 UNL     1      18.653  52.334   5.456  1.00  0.00     0.091 C 
ENDROOT
BRANCH   5   7
HETATM    7  C13 UNL     1      19.487  51.173   7.522  1.00  0.00    -0.032 A 
HETATM    8  C14 UNL     1      19.077  52.296   8.253  1.00  0.00     0.010 A 
HETATM    9  C15 UNL     1      19.499  52.482   9.573  1.00  0.00     0.013 A 
HETATM   10  C16 UNL     1      20.337  51.548  10.198  1.00  0.00    -0.026 A 
HETATM   11  C17 UNL     1      20.771  51.721  11.522  1.00  0.00     0.012 A 
HETATM   12  C21 UNL     1      20.755  50.408   9.477  1.00  0.00    -0.025 A 
HETATM   13  C18 UNL     1      21.607  50.783  12.128  1.00  0.00     0.001 A 
HETATM   14  C19 UNL     1      22.020  49.659  11.417  1.00  0.00     0.001 A 
HETATM   15  C20 UNL     1      21.596  49.472  10.100  1.00  0.00     0.012 A 
HETATM   16  C22 UNL     1      20.322  50.233   8.152  1.00  0.00     0.021 A 
ENDBRANCH   5   7
BRANCH   4  17
HETATM   17  C6  UNL     1      17.539  48.893   6.185  1.00  0.00     0.051 A 
HETATM   18  C7  UNL     1      18.611  48.073   6.578  1.00  0.00     0.031 A 
HETATM   19  C8  UNL     1      18.460  46.694   6.765  1.00  0.00     0.002 A 
HETATM   20  C9  UNL     1      17.222  46.097   6.560  1.00  0.00     0.000 A 
HETATM   21  C10 UNL     1      16.141  46.879   6.170  1.00  0.00     0.002 A 
HETATM   22  C11 UNL     1      16.300  48.260   5.987  1.00  0.00     0.031 A 
ENDBRANCH   4  17
BRANCH   1  23
HETATM   23  C4  UNL     1      16.312  53.406   5.041  1.00  0.00    -0.012 A 
HETATM   24  C3  UNL     1      14.928  53.406   5.257  1.00  0.00     0.015 A 
HETATM   25  C2  UNL     1      14.163  54.520   4.896  1.00  0.00     0.020 A 
HETATM   26  C1  UNL     1      14.779  55.631   4.322  1.00  0.00     0.011 A 
HETATM   27 BR1  UNL     1      13.741  57.135   3.839  1.00  0.00    -0.051 Br
HETATM   28  C25 UNL     1      16.155  55.642   4.105  1.00  0.00     0.020 A 
HETATM   29  C24 UNL     1      16.921  54.529   4.465  1.00  0.00     0.015 A 
ENDBRANCH   1  23
TORSDOF 3
ENDMDL
MODEL 3
REMARK minimizedAffinity -6.6275506
REMARK CNNscore 0.647083402
REMARK CNNaffinity 5.61522913
REMARK  3 active torsions:
REMARK  status: ('A' for Active; 'I' for Inactive)
REMARK    1  A    between atoms: C4_5  and  C5_6 
REMARK    2  A    between atoms: N2_9  and  C6_10 
REMARK    3  A    between atoms: C12_16  and  C13_17 
ROOT
HETATM    1  C5  UNL     1      17.243  53.630   5.187  1.00  0.00     0.038 C 
HETATM    2  N1  UNL     1      16.990  52.383   5.451  1.00  0.00    -0.301 N 
ATOM      3  H1  UNL     1      16.106  51.898   5.296  1.00  0.00     0.187 HD
HETATM    4  N2  UNL     1      18.131  51.845   5.976  1.00  0.00    -0.283 N 
HETATM    5  C12 UNL     1      19.178  52.840   6.215  1.00  0.00     0.147 C 
HETATM    6  C23 UNL     1      18.658  54.062   5.456  1.00  0.00     0.091 C 
ENDROOT
BRANCH   5   7
HETATM    7  C13 UNL     1      19.391  53.167   7.686  1.00  0.00    -0.032 A 
HETATM    8  C14 UNL     1      19.084  54.451   8.157  1.00  0.00     0.010 A 
HETATM    9  C15 UNL     1      19.245  54.774   9.507  1.00  0.00     0.013 A 
HETATM   10  C16 UNL     1      19.711  53.820  10.423  1.00  0.00    -0.026 A 
HETATM   11  C17 UNL     1      19.880  54.129  11.783  1.00  0.00     0.012 A 
HETATM   12  C21 UNL     1      20.020  52.520   9.966  1.00  0.00    -0.025 A 
HETATM   13  C18 UNL     1      20.348  53.168  12.680  1.00  0.00     0.001 A 
HETATM   14  C19 UNL     1      20.654  51.888  12.230  1.00  0.00     0.001 A 
HETATM   15  C20 UNL     1      20.491  51.564  10.882  1.00  0.00     0.012 A 
HETATM   16  C22 UNL     1      19.853  52.210   8.606  1.00  0.00     0.021 A 
ENDBRANCH   5   7
BRANCH   4  17
HETATM   17  C6  UNL     1      18.238  50.473   6.204  1.00  0.00     0.051 A 
HETATM   18  C7  UNL     1      17.097  49.652   6.200  1.00  0.00     0.031 A 
HETATM   19  C8  UNL     1      17.176  48.273   6.426  1.00  0.00     0.002 A 
HETATM   20  C9  UNL     1      18.409  47.678   6.664  1.00  0.00     0.000 A 
HETATM   21  C10 UNL     1      19.556  48.462   6.674  1.00  0.00     0.002 A 
HETATM   22  C11 UNL     1      19.469  49.842   6.445  1.00  0.00     0.031 A 
ENDBRANCH   4  17
BRANCH   1  23
HETATM   23  C4  UNL     1      16.232  54.560   4.635  1.00  0.00    -0.012 A 
HETATM   24  C3  UNL     1      14.861  54.351   4.828  1.00  0.00     0.015 A 
HETATM   25  C2  UNL     1      13.933  55.248   4.289  1.00  0.00     0.020 A 
HETATM   26  C1  UNL     1      14.375  56.352   3.561  1.00  0.00     0.011 A 
HETATM   27 BR1  UNL     1      13.117  57.563   2.837  1.00  0.00    -0.051 Br
HETATM   28  C25 UNL     1      15.737  56.570   3.365  1.00  0.00     0.020 A 
HETATM   29  C24 UNL     1      16.665  55.674   3.903  1.00  0.00     0.015 A 
ENDBRANCH   1  23
TORSDOF 3
ENDMDL
MODEL 4
REMARK minimizedAffinity -6.84070349
REMARK CNNscore 0.605624497
REMARK CNNaffinity 5.5578208
REMARK  3 active torsions:
REMARK  status: ('A' for Active; 'I' for Inactive)
REMARK    1  A    between atoms: C4_5  and  C5_6 
REMARK    2  A    between atoms: N2_9  and  C6_10 
REMARK    3  A    between atoms: C12_16  and  C13_17 
ROOT
HETATM    1  C5  UNL     1      14.162  59.116   2.398  1.00  0.00     0.038 C 
HETATM    2  N1  UNL     1      14.888  58.298   3.099  1.00  0.00    -0.301 N 
ATOM      3  H1  UNL     1      15.691  58.544   3.678  1.00  0.00     0.187 HD
HETATM    4  N2  UNL     1      14.371  57.046   2.916  1.00  0.00    -0.283 N 
HETATM    5  C12 UNL     1      13.313  57.005   1.905  1.00  0.00     0.147 C 
HETATM    6  C23 UNL     1      12.994  58.486   1.693  1.00  0.00     0.091 C 
ENDROOT
BRANCH   5   7
HETATM    7  C13 UNL     1      13.737  56.350   0.598  1.00  0.00    -0.032 A 
HETATM    8  C14 UNL     1      15.094  56.331   0.246  1.00  0.00     0.010 A 
HETATM    9  C15 UNL     1      15.516  55.715  -0.935  1.00  0.00     0.013 A 
HETATM   10  C16 UNL     1      14.595  55.096  -1.791  1.00  0.00    -0.026 A 
HETATM   11  C17 UNL     1      15.004  54.473  -2.982  1.00  0.00     0.012 A 
HETATM   12  C21 UNL     1      13.225  55.101  -1.449  1.00  0.00    -0.025 A 
HETATM   13  C18 UNL     1      14.073  53.864  -3.825  1.00  0.00     0.001 A 
HETATM   14  C19 UNL     1      12.723  53.870  -3.487  1.00  0.00     0.001 A 
HETATM   15  C20 UNL     1      12.301  54.483  -2.307  1.00  0.00     0.012 A 
HETATM   16  C22 UNL     1      12.815  55.723  -0.258  1.00  0.00     0.021 A 
ENDBRANCH   5   7
BRANCH   4  17
HETATM   17  C6  UNL     1      14.823  55.966   3.673  1.00  0.00     0.051 A 
HETATM   18  C7  UNL     1      13.918  55.147   4.370  1.00  0.00     0.031 A 
HETATM   19  C8  UNL     1      14.344  54.056   5.137  1.00  0.00     0.002 A 
HETATM   20  C9  UNL     1      15.698  53.759   5.227  1.00  0.00     0.000 A 
HETATM   21  C10 UNL     1      16.619  54.549   4.551  1.00  0.00     0.002 A 
HETATM   22  C11 UNL     1      16.184  55.638   3.783  1.00  0.00     0.031 A 
ENDBRANCH   4  17
BRANCH   1  23
HETATM   23  C4  UNL     1      14.437  60.569   2.313  1.00  0.00    -0.012 A 
HETATM   24  C3  UNL     1      15.147  61.119   1.239  1.00  0.00     0.015 A 
HETATM   25  C2  UNL     1      15.392  62.496   1.192  1.00  0.00     0.020 A 
HETATM   26  C1  UNL     1      14.926  63.320   2.216  1.00  0.00     0.011 A 
HETATM   27 BR1  UNL     1      15.256  65.179   2.147  1.00  0.00    -0.051 Br
HETATM   28  C25 UNL     1      14.216  62.783   3.287  1.00  0.00     0.020 A 
HETATM   29  C24 UNL     1      13.971  61.407   3.335  1.00  0.00     0.015 A 
ENDBRANCH   1  23
TORSDOF 3
ENDMDL
MODEL 5
REMARK minimizedAffinity -6.98328829
REMARK CNNscore 0.590675116
REMARK CNNaffinity 5.76799393
REMARK  3 active torsions:
REMARK  status: ('A' for Active; 'I' for Inactive)
REMARK    1  A    between atoms: C4_5  and  C5_6 
REMARK    2  A    between atoms: N2_9  and  C6_10 
REMARK    3  A    between atoms: C12_16  and  C13_17 
ROOT
HETATM    1  C5  UNL     1      13.325  57.067   0.074  1.00  0.00     0.038 C 
HETATM    2  N1  UNL     1      12.171  57.123  -0.519  1.00  0.00    -0.301 N 
ATOM      3  H1  UNL     1      11.277  57.355  -0.085  1.00  0.00     0.187 HD
HETATM    4  N2  UNL     1      12.380  56.812  -1.833  1.00  0.00    -0.283 N 
HETATM    5  C12 UNL     1      13.749  56.375  -2.108  1.00  0.00     0.147 C 
HETATM    6  C23 UNL     1      14.490  56.765  -0.828  1.00  0.00     0.091 C 
ENDROOT
BRANCH   5   7
HETATM    7  C13 UNL     1      13.877  54.882  -2.374  1.00  0.00    -0.032 A 
HETATM    8  C14 UNL     1      15.087  54.372  -2.866  1.00  0.00     0.010 A 
HETATM    9  C15 UNL     1      15.243  53.002  -3.095  1.00  0.00     0.013 A 
HETATM   10  C16 UNL     1      14.198  52.106  -2.833  1.00  0.00    -0.026 A 
HETATM   11  C17 UNL     1      14.339  50.727  -3.060  1.00  0.00     0.012 A 
HETATM   12  C21 UNL     1      12.975  52.603  -2.332  1.00  0.00    -0.025 A 
HETATM   13  C18 UNL     1      13.286  49.849  -2.796  1.00  0.00     0.001 A 
HETATM   14  C19 UNL     1      12.081  50.339  -2.303  1.00  0.00     0.001 A 
HETATM   15  C20 UNL     1      11.925  51.706  -2.071  1.00  0.00     0.012 A 
HETATM   16  C22 UNL     1      12.832  53.982  -2.105  1.00  0.00     0.021 A 
ENDBRANCH   5   7
BRANCH   4  17
HETATM   17  C6  UNL     1      11.360  56.953  -2.774  1.00  0.00     0.051 A 
HETATM   18  C7  UNL     1      10.701  58.183  -2.942  1.00  0.00     0.031 A 
HETATM   19  C8  UNL     1       9.675  58.352  -3.879  1.00  0.00     0.002 A 
HETATM   20  C9  UNL     1       9.280  57.285  -4.675  1.00  0.00     0.000 A 
HETATM   21  C10 UNL     1       9.911  56.055  -4.535  1.00  0.00     0.002 A 
HETATM   22  C11 UNL     1      10.939  55.894  -3.596  1.00  0.00     0.031 A 
ENDBRANCH   4  17
BRANCH   1  23
HETATM   23  C4  UNL     1      13.501  57.308   1.525  1.00  0.00    -0.012 A 
HETATM   24  C3  UNL     1      13.833  56.272   2.406  1.00  0.00     0.015 A 
HETATM   25  C2  UNL     1      13.987  56.535   3.771  1.00  0.00     0.020 A 
HETATM   26  C1  UNL     1      13.813  57.831   4.253  1.00  0.00     0.011 A 
HETATM   27 BR1  UNL     1      14.025  58.182   6.098  1.00  0.00    -0.051 Br
HETATM   28  C25 UNL     1      13.484  58.870   3.385  1.00  0.00     0.020 A 
HETATM   29  C24 UNL     1      13.329  58.608   2.021  1.00  0.00     0.015 A 
ENDBRANCH   1  23
TORSDOF 3
ENDMDL
MODEL 6
REMARK minimizedAffinity -7.30051327
REMARK CNNscore 0.574176192
REMARK CNNaffinity 5.16036654
REMARK  3 active torsions:
REMARK  status: ('A' for Active; 'I' for Inactive)
REMARK    1  A    between atoms: C4_5  and  C5_6 
REMARK    2  A    between atoms: N2_9  and  C6_10 
REMARK    3  A    between atoms: C12_16  and  C13_17 
ROOT
HETATM    1  C5  UNL     1       4.727  65.061  -5.051  1.00  0.00     0.038 C 
HETATM    2  N1  UNL     1       4.693  65.102  -6.349  1.00  0.00    -0.301 N 
ATOM      3  H1  UNL     1       3.862  65.203  -6.932  1.00  0.00     0.187 HD
HETATM    4  N2  UNL     1       5.982  64.983  -6.788  1.00  0.00    -0.283 N 
HETATM    5  C12 UNL     1       6.931  64.697  -5.711  1.00  0.00     0.147 C 
HETATM    6  C23 UNL     1       6.104  64.974  -4.454  1.00  0.00     0.091 C 
ENDROOT
BRANCH   5   7
HETATM    7  C13 UNL     1       7.451  63.267  -5.712  1.00  0.00    -0.032 A 
HETATM    8  C14 UNL     1       6.605  62.227  -5.303  1.00  0.00     0.010 A 
HETATM    9  C15 UNL     1       7.045  60.900  -5.318  1.00  0.00     0.013 A 
HETATM   10  C16 UNL     1       8.340  60.578  -5.749  1.00  0.00    -0.026 A 
HETATM   11  C17 UNL     1       8.798  59.251  -5.768  1.00  0.00     0.012 A 
HETATM   12  C21 UNL     1       9.203  61.614  -6.170  1.00  0.00    -0.025 A 
HETATM   13  C18 UNL     1      10.092  58.948  -6.197  1.00  0.00     0.001 A 
HETATM   14  C19 UNL     1      10.942  59.969  -6.611  1.00  0.00     0.001 A 
HETATM   15  C20 UNL     1      10.502  61.293  -6.599  1.00  0.00     0.012 A 
HETATM   16  C22 UNL     1       8.746  62.942  -6.150  1.00  0.00     0.021 A 
ENDBRANCH   5   7
BRANCH   4  17
HETATM   17  C6  UNL     1       6.301  65.164  -8.133  1.00  0.00     0.051 A 
HETATM   18  C7  UNL     1       7.511  65.773  -8.511  1.00  0.00     0.031 A 
HETATM   19  C8  UNL     1       7.856  65.967  -9.854  1.00  0.00     0.002 A 
HETATM   20  C9  UNL     1       6.990  65.554 -10.859  1.00  0.00     0.000 A 
HETATM   21  C10 UNL     1       5.786  64.948 -10.519  1.00  0.00     0.002 A 
HETATM   22  C11 UNL     1       5.449  64.756  -9.173  1.00  0.00     0.031 A 
ENDBRANCH   4  17
BRANCH   1  23
HETATM   23  C4  UNL     1       3.511  65.124  -4.209  1.00  0.00    -0.012 A 
HETATM   24  C3  UNL     1       3.584  65.073  -2.811  1.00  0.00     0.015 A 
HETATM   25  C2  UNL     1       2.414  65.131  -2.046  1.00  0.00     0.020 A 
HETATM   26  C1  UNL     1       1.176  65.241  -2.677  1.00  0.00     0.011 A 
HETATM   27 BR1  UNL     1      -0.402  65.321  -1.639  1.00  0.00    -0.051 Br
HETATM   28  C25 UNL     1       1.093  65.294  -4.066  1.00  0.00     0.020 A 
HETATM   29  C24 UNL     1       2.261  65.236  -4.832  1.00  0.00     0.015 A 
ENDBRANCH   1  23
TORSDOF 3
ENDMDL
MODEL 7
REMARK minimizedAffinity -7.83964539
REMARK CNNscore 0.57110405
REMARK CNNaffinity 5.40281534
REMARK  3 active torsions:
REMARK  status: ('A' for Active; 'I' for Inactive)
REMARK    1  A    between atoms: C4_5  and  C5_6 
REMARK    2  A    between atoms: N2_9  and  C6_10 
REMARK    3  A    between atoms: C12_16  and  C13_17 
ROOT
HETATM    1  C5  UNL     1      13.483  58.900   5.587  1.00  0.00     0.038 C 
HETATM    2  N1  UNL     1      12.903  58.590   4.467  1.00  0.00    -0.301 N 
ATOM      3  H1  UNL     1      11.915  58.710   4.242  1.00  0.00     0.187 HD
HETATM    4  N2  UNL     1      13.865  58.073   3.646  1.00  0.00    -0.283 N 
HETATM    5  C12 UNL     1      15.153  57.890   4.317  1.00  0.00     0.147 C 
HETATM    6  C23 UNL     1      14.969  58.676   5.617  1.00  0.00     0.091 C 
ENDROOT
BRANCH   5   7
HETATM    7  C13 UNL     1      15.493  56.435   4.609  1.00  0.00    -0.032 A 
HETATM    8  C14 UNL     1      14.473  55.554   4.993  1.00  0.00     0.010 A 
HETATM    9  C15 UNL     1      14.749  54.206   5.242  1.00  0.00     0.013 A 
HETATM   10  C16 UNL     1      16.051  53.704   5.108  1.00  0.00    -0.026 A 
HETATM   11  C17 UNL     1      16.346  52.353   5.356  1.00  0.00     0.012 A 
HETATM   12  C21 UNL     1      17.089  54.577   4.716  1.00  0.00    -0.025 A 
HETATM   13  C18 UNL     1      17.648  51.870   5.220  1.00  0.00     0.001 A 
HETATM   14  C19 UNL     1      18.671  52.731   4.835  1.00  0.00     0.001 A 
HETATM   15  C20 UNL     1      18.395  54.075   4.584  1.00  0.00     0.012 A 
HETATM   16  C22 UNL     1      16.796  55.929   4.468  1.00  0.00     0.021 A 
ENDBRANCH   5   7
BRANCH   4  17
HETATM   17  C6  UNL     1      13.595  57.804   2.305  1.00  0.00     0.051 A 
HETATM   18  C7  UNL     1      13.683  56.494   1.801  1.00  0.00     0.031 A 
HETATM   19  C8  UNL     1      13.417  56.196   0.460  1.00  0.00     0.002 A 
HETATM   20  C9  UNL     1      13.056  57.210  -0.418  1.00  0.00     0.000 A 
HETATM   21  C10 UNL     1      12.960  58.516   0.048  1.00  0.00     0.002 A 
HETATM   22  C11 UNL     1      13.226  58.806   1.393  1.00  0.00     0.031 A 
ENDBRANCH   4  17
BRANCH   1  23
HETATM   23  C4  UNL     1      12.752  59.459   6.748  1.00  0.00    -0.012 A 
HETATM   24  C3  UNL     1      12.985  59.002   8.050  1.00  0.00     0.015 A 
HETATM   25  C2  UNL     1      12.275  59.550   9.123  1.00  0.00     0.020 A 
HETATM   26  C1  UNL     1      11.334  60.554   8.894  1.00  0.00     0.011 A 
HETATM   27 BR1  UNL     1      10.379  61.293  10.347  1.00  0.00    -0.051 Br
HETATM   28  C25 UNL     1      11.097  61.017   7.602  1.00  0.00     0.020 A 
HETATM   29  C24 UNL     1      11.806  60.470   6.529  1.00  0.00     0.015 A 
ENDBRANCH   1  23
TORSDOF 3
ENDMDL
MODEL 8
REMARK minimizedAffinity -6.98587513
REMARK CNNscore 0.569298565
REMARK CNNaffinity 5.3905201
REMARK  3 active torsions:
REMARK  status: ('A' for Active; 'I' for Inactive)
REMARK    1  A    between atoms: C4_5  and  C5_6 
REMARK    2  A    between atoms: N2_9  and  C6_10 
REMARK    3  A    between atoms: C12_16  and  C13_17 
ROOT
HETATM    1  C5  UNL     1      15.812  54.624   4.475  1.00  0.00     0.038 C 
HETATM    2  N1  UNL     1      16.115  55.177   3.339  1.00  0.00    -0.301 N 
ATOM      3  H1  UNL     1      16.993  55.076   2.830  1.00  0.00     0.187 HD
HETATM    4  N2  UNL     1      15.034  55.920   2.955  1.00  0.00    -0.283 N 
HETATM    5  C12 UNL     1      13.988  55.983   3.977  1.00  0.00     0.147 C 
HETATM    6  C23 UNL     1      14.415  54.893   4.962  1.00  0.00     0.091 C 
ENDROOT
BRANCH   5   7
HETATM    7  C13 UNL     1      13.890  57.333   4.673  1.00  0.00    -0.032 A 
HETATM    8  C14 UNL     1      14.417  57.481   5.964  1.00  0.00     0.010 A 
HETATM    9  C15 UNL     1      14.365  58.715   6.619  1.00  0.00     0.013 A 
HETATM   10  C16 UNL     1      13.792  59.834   5.999  1.00  0.00    -0.026 A 
HETATM   11  C17 UNL     1      13.731  61.080   6.645  1.00  0.00     0.012 A 
HETATM   12  C21 UNL     1      13.262  59.703   4.697  1.00  0.00    -0.025 A 
HETATM   13  C18 UNL     1      13.154  62.183   6.014  1.00  0.00     0.001 A 
HETATM   14  C19 UNL     1      12.631  62.054   4.731  1.00  0.00     0.001 A 
HETATM   15  C20 UNL     1      12.684  60.823   4.075  1.00  0.00     0.012 A 
HETATM   16  C22 UNL     1      13.322  58.457   4.050  1.00  0.00     0.021 A 
ENDBRANCH   5   7
BRANCH   4  17
HETATM   17  C6  UNL     1      14.978  56.502   1.689  1.00  0.00     0.051 A 
HETATM   18  C7  UNL     1      13.821  56.394   0.897  1.00  0.00     0.031 A 
HETATM   19  C8  UNL     1      13.738  56.968  -0.376  1.00  0.00     0.002 A 
HETATM   20  C9  UNL     1      14.820  57.669  -0.894  1.00  0.00     0.000 A 
HETATM   21  C10 UNL     1      15.979  57.793  -0.137  1.00  0.00     0.002 A 
HETATM   22  C11 UNL     1      16.054  57.217   1.138  1.00  0.00     0.031 A 
ENDBRANCH   4  17
BRANCH   1  23
HETATM   23  C4  UNL     1      16.752  53.765   5.232  1.00  0.00    -0.012 A 
HETATM   24  C3  UNL     1      16.674  52.368   5.179  1.00  0.00     0.015 A 
HETATM   25  C2  UNL     1      17.575  51.588   5.910  1.00  0.00     0.020 A 
HETATM   26  C1  UNL     1      18.555  52.203   6.689  1.00  0.00     0.011 A 
HETATM   27 BR1  UNL     1      19.773  51.144   7.672  1.00  0.00    -0.051 Br
HETATM   28  C25 UNL     1      18.642  53.592   6.747  1.00  0.00     0.020 A 
HETATM   29  C24 UNL     1      17.741  54.372   6.017  1.00  0.00     0.015 A 
ENDBRANCH   1  23
TORSDOF 3
ENDMDL
MODEL 9
REMARK minimizedAffinity -6.88994503
REMARK CNNscore 0.513876438
REMARK CNNaffinity 5.35391998
REMARK  3 active torsions:
REMARK  status: ('A' for Active; 'I' for Inactive)
REMARK    1  A    between atoms: C4_5  and  C5_6 
REMARK    2  A    between atoms: N2_9  and  C6_10 
REMARK    3  A    between atoms: C12_16  and  C13_17 
ROOT
HETATM    1  C5  UNL     1      12.780  53.853  -2.602  1.00  0.00     0.038 C 
HETATM    2  N1  UNL     1      12.688  54.451  -1.452  1.00  0.00    -0.301 N 
ATOM      3  H1  UNL     1      12.491  54.010  -0.553  1.00  0.00     0.187 HD
HETATM    4  N2  UNL     1      12.904  55.782  -1.674  1.00  0.00    -0.283 N 
HETATM    5  C12 UNL     1      13.004  56.118  -3.095  1.00  0.00     0.147 C 
HETATM    6  C23 UNL     1      13.148  54.745  -3.755  1.00  0.00     0.091 C 
ENDROOT
BRANCH   5   7
HETATM    7  C13 UNL     1      11.790  56.855  -3.640  1.00  0.00    -0.032 A 
HETATM    8  C14 UNL     1      10.516  56.293  -3.483  1.00  0.00     0.010 A 
HETATM    9  C15 UNL     1       9.379  56.958  -3.950  1.00  0.00     0.013 A 
HETATM   10  C16 UNL     1       9.485  58.207  -4.580  1.00  0.00    -0.026 A 
HETATM   11  C17 UNL     1       8.353  58.888  -5.056  1.00  0.00     0.012 A 
HETATM   12  C21 UNL     1      10.761  58.790  -4.741  1.00  0.00    -0.025 A 
HETATM   13  C18 UNL     1       8.477  60.128  -5.683  1.00  0.00     0.001 A 
HETATM   14  C19 UNL     1       9.735  60.703  -5.842  1.00  0.00     0.001 A 
HETATM   15  C20 UNL     1      10.870  60.039  -5.374  1.00  0.00     0.012 A 
HETATM   16  C22 UNL     1      11.895  58.109  -4.265  1.00  0.00     0.021 A 
ENDBRANCH   5   7
BRANCH   4  17
HETATM   17  C6  UNL     1      13.043  56.673  -0.610  1.00  0.00     0.051 A 
HETATM   18  C7  UNL     1      12.866  58.055  -0.800  1.00  0.00     0.031 A 
HETATM   19  C8  UNL     1      12.999  58.971   0.249  1.00  0.00     0.002 A 
HETATM   20  C9  UNL     1      13.317  58.522   1.525  1.00  0.00     0.000 A 
HETATM   21  C10 UNL     1      13.499  57.163   1.747  1.00  0.00     0.002 A 
HETATM   22  C11 UNL     1      13.362  56.252   0.691  1.00  0.00     0.031 A 
ENDBRANCH   4  17
BRANCH   1  23
HETATM   23  C4  UNL     1      12.569  52.397  -2.774  1.00  0.00    -0.012 A 
HETATM   24  C3  UNL     1      11.591  51.896  -3.642  1.00  0.00     0.015 A 
HETATM   25  C2  UNL     1      11.416  50.515  -3.778  1.00  0.00     0.020 A 
HETATM   26  C1  UNL     1      12.218  49.638  -3.049  1.00  0.00     0.011 A 
HETATM   27 BR1  UNL     1      11.981  47.772  -3.238  1.00  0.00    -0.051 Br
HETATM   28  C25 UNL     1      13.195  50.126  -2.185  1.00  0.00     0.020 A 
HETATM   29  C24 UNL     1      13.371  51.506  -2.049  1.00  0.00     0.015 A 
ENDBRANCH   1  23
TORSDOF 3
ENDMDL
