MODEL 1
REMARK minimizedAffinity -7.30763817
REMARK  9 active torsions:
REMARK  status: ('A' for Active; 'I' for Inactive)
REMARK    1  A    between atoms: O1_1  and  C1_2 
REMARK    2  A    between atoms: C1_2  and  C2_3 
REMARK    3  A    between atoms: C3_6  and  C4_7 
REMARK    4  A    between atoms: C5_8  and  C6_9 
REMARK    5  A    between atoms: C9_16  and  N4_17 
REMARK    6  A    between atoms: N4_17  and  C10_18 
REMARK    7  A    between atoms: C13_21  and  O2_22 
REMARK    8  A    between atoms: O2_22  and  C14_23 
REMARK    9  A    between atoms: C14_23  and  C15_24 
ROOT
HETATM    1  C6  UNL     1      18.458  36.158  17.736  1.00  0.00     0.077 A 
HETATM    2  C7  UNL     1      19.243  37.289  17.845  1.00  0.00     0.113 A 
HETATM    3  N2  UNL     1      19.454  37.947  19.000  1.00  0.00    -0.361 N 
ATOM      4  H2  UNL     1      20.041  38.778  19.055  1.00  0.00     0.166 HD
HETATM    5  C8  UNL     1      18.837  37.433  20.070  1.00  0.00     0.181 A 
HETATM    6  N3  UNL     1      18.053  36.345  20.083  1.00  0.00    -0.337 N 
ATOM      7  H3  UNL     1      17.614  36.019  20.943  1.00  0.00     0.168 HD
HETATM    8  C9  UNL     1      17.866  35.698  18.914  1.00  0.00     0.127 A 
ENDROOT
BRANCH   8   9
HETATM    9  N4  UNL     1      17.037  34.546  18.863  1.00  0.00    -0.341 N 
HETATM   10  H6  UNL     1      17.414  33.827  19.474  1.00  0.00     0.167 HD
BRANCH   9  11
HETATM   11  C10 UNL     1      15.636  34.455  18.729  1.00  0.00     0.035 A 
HETATM   12  C11 UNL     1      15.057  34.730  17.481  1.00  0.00     0.032 A 
HETATM   13  C12 UNL     1      13.667  34.715  17.298  1.00  0.00     0.041 A 
HETATM   14  C13 UNL     1      12.818  34.447  18.372  1.00  0.00     0.091 A 
HETATM   15  C21 UNL     1      13.389  34.199  19.629  1.00  0.00     0.069 A 
HETATM   16 CL1  UNL     1      12.400  33.887  21.015  1.00  0.00    -0.081 Cl
HETATM   17  C22 UNL     1      14.778  34.216  19.804  1.00  0.00     0.056 A 
BRANCH  14  18
HETATM   18  O2  UNL     1      11.452  34.405  18.293  1.00  0.00    -0.345 OA
BRANCH  18  19
HETATM   19  C14 UNL     1      10.767  35.598  17.914  1.00  0.00     0.214 C 
BRANCH  19  20
HETATM   20  C15 UNL     1       9.476  35.708  18.693  1.00  0.00    -0.031 A 
HETATM   21  C16 UNL     1       8.433  36.542  18.255  1.00  0.00     0.009 A 
HETATM   22  C17 UNL     1       7.229  36.614  18.961  1.00  0.00     0.004 A 
HETATM   23  C18 UNL     1       7.049  35.843  20.108  1.00  0.00     0.042 A 
HETATM   24  C19 UNL     1       8.073  35.008  20.536  1.00  0.00     0.117 A 
HETATM   25  F1  UNL     1       7.898  34.260  21.635  1.00  0.00    -0.206 F 
HETATM   26  C20 UNL     1       9.276  34.928  19.841  1.00  0.00     0.051 A 
ENDBRANCH  19  20
ENDBRANCH  18  19
ENDBRANCH  14  18
ENDBRANCH   9  11
ENDBRANCH   8   9
BRANCH   1  27
HETATM   27  C5  UNL     1      18.279  35.520  16.468  1.00  0.00    -0.055 C 
HETATM   28  C4  UNL     1      18.155  34.993  15.396  1.00  0.00    -0.043 C 
BRANCH  28  29
HETATM   29  C3  UNL     1      18.034  34.383  14.116  1.00  0.00     0.094 A 
HETATM   30  N1  UNL     1      18.368  33.053  13.992  1.00  0.00    -0.345 N 
HETATM   31  C2  UNL     1      18.176  32.673  12.741  1.00  0.00     0.075 A 
ATOM     32  H1  UNL     1      18.709  32.456  14.746  1.00  0.00     0.167 HD
HETATM   33  S1  UNL     1      17.603  33.892  11.672  1.00  0.00    -0.084 SA
HETATM   34  C23 UNL     1      17.599  35.012  12.972  1.00  0.00     0.090 A 
BRANCH  31  35
HETATM   35  C1  UNL     1      18.443  31.287  12.238  1.00  0.00     0.229 C 
BRANCH  35  36
HETATM   36  O1  UNL     1      17.478  30.403  12.814  1.00  0.00    -0.394 OA
HETATM   37  H1  UNL     1      17.157  30.848  13.624  1.00  0.00     0.209 HD
ENDBRANCH  35  36
ENDBRANCH  31  35
ENDBRANCH  28  29
ENDBRANCH   1  27
TORSDOF 9
ENDMDL
MODEL 2
REMARK minimizedAffinity -7.28971004
REMARK  9 active torsions:
REMARK  status: ('A' for Active; 'I' for Inactive)
REMARK    1  A    between atoms: O1_1  and  C1_2 
REMARK    2  A    between atoms: C1_2  and  C2_3 
REMARK    3  A    between atoms: C3_6  and  C4_7 
REMARK    4  A    between atoms: C5_8  and  C6_9 
REMARK    5  A    between atoms: C9_16  and  N4_17 
REMARK    6  A    between atoms: N4_17  and  C10_18 
REMARK    7  A    between atoms: C13_21  and  O2_22 
REMARK    8  A    between atoms: O2_22  and  C14_23 
REMARK    9  A    between atoms: C14_23  and  C15_24 
ROOT
HETATM    1  C6  UNL     1      16.380  35.429  16.015  1.00  0.00     0.077 A 
HETATM    2  C7  UNL     1      17.357  34.471  16.202  1.00  0.00     0.113 A 
HETATM    3  N2  UNL     1      18.574  34.521  15.631  1.00  0.00    -0.361 N 
ATOM      4  H2  UNL     1      19.281  33.803  15.787  1.00  0.00     0.166 HD
HETATM    5  C8  UNL     1      18.792  35.580  14.842  1.00  0.00     0.181 A 
HETATM    6  N3  UNL     1      17.920  36.567  14.587  1.00  0.00    -0.337 N 
ATOM      7  H3  UNL     1      18.162  37.340  13.968  1.00  0.00     0.168 HD
HETATM    8  C9  UNL     1      16.710  36.498  15.180  1.00  0.00     0.127 A 
ENDROOT
BRANCH   8   9
HETATM    9  N4  UNL     1      15.741  37.508  14.939  1.00  0.00    -0.341 N 
HETATM   10  H6  UNL     1      14.822  37.172  15.212  1.00  0.00     0.167 HD
BRANCH   9  11
HETATM   11  C10 UNL     1      15.858  38.908  15.061  1.00  0.00     0.035 A 
HETATM   12  C11 UNL     1      16.458  39.630  14.018  1.00  0.00     0.032 A 
HETATM   13  C12 UNL     1      16.656  41.015  14.104  1.00  0.00     0.041 A 
HETATM   14  C13 UNL     1      16.279  41.711  15.253  1.00  0.00     0.091 A 
HETATM   15  C21 UNL     1      15.703  40.991  16.310  1.00  0.00     0.069 A 
HETATM   16 CL1  UNL     1      15.235  41.780  17.779  1.00  0.00    -0.081 Cl
HETATM   17  C22 UNL     1      15.508  39.608  16.218  1.00  0.00     0.056 A 
BRANCH  14  18
HETATM   18  O2  UNL     1      16.426  43.060  15.430  1.00  0.00    -0.345 OA
BRANCH  18  19
HETATM   19  C14 UNL     1      17.724  43.553  15.757  1.00  0.00     0.214 C 
BRANCH  19  20
HETATM   20  C15 UNL     1      17.606  44.607  16.835  1.00  0.00    -0.031 A 
HETATM   21  C16 UNL     1      17.835  44.292  18.186  1.00  0.00     0.009 A 
HETATM   22  C17 UNL     1      17.758  45.278  19.174  1.00  0.00     0.004 A 
HETATM   23  C18 UNL     1      17.461  46.593  18.822  1.00  0.00     0.042 A 
HETATM   24  C19 UNL     1      17.246  46.910  17.487  1.00  0.00     0.117 A 
HETATM   25  F1  UNL     1      16.969  48.176  17.146  1.00  0.00    -0.206 F 
HETATM   26  C20 UNL     1      17.320  45.937  16.494  1.00  0.00     0.051 A 
ENDBRANCH  19  20
ENDBRANCH  18  19
ENDBRANCH  14  18
ENDBRANCH   9  11
ENDBRANCH   8   9
BRANCH   1  27
HETATM   27  C5  UNL     1      15.106  35.298  16.654  1.00  0.00    -0.055 C 
HETATM   28  C4  UNL     1      14.039  35.217  17.199  1.00  0.00    -0.043 C 
BRANCH  28  29
HETATM   29  C3  UNL     1      12.779  35.148  17.858  1.00  0.00     0.094 A 
HETATM   30  N1  UNL     1      11.689  35.722  17.244  1.00  0.00    -0.345 N 
HETATM   31  C2  UNL     1      10.621  35.542  18.000  1.00  0.00     0.075 A 
ATOM     32  H1  UNL     1      11.703  36.209  16.348  1.00  0.00     0.167 HD
HETATM   33  S1  UNL     1      10.886  34.692  19.473  1.00  0.00    -0.084 SA
HETATM   34  C23 UNL     1      12.547  34.543  19.072  1.00  0.00     0.090 A 
BRANCH  31  35
HETATM   35  C1  UNL     1       9.253  36.040  17.649  1.00  0.00     0.229 C 
BRANCH  35  36
HETATM   36  O1  UNL     1       9.063  35.886  16.240  1.00  0.00    -0.394 OA
HETATM   37  H1  UNL     1       9.960  35.848  15.852  1.00  0.00     0.209 HD
ENDBRANCH  35  36
ENDBRANCH  31  35
ENDBRANCH  28  29
ENDBRANCH   1  27
TORSDOF 9
ENDMDL
MODEL 3
REMARK minimizedAffinity -7.17448902
REMARK  9 active torsions:
REMARK  status: ('A' for Active; 'I' for Inactive)
REMARK    1  A    between atoms: O1_1  and  C1_2 
REMARK    2  A    between atoms: C1_2  and  C2_3 
REMARK    3  A    between atoms: C3_6  and  C4_7 
REMARK    4  A    between atoms: C5_8  and  C6_9 
REMARK    5  A    between atoms: C9_16  and  N4_17 
REMARK    6  A    between atoms: N4_17  and  C10_18 
REMARK    7  A    between atoms: C13_21  and  O2_22 
REMARK    8  A    between atoms: O2_22  and  C14_23 
REMARK    9  A    between atoms: C14_23  and  C15_24 
ROOT
HETATM    1  C6  UNL     1      17.688  35.981  14.418  1.00  0.00     0.077 A 
HETATM    2  C7  UNL     1      18.052  35.727  13.111  1.00  0.00     0.113 A 
HETATM    3  N2  UNL     1      18.378  34.506  12.648  1.00  0.00    -0.361 N 
ATOM      4  H2  UNL     1      18.640  34.343  11.676  1.00  0.00     0.166 HD
HETATM    5  C8  UNL     1      18.332  33.522  13.553  1.00  0.00     0.181 A 
HETATM    6  N3  UNL     1      17.995  33.651  14.844  1.00  0.00    -0.337 N 
ATOM      7  H3  UNL     1      17.989  32.849  15.473  1.00  0.00     0.168 HD
HETATM    8  C9  UNL     1      17.663  34.884  15.281  1.00  0.00     0.127 A 
ENDROOT
BRANCH   8   9
HETATM    9  N4  UNL     1      17.307  35.085  16.641  1.00  0.00    -0.341 N 
HETATM   10  H6  UNL     1      17.795  35.899  17.005  1.00  0.00     0.167 HD
BRANCH   9  11
HETATM   11  C10 UNL     1      16.072  34.868  17.286  1.00  0.00     0.035 A 
HETATM   12  C11 UNL     1      14.889  35.208  16.612  1.00  0.00     0.032 A 
HETATM   13  C12 UNL     1      13.634  35.071  17.222  1.00  0.00     0.041 A 
HETATM   14  C13 UNL     1      13.534  34.612  18.535  1.00  0.00     0.091 A 
HETATM   15  C21 UNL     1      14.715  34.296  19.223  1.00  0.00     0.069 A 
HETATM   16 CL1  UNL     1      14.674  33.747  20.865  1.00  0.00    -0.081 Cl
HETATM   17  C22 UNL     1      15.965  34.435  18.609  1.00  0.00     0.056 A 
BRANCH  14  18
HETATM   18  O2  UNL     1      12.357  34.440  19.212  1.00  0.00    -0.345 OA
BRANCH  18  19
HETATM   19  C14 UNL     1      11.794  35.573  19.872  1.00  0.00     0.214 C 
BRANCH  19  20
HETATM   20  C15 UNL     1      10.287  35.525  19.760  1.00  0.00    -0.031 A 
HETATM   21  C16 UNL     1       9.537  34.575  20.474  1.00  0.00     0.009 A 
HETATM   22  C17 UNL     1       8.142  34.557  20.393  1.00  0.00     0.004 A 
HETATM   23  C18 UNL     1       7.479  35.496  19.605  1.00  0.00     0.042 A 
HETATM   24  C19 UNL     1       8.217  36.444  18.909  1.00  0.00     0.117 A 
HETATM   25  F1  UNL     1       7.581  37.354  18.157  1.00  0.00    -0.206 F 
HETATM   26  C20 UNL     1       9.607  36.472  18.981  1.00  0.00     0.051 A 
ENDBRANCH  19  20
ENDBRANCH  18  19
ENDBRANCH  14  18
ENDBRANCH   9  11
ENDBRANCH   8   9
BRANCH   1  27
HETATM   27  C5  UNL     1      17.362  37.312  14.834  1.00  0.00    -0.055 C 
HETATM   28  C4  UNL     1      17.107  38.425  15.205  1.00  0.00    -0.043 C 
BRANCH  28  29
HETATM   29  C3  UNL     1      16.818  39.738  15.673  1.00  0.00     0.094 A 
HETATM   30  N1  UNL     1      16.260  39.878  16.924  1.00  0.00    -0.345 N 
HETATM   31  C2  UNL     1      16.083  41.162  17.177  1.00  0.00     0.075 A 
ATOM     32  H1  UNL     1      16.022  39.112  17.554  1.00  0.00     0.167 HD
HETATM   33  S1  UNL     1      16.565  42.242  15.928  1.00  0.00    -0.084 SA
HETATM   34  C23 UNL     1      17.057  40.902  14.977  1.00  0.00     0.090 A 
BRANCH  31  35
HETATM   35  C1  UNL     1      15.489  41.690  18.448  1.00  0.00     0.229 C 
BRANCH  35  36
HETATM   36  O1  UNL     1      14.182  42.194  18.161  1.00  0.00    -0.394 OA
HETATM   37  H1  UNL     1      14.175  42.390  17.203  1.00  0.00     0.209 HD
ENDBRANCH  35  36
ENDBRANCH  31  35
ENDBRANCH  28  29
ENDBRANCH   1  27
TORSDOF 9
ENDMDL
MODEL 4
REMARK minimizedAffinity -7.14299583
REMARK  9 active torsions:
REMARK  status: ('A' for Active; 'I' for Inactive)
REMARK    1  A    between atoms: O1_1  and  C1_2 
REMARK    2  A    between atoms: C1_2  and  C2_3 
REMARK    3  A    between atoms: C3_6  and  C4_7 
REMARK    4  A    between atoms: C5_8  and  C6_9 
REMARK    5  A    between atoms: C9_16  and  N4_17 
REMARK    6  A    between atoms: N4_17  and  C10_18 
REMARK    7  A    between atoms: C13_21  and  O2_22 
REMARK    8  A    between atoms: O2_22  and  C14_23 
REMARK    9  A    between atoms: C14_23  and  C15_24 
ROOT
HETATM    1  C6  UNL     1      18.725  51.659   7.137  1.00  0.00     0.077 A 
HETATM    2  C7  UNL     1      19.708  51.812   8.094  1.00  0.00     0.113 A 
HETATM    3  N2  UNL     1      20.170  53.006   8.509  1.00  0.00    -0.361 N 
ATOM      4  H2  UNL     1      20.895  53.094   9.221  1.00  0.00     0.166 HD
HETATM    5  C8  UNL     1      19.611  54.070   7.921  1.00  0.00     0.181 A 
HETATM    6  N3  UNL     1      18.654  54.041   6.982  1.00  0.00    -0.337 N 
ATOM      7  H3  UNL     1      18.282  54.901   6.579  1.00  0.00     0.168 HD
HETATM    8  C9  UNL     1      18.201  52.832   6.591  1.00  0.00     0.127 A 
ENDROOT
BRANCH   8   9
HETATM    9  N4  UNL     1      17.195  52.738   5.593  1.00  0.00    -0.341 N 
HETATM   10  H6  UNL     1      16.739  51.832   5.652  1.00  0.00     0.167 HD
BRANCH   9  11
HETATM   11  C10 UNL     1      16.338  53.738   5.087  1.00  0.00     0.035 A 
HETATM   12  C11 UNL     1      14.961  53.639   5.339  1.00  0.00     0.032 A 
HETATM   13  C12 UNL     1      14.052  54.568   4.814  1.00  0.00     0.041 A 
HETATM   14  C13 UNL     1      14.499  55.609   4.000  1.00  0.00     0.091 A 
HETATM   15  C21 UNL     1      15.871  55.697   3.721  1.00  0.00     0.069 A 
HETATM   16 CL1  UNL     1      16.498  56.943   2.695  1.00  0.00    -0.081 Cl
HETATM   17  C22 UNL     1      16.773  54.766   4.248  1.00  0.00     0.056 A 
BRANCH  14  18
HETATM   18  O2  UNL     1      13.692  56.566   3.446  1.00  0.00    -0.345 OA
BRANCH  18  19
HETATM   19  C14 UNL     1      13.599  57.826   4.109  1.00  0.00     0.214 C 
BRANCH  19  20
HETATM   20  C15 UNL     1      13.313  58.910   3.094  1.00  0.00    -0.031 A 
HETATM   21  C16 UNL     1      13.198  60.255   3.483  1.00  0.00     0.009 A 
HETATM   22  C17 UNL     1      12.968  61.257   2.536  1.00  0.00     0.004 A 
HETATM   23  C18 UNL     1      12.860  60.926   1.186  1.00  0.00     0.042 A 
HETATM   24  C19 UNL     1      12.986  59.599   0.798  1.00  0.00     0.117 A 
HETATM   25  F1  UNL     1      12.891  59.281  -0.501  1.00  0.00    -0.206 F 
HETATM   26  C20 UNL     1      13.215  58.593   1.731  1.00  0.00     0.051 A 
ENDBRANCH  19  20
ENDBRANCH  18  19
ENDBRANCH  14  18
ENDBRANCH   9  11
ENDBRANCH   8   9
BRANCH   1  27
HETATM   27  C5  UNL     1      18.292  50.352   6.745  1.00  0.00    -0.055 C 
HETATM   28  C4  UNL     1      17.943  49.244   6.440  1.00  0.00    -0.043 C 
BRANCH  28  29
HETATM   29  C3  UNL     1      17.548  47.919   6.100  1.00  0.00     0.094 A 
HETATM   30  N1  UNL     1      17.648  46.941   7.064  1.00  0.00    -0.345 N 
HETATM   31  C2  UNL     1      17.224  45.794   6.561  1.00  0.00     0.075 A 
ATOM     32  H1  UNL     1      17.993  47.079   8.013  1.00  0.00     0.167 HD
HETATM   33  S1  UNL     1      16.706  45.845   4.922  1.00  0.00    -0.084 SA
HETATM   34  C23 UNL     1      17.062  47.523   4.875  1.00  0.00     0.090 A 
BRANCH  31  35
HETATM   35  C1  UNL     1      17.195  44.506   7.326  1.00  0.00     0.229 C 
BRANCH  35  36
HETATM   36  O1  UNL     1      16.020  44.491   8.140  1.00  0.00    -0.394 OA
HETATM   37  H1  UNL     1      15.762  45.427   8.257  1.00  0.00     0.209 HD
ENDBRANCH  35  36
ENDBRANCH  31  35
ENDBRANCH  28  29
ENDBRANCH   1  27
TORSDOF 9
ENDMDL
MODEL 5
REMARK minimizedAffinity -7.11844397
REMARK  9 active torsions:
REMARK  status: ('A' for Active; 'I' for Inactive)
REMARK    1  A    between atoms: O1_1  and  C1_2 
REMARK    2  A    between atoms: C1_2  and  C2_3 
REMARK    3  A    between atoms: C3_6  and  C4_7 
REMARK    4  A    between atoms: C5_8  and  C6_9 
REMARK    5  A    between atoms: C9_16  and  N4_17 
REMARK    6  A    between atoms: N4_17  and  C10_18 
REMARK    7  A    between atoms: C13_21  and  O2_22 
REMARK    8  A    between atoms: O2_22  and  C14_23 
REMARK    9  A    between atoms: C14_23  and  C15_24 
ROOT
HETATM    1  C6  UNL     1      13.358  58.032   2.441  1.00  0.00     0.077 A 
HETATM    2  C7  UNL     1      13.267  59.397   2.253  1.00  0.00     0.113 A 
HETATM    3  N2  UNL     1      13.123  60.283   3.255  1.00  0.00    -0.361 N 
ATOM      4  H2  UNL     1      13.061  61.287   3.092  1.00  0.00     0.166 HD
HETATM    5  C8  UNL     1      13.066  59.753   4.482  1.00  0.00     0.181 A 
HETATM    6  N3  UNL     1      13.142  58.448   4.783  1.00  0.00    -0.337 N 
ATOM      7  H3  UNL     1      13.086  58.123   5.748  1.00  0.00     0.168 HD
HETATM    8  C9  UNL     1      13.296  57.581   3.761  1.00  0.00     0.127 A 
ENDROOT
BRANCH   8   9
HETATM    9  N4  UNL     1      13.373  56.186   4.016  1.00  0.00    -0.341 N 
HETATM   10  H6  UNL     1      12.652  55.702   3.488  1.00  0.00     0.167 HD
BRANCH   9  11
HETATM   11  C10 UNL     1      14.506  55.377   4.244  1.00  0.00     0.035 A 
HETATM   12  C11 UNL     1      14.356  54.199   4.992  1.00  0.00     0.032 A 
HETATM   13  C12 UNL     1      15.454  53.385   5.302  1.00  0.00     0.041 A 
HETATM   14  C13 UNL     1      16.737  53.743   4.890  1.00  0.00     0.091 A 
HETATM   15  C21 UNL     1      16.897  54.934   4.165  1.00  0.00     0.069 A 
HETATM   16 CL1  UNL     1      18.462  55.461   3.644  1.00  0.00    -0.081 Cl
HETATM   17  C22 UNL     1      15.797  55.744   3.860  1.00  0.00     0.056 A 
BRANCH  14  18
HETATM   18  O2  UNL     1      17.868  53.013   5.138  1.00  0.00    -0.345 OA
BRANCH  18  19
HETATM   19  C14 UNL     1      18.144  52.648   6.490  1.00  0.00     0.214 C 
BRANCH  19  20
HETATM   20  C15 UNL     1      18.347  51.152   6.576  1.00  0.00    -0.031 A 
HETATM   21  C16 UNL     1      19.564  50.610   7.024  1.00  0.00     0.009 A 
HETATM   22  C17 UNL     1      19.735  49.227   7.134  1.00  0.00     0.004 A 
HETATM   23  C18 UNL     1      18.686  48.369   6.808  1.00  0.00     0.042 A 
HETATM   24  C19 UNL     1      17.478  48.902   6.378  1.00  0.00     0.117 A 
HETATM   25  F1  UNL     1      16.465  48.078   6.072  1.00  0.00    -0.206 F 
HETATM   26  C20 UNL     1      17.296  50.277   6.264  1.00  0.00     0.051 A 
ENDBRANCH  19  20
ENDBRANCH  18  19
ENDBRANCH  14  18
ENDBRANCH   9  11
ENDBRANCH   8   9
BRANCH   1  27
HETATM   27  C5  UNL     1      13.504  57.154   1.320  1.00  0.00    -0.055 C 
HETATM   28  C4  UNL     1      13.646  56.435   0.369  1.00  0.00    -0.043 C 
BRANCH  28  29
HETATM   29  C3  UNL     1      13.834  55.604  -0.772  1.00  0.00     0.094 A 
HETATM   30  N1  UNL     1      12.788  54.807  -1.178  1.00  0.00    -0.345 N 
HETATM   31  C2  UNL     1      13.152  54.129  -2.252  1.00  0.00     0.075 A 
ATOM     32  H1  UNL     1      11.877  54.749  -0.723  1.00  0.00     0.167 HD
HETATM   33  S1  UNL     1      14.757  54.412  -2.804  1.00  0.00    -0.084 SA
HETATM   34  C23 UNL     1      14.985  55.531  -1.523  1.00  0.00     0.090 A 
BRANCH  31  35
HETATM   35  C1  UNL     1      12.266  53.154  -2.966  1.00  0.00     0.229 C 
BRANCH  35  36
HETATM   36  O1  UNL     1      11.664  52.295  -1.995  1.00  0.00    -0.394 OA
HETATM   37  H1  UNL     1      12.245  52.330  -1.209  1.00  0.00     0.209 HD
ENDBRANCH  35  36
ENDBRANCH  31  35
ENDBRANCH  28  29
ENDBRANCH   1  27
TORSDOF 9
ENDMDL
MODEL 6
REMARK minimizedAffinity -7.11389542
REMARK  9 active torsions:
REMARK  status: ('A' for Active; 'I' for Inactive)
REMARK    1  A    between atoms: O1_1  and  C1_2 
REMARK    2  A    between atoms: C1_2  and  C2_3 
REMARK    3  A    between atoms: C3_6  and  C4_7 
REMARK    4  A    between atoms: C5_8  and  C6_9 
REMARK    5  A    between atoms: C9_16  and  N4_17 
REMARK    6  A    between atoms: N4_17  and  C10_18 
REMARK    7  A    between atoms: C13_21  and  O2_22 
REMARK    8  A    between atoms: O2_22  and  C14_23 
REMARK    9  A    between atoms: C14_23  and  C15_24 
ROOT
HETATM    1  C6  UNL     1      18.216  49.900   6.520  1.00  0.00     0.077 A 
HETATM    2  C7  UNL     1      19.235  49.589   7.399  1.00  0.00     0.113 A 
HETATM    3  N2  UNL     1      19.821  50.486   8.213  1.00  0.00    -0.361 N 
ATOM      4  H2  UNL     1      20.569  50.232   8.857  1.00  0.00     0.166 HD
HETATM    5  C8  UNL     1      19.351  51.736   8.118  1.00  0.00     0.181 A 
HETATM    6  N3  UNL     1      18.371  52.151   7.303  1.00  0.00    -0.337 N 
ATOM      7  H3  UNL     1      18.072  53.126   7.287  1.00  0.00     0.168 HD
HETATM    8  C9  UNL     1      17.793  51.230   6.504  1.00  0.00     0.127 A 
ENDROOT
BRANCH   8   9
HETATM    9  N4  UNL     1      16.757  51.612   5.611  1.00  0.00    -0.341 N 
HETATM   10  H6  UNL     1      15.987  50.951   5.678  1.00  0.00     0.167 HD
BRANCH   9  11
HETATM   11  C10 UNL     1      16.325  52.902   5.239  1.00  0.00     0.035 A 
HETATM   12  C11 UNL     1      14.958  53.208   5.323  1.00  0.00     0.032 A 
HETATM   13  C12 UNL     1      14.459  54.452   4.912  1.00  0.00     0.041 A 
HETATM   14  C13 UNL     1      15.317  55.416   4.382  1.00  0.00     0.091 A 
HETATM   15  C21 UNL     1      16.681  55.106   4.271  1.00  0.00     0.069 A 
HETATM   16 CL1  UNL     1      17.804  56.239   3.596  1.00  0.00    -0.081 Cl
HETATM   17  C22 UNL     1      17.173  53.862   4.682  1.00  0.00     0.056 A 
BRANCH  14  18
HETATM   18  O2  UNL     1      14.928  56.658   3.960  1.00  0.00    -0.345 OA
BRANCH  18  19
HETATM   19  C14 UNL     1      13.532  56.896   3.783  1.00  0.00     0.214 C 
BRANCH  19  20
HETATM   20  C15 UNL     1      13.326  58.274   3.196  1.00  0.00    -0.031 A 
HETATM   21  C16 UNL     1      13.340  59.419   4.012  1.00  0.00     0.009 A 
HETATM   22  C17 UNL     1      13.183  60.693   3.460  1.00  0.00     0.004 A 
HETATM   23  C18 UNL     1      13.020  60.839   2.083  1.00  0.00     0.042 A 
HETATM   24  C19 UNL     1      13.019  59.711   1.273  1.00  0.00     0.117 A 
HETATM   25  F1  UNL     1      12.872  59.851  -0.052  1.00  0.00    -0.206 F 
HETATM   26  C20 UNL     1      13.175  58.437   1.812  1.00  0.00     0.051 A 
ENDBRANCH  19  20
ENDBRANCH  18  19
ENDBRANCH  14  18
ENDBRANCH   9  11
ENDBRANCH   8   9
BRANCH   1  27
HETATM   27  C5  UNL     1      17.650  48.887   5.681  1.00  0.00    -0.055 C 
HETATM   28  C4  UNL     1      17.192  48.047   4.956  1.00  0.00    -0.043 C 
BRANCH  28  29
HETATM   29  C3  UNL     1      16.664  47.064   4.072  1.00  0.00     0.094 A 
HETATM   30  N1  UNL     1      17.407  45.928   3.840  1.00  0.00    -0.345 N 
HETATM   31  C2  UNL     1      16.745  45.140   3.011  1.00  0.00     0.075 A 
ATOM     32  H1  UNL     1      18.321  45.727   4.243  1.00  0.00     0.167 HD
HETATM   33  S1  UNL     1      15.222  45.735   2.474  1.00  0.00    -0.084 SA
HETATM   34  C23 UNL     1      15.453  47.145   3.423  1.00  0.00     0.090 A 
BRANCH  31  35
HETATM   35  C1  UNL     1      17.254  43.816   2.529  1.00  0.00     0.229 C 
BRANCH  35  36
HETATM   36  O1  UNL     1      16.654  43.534   1.263  1.00  0.00    -0.394 OA
HETATM   37  H1  UNL     1      15.837  44.070   1.228  1.00  0.00     0.209 HD
ENDBRANCH  35  36
ENDBRANCH  31  35
ENDBRANCH  28  29
ENDBRANCH   1  27
TORSDOF 9
ENDMDL
MODEL 7
REMARK minimizedAffinity -7.05905628
REMARK  9 active torsions:
REMARK  status: ('A' for Active; 'I' for Inactive)
REMARK    1  A    between atoms: O1_1  and  C1_2 
REMARK    2  A    between atoms: C1_2  and  C2_3 
REMARK    3  A    between atoms: C3_6  and  C4_7 
REMARK    4  A    between atoms: C5_8  and  C6_9 
REMARK    5  A    between atoms: C9_16  and  N4_17 
REMARK    6  A    between atoms: N4_17  and  C10_18 
REMARK    7  A    between atoms: C13_21  and  O2_22 
REMARK    8  A    between atoms: O2_22  and  C14_23 
REMARK    9  A    between atoms: C14_23  and  C15_24 
ROOT
HETATM    1  C6  UNL     1      18.237  49.997   6.341  1.00  0.00     0.077 A 
HETATM    2  C7  UNL     1      19.263  49.639   7.194  1.00  0.00     0.113 A 
HETATM    3  N2  UNL     1      19.789  50.462   8.120  1.00  0.00    -0.361 N 
ATOM      4  H2  UNL     1      20.543  50.173   8.742  1.00  0.00     0.166 HD
HETATM    5  C8  UNL     1      19.250  51.686   8.168  1.00  0.00     0.181 A 
HETATM    6  N3  UNL     1      18.257  52.142   7.392  1.00  0.00    -0.337 N 
ATOM      7  H3  UNL     1      17.904  53.094   7.488  1.00  0.00     0.168 HD
HETATM    8  C9  UNL     1      17.741  51.295   6.478  1.00  0.00     0.127 A 
ENDROOT
BRANCH   8   9
HETATM    9  N4  UNL     1      16.693  51.725   5.620  1.00  0.00    -0.341 N 
HETATM   10  H6  UNL     1      15.889  51.114   5.729  1.00  0.00     0.167 HD
BRANCH   9  11
HETATM   11  C10 UNL     1      16.325  53.033   5.241  1.00  0.00     0.035 A 
HETATM   12  C11 UNL     1      14.968  53.389   5.271  1.00  0.00     0.032 A 
HETATM   13  C12 UNL     1      14.533  54.653   4.850  1.00  0.00     0.041 A 
HETATM   14  C13 UNL     1      15.448  55.588   4.365  1.00  0.00     0.091 A 
HETATM   15  C21 UNL     1      16.803  55.229   4.307  1.00  0.00     0.069 A 
HETATM   16 CL1  UNL     1      17.994  56.324   3.689  1.00  0.00    -0.081 Cl
HETATM   17  C22 UNL     1      17.231  53.964   4.727  1.00  0.00     0.056 A 
BRANCH  14  18
HETATM   18  O2  UNL     1      15.122  56.847   3.937  1.00  0.00    -0.345 OA
BRANCH  18  19
HETATM   19  C14 UNL     1      13.742  57.147   3.734  1.00  0.00     0.214 C 
BRANCH  19  20
HETATM   20  C15 UNL     1      13.482  57.352   2.259  1.00  0.00    -0.031 A 
HETATM   21  C16 UNL     1      13.244  58.634   1.735  1.00  0.00     0.009 A 
HETATM   22  C17 UNL     1      13.038  58.821   0.366  1.00  0.00     0.004 A 
HETATM   23  C18 UNL     1      13.079  57.729  -0.499  1.00  0.00     0.042 A 
HETATM   24  C19 UNL     1      13.328  56.463   0.014  1.00  0.00     0.117 A 
HETATM   25  F1  UNL     1      13.376  55.412  -0.818  1.00  0.00    -0.206 F 
HETATM   26  C20 UNL     1      13.534  56.264   1.375  1.00  0.00     0.051 A 
ENDBRANCH  19  20
ENDBRANCH  18  19
ENDBRANCH  14  18
ENDBRANCH   9  11
ENDBRANCH   8   9
BRANCH   1  27
HETATM   27  C5  UNL     1      17.738  49.065   5.377  1.00  0.00    -0.055 C 
HETATM   28  C4  UNL     1      17.295  48.298   4.567  1.00  0.00    -0.043 C 
BRANCH  28  29
HETATM   29  C3  UNL     1      16.741  47.403   3.608  1.00  0.00     0.094 A 
HETATM   30  N1  UNL     1      17.445  47.172   2.447  1.00  0.00    -0.345 N 
HETATM   31  C2  UNL     1      16.778  46.310   1.701  1.00  0.00     0.075 A 
ATOM     32  H1  UNL     1      18.339  47.598   2.203  1.00  0.00     0.167 HD
HETATM   33  S1  UNL     1      15.286  45.757   2.354  1.00  0.00    -0.084 SA
HETATM   34  C23 UNL     1      15.548  46.730   3.742  1.00  0.00     0.090 A 
BRANCH  31  35
HETATM   35  C1  UNL     1      17.243  45.829   0.360  1.00  0.00     0.229 C 
BRANCH  35  36
HETATM   36  O1  UNL     1      16.437  44.713  -0.025  1.00  0.00    -0.394 OA
HETATM   37  H1  UNL     1      16.069  44.349   0.805  1.00  0.00     0.209 HD
ENDBRANCH  35  36
ENDBRANCH  31  35
ENDBRANCH  28  29
ENDBRANCH   1  27
TORSDOF 9
ENDMDL
MODEL 8
REMARK minimizedAffinity -6.96801901
REMARK  9 active torsions:
REMARK  status: ('A' for Active; 'I' for Inactive)
REMARK    1  A    between atoms: O1_1  and  C1_2 
REMARK    2  A    between atoms: C1_2  and  C2_3 
REMARK    3  A    between atoms: C3_6  and  C4_7 
REMARK    4  A    between atoms: C5_8  and  C6_9 
REMARK    5  A    between atoms: C9_16  and  N4_17 
REMARK    6  A    between atoms: N4_17  and  C10_18 
REMARK    7  A    between atoms: C13_21  and  O2_22 
REMARK    8  A    between atoms: O2_22  and  C14_23 
REMARK    9  A    between atoms: C14_23  and  C15_24 
ROOT
HETATM    1  C6  UNL     1      12.955  55.667  -1.992  1.00  0.00     0.077 A 
HETATM    2  C7  UNL     1      11.929  55.231  -2.806  1.00  0.00     0.113 A 
HETATM    3  N2  UNL     1      10.649  55.625  -2.675  1.00  0.00    -0.361 N 
ATOM      4  H2  UNL     1       9.909  55.291  -3.291  1.00  0.00     0.166 HD
HETATM    5  C8  UNL     1      10.416  56.486  -1.678  1.00  0.00     0.181 A 
HETATM    6  N3  UNL     1      11.331  56.974  -0.827  1.00  0.00    -0.337 N 
ATOM      7  H3  UNL     1      11.071  57.626  -0.087  1.00  0.00     0.168 HD
HETATM    8  C9  UNL     1      12.608  56.571  -0.987  1.00  0.00     0.127 A 
ENDROOT
BRANCH   8   9
HETATM    9  N4  UNL     1      13.620  57.047  -0.109  1.00  0.00    -0.341 N 
HETATM   10  H6  UNL     1      14.222  57.699  -0.604  1.00  0.00     0.167 HD
BRANCH   9  11
HETATM   11  C10 UNL     1      13.550  57.322   1.272  1.00  0.00     0.035 A 
HETATM   12  C11 UNL     1      13.349  58.647   1.688  1.00  0.00     0.032 A 
HETATM   13  C12 UNL     1      13.330  58.994   3.046  1.00  0.00     0.041 A 
HETATM   14  C13 UNL     1      13.538  58.022   4.025  1.00  0.00     0.091 A 
HETATM   15  C21 UNL     1      13.767  56.700   3.615  1.00  0.00     0.069 A 
HETATM   16 CL1  UNL     1      14.062  55.443   4.769  1.00  0.00    -0.081 Cl
HETATM   17  C22 UNL     1      13.785  56.360   2.257  1.00  0.00     0.056 A 
BRANCH  14  18
HETATM   18  O2  UNL     1      13.532  58.260   5.373  1.00  0.00    -0.345 OA
BRANCH  18  19
HETATM   19  C14 UNL     1      13.335  59.603   5.813  1.00  0.00     0.214 C 
BRANCH  19  20
HETATM   20  C15 UNL     1      12.495  59.603   7.070  1.00  0.00    -0.031 A 
HETATM   21  C16 UNL     1      11.264  60.280   7.120  1.00  0.00     0.009 A 
HETATM   22  C17 UNL     1      10.476  60.248   8.273  1.00  0.00     0.004 A 
HETATM   23  C18 UNL     1      10.904  59.531   9.388  1.00  0.00     0.042 A 
HETATM   24  C19 UNL     1      12.114  58.851   9.338  1.00  0.00     0.117 A 
HETATM   25  F1  UNL     1      12.524  58.154  10.408  1.00  0.00    -0.206 F 
HETATM   26  C20 UNL     1      12.908  58.875   8.195  1.00  0.00     0.051 A 
ENDBRANCH  19  20
ENDBRANCH  18  19
ENDBRANCH  14  18
ENDBRANCH   9  11
ENDBRANCH   8   9
BRANCH   1  27
HETATM   27  C5  UNL     1      14.291  55.195  -2.194  1.00  0.00    -0.055 C 
HETATM   28  C4  UNL     1      15.410  54.806  -2.391  1.00  0.00    -0.043 C 
BRANCH  28  29
HETATM   29  C3  UNL     1      16.732  54.348  -2.656  1.00  0.00     0.094 A 
HETATM   30  N1  UNL     1      17.235  53.324  -1.884  1.00  0.00    -0.345 N 
HETATM   31  C2  UNL     1      18.458  53.037  -2.291  1.00  0.00     0.075 A 
ATOM     32  H1  UNL     1      16.742  52.862  -1.120  1.00  0.00     0.167 HD
HETATM   33  S1  UNL     1      19.051  53.985  -3.598  1.00  0.00    -0.084 SA
HETATM   34  C23 UNL     1      17.564  54.840  -3.635  1.00  0.00     0.090 A 
BRANCH  31  35
HETATM   35  C1  UNL     1      19.317  51.975  -1.675  1.00  0.00     0.229 C 
BRANCH  35  36
HETATM   36  O1  UNL     1      19.281  52.133  -0.254  1.00  0.00    -0.394 OA
HETATM   37  H1  UNL     1      19.025  53.063  -0.094  1.00  0.00     0.209 HD
ENDBRANCH  35  36
ENDBRANCH  31  35
ENDBRANCH  28  29
ENDBRANCH   1  27
TORSDOF 9
ENDMDL
MODEL 9
REMARK minimizedAffinity -6.96080494
REMARK  9 active torsions:
REMARK  status: ('A' for Active; 'I' for Inactive)
REMARK    1  A    between atoms: O1_1  and  C1_2 
REMARK    2  A    between atoms: C1_2  and  C2_3 
REMARK    3  A    between atoms: C3_6  and  C4_7 
REMARK    4  A    between atoms: C5_8  and  C6_9 
REMARK    5  A    between atoms: C9_16  and  N4_17 
REMARK    6  A    between atoms: N4_17  and  C10_18 
REMARK    7  A    between atoms: C13_21  and  O2_22 
REMARK    8  A    between atoms: O2_22  and  C14_23 
REMARK    9  A    between atoms: C14_23  and  C15_24 
ROOT
HETATM    1  C6  UNL     1      16.221  40.094  15.992  1.00  0.00     0.077 A 
HETATM    2  C7  UNL     1      16.201  41.441  15.687  1.00  0.00     0.113 A 
HETATM    3  N2  UNL     1      15.920  42.407  16.580  1.00  0.00    -0.361 N 
ATOM      4  H2  UNL     1      15.915  43.396  16.332  1.00  0.00     0.166 HD
HETATM    5  C8  UNL     1      15.646  41.979  17.818  1.00  0.00     0.181 A 
HETATM    6  N3  UNL     1      15.635  40.701  18.226  1.00  0.00    -0.337 N 
ATOM      7  H3  UNL     1      15.411  40.456  19.191  1.00  0.00     0.168 HD
HETATM    8  C9  UNL     1      15.930  39.753  17.314  1.00  0.00     0.127 A 
ENDROOT
BRANCH   8   9
HETATM    9  N4  UNL     1      15.924  38.381  17.685  1.00  0.00    -0.341 N 
HETATM   10  H6  UNL     1      16.699  38.194  18.314  1.00  0.00     0.167 HD
BRANCH   9  11
HETATM   11  C10 UNL     1      14.830  37.519  17.910  1.00  0.00     0.035 A 
HETATM   12  C11 UNL     1      14.075  37.084  16.811  1.00  0.00     0.032 A 
HETATM   13  C12 UNL     1      12.942  36.275  16.974  1.00  0.00     0.041 A 
HETATM   14  C13 UNL     1      12.521  35.900  18.250  1.00  0.00     0.091 A 
HETATM   15  C21 UNL     1      13.256  36.355  19.356  1.00  0.00     0.069 A 
HETATM   16 CL1  UNL     1      12.780  35.957  20.972  1.00  0.00    -0.081 Cl
HETATM   17  C22 UNL     1      14.386  37.164  19.186  1.00  0.00     0.056 A 
BRANCH  14  18
HETATM   18  O2  UNL     1      11.434  35.111  18.512  1.00  0.00    -0.345 OA
BRANCH  18  19
HETATM   19  C14 UNL     1      10.181  35.492  17.947  1.00  0.00     0.214 C 
BRANCH  19  20
HETATM   20  C15 UNL     1       9.125  35.511  19.030  1.00  0.00    -0.031 A 
HETATM   21  C16 UNL     1       7.960  36.285  18.893  1.00  0.00     0.009 A 
HETATM   22  C17 UNL     1       6.971  36.271  19.881  1.00  0.00     0.004 A 
HETATM   23  C18 UNL     1       7.132  35.475  21.014  1.00  0.00     0.042 A 
HETATM   24  C19 UNL     1       8.276  34.700  21.145  1.00  0.00     0.117 A 
HETATM   25  F1  UNL     1       8.428  33.927  22.231  1.00  0.00    -0.206 F 
HETATM   26  C20 UNL     1       9.267  34.705  20.168  1.00  0.00     0.051 A 
ENDBRANCH  19  20
ENDBRANCH  18  19
ENDBRANCH  14  18
ENDBRANCH   9  11
ENDBRANCH   8   9
BRANCH   1  27
HETATM   27  C5  UNL     1      16.524  39.127  14.981  1.00  0.00    -0.055 C 
HETATM   28  C4  UNL     1      16.806  38.315  14.143  1.00  0.00    -0.043 C 
BRANCH  28  29
HETATM   29  C3  UNL     1      17.170  37.357  13.155  1.00  0.00     0.094 A 
HETATM   30  N1  UNL     1      16.695  36.071  13.287  1.00  0.00    -0.345 N 
HETATM   31  C2  UNL     1      17.129  35.344  12.273  1.00  0.00     0.075 A 
ATOM     32  H1  UNL     1      16.104  35.734  14.046  1.00  0.00     0.167 HD
HETATM   33  S1  UNL     1      18.125  36.167  11.137  1.00  0.00    -0.084 SA
HETATM   34  C23 UNL     1      17.962  37.606  12.057  1.00  0.00     0.090 A 
BRANCH  31  35
HETATM   35  C1  UNL     1      16.814  33.890  12.091  1.00  0.00     0.229 C 
BRANCH  35  36
HETATM   36  O1  UNL     1      17.718  33.128  12.894  1.00  0.00    -0.394 OA
HETATM   37  H1  UNL     1      18.494  33.704  13.045  1.00  0.00     0.209 HD
ENDBRANCH  35  36
ENDBRANCH  31  35
ENDBRANCH  28  29
ENDBRANCH   1  27
TORSDOF 9
ENDMDL
