MODEL 1
REMARK minimizedAffinity -10.554493
REMARK  1 active torsions:
REMARK  status: ('A' for Active; 'I' for Inactive)
REMARK    1  A    between atoms: C2_2  and  C3_3 
REMARK       I    between atoms: C3_3  and  N1_5 
ROOT
HETATM    1  C3  UNL     1       1.884   6.668   9.714  1.00  0.00     0.247 C 
HETATM    2  O1  UNL     1       2.183   5.606   9.172  1.00  0.00    -0.268 OA
HETATM    3  N1  UNL     1       1.552   6.797  11.069  1.00  0.00    -0.315 N 
HETATM    4  C4  UNL     1       1.305   5.545  11.804  1.00  0.00     0.132 C 
HETATM    5  C5  UNL     1       0.069   4.786  11.293  1.00  0.00     0.020 C 
HETATM    6  C6  UNL     1      -0.166   3.502  12.093  1.00  0.00     0.002 C 
HETATM    7  C7  UNL     1      -1.001   2.450  11.355  1.00  0.00     0.000 C 
HETATM    8  C8  UNL     1      -2.386   2.869  10.849  1.00  0.00     0.000 C 
HETATM    9  C9  UNL     1      -3.524   2.735  11.868  1.00  0.00     0.002 C 
HETATM   10  C10 UNL     1      -3.617   3.836  12.923  1.00  0.00     0.020 C 
HETATM   11  C11 UNL     1      -3.946   5.205  12.328  1.00  0.00     0.128 C 
HETATM   12  N2  UNL     1      -3.995   6.241  13.348  1.00  0.00    -0.355 N 
HETATM   13  C12 UNL     1      -2.875   6.837  13.862  1.00  0.00     0.106 A 
HETATM   14  C13 UNL     1      -3.264   7.798  14.774  1.00  0.00     0.019 A 
HETATM   15  C14 UNL     1      -4.700   7.796  14.788  1.00  0.00     0.005 A 
HETATM   16  C15 UNL     1      -5.688   8.560  15.452  1.00  0.00     0.014 A 
HETATM   17  C16 UNL     1      -7.044   8.283  15.250  1.00  0.00     0.001 A 
HETATM   18  C17 UNL     1      -7.436   7.259  14.396  1.00  0.00     0.002 A 
HETATM   19  C18 UNL     1      -6.488   6.499  13.709  1.00  0.00     0.030 A 
HETATM   20  C19 UNL     1      -5.127   6.789  13.908  1.00  0.00     0.045 A 
HETATM   21  C20 UNL     1      -2.287   8.594  15.509  1.00  0.00     0.063 A 
HETATM   22  C21 UNL     1      -2.542   9.048  16.782  1.00  0.00     0.048 A 
HETATM   23  C22 UNL     1      -1.535   9.776  17.359  1.00  0.00     0.108 A 
HETATM   24  N3  UNL     1      -0.366  10.036  16.752  1.00  0.00    -0.202 N 
ATOM     25  H3  UNL     1       0.357  10.592  17.209  1.00  0.00     0.183 HD
HETATM   26  C23 UNL     1      -0.187   9.535  15.518  1.00  0.00     0.683 A 
HETATM   27  N4  UNL     1      -1.113   8.817  14.875  1.00  0.00    -0.191 N 
ATOM     28  H4  UNL     1      -0.941   8.451  13.939  1.00  0.00     0.184 HD
HETATM   29  N5  UNL     1       1.041   9.839  14.939  1.00  0.00    -0.192 N 
HETATM   30  C24 UNL     1       1.728   9.373  13.811  1.00  0.00     0.051 A 
HETATM   31  C25 UNL     1       2.888  10.057  13.424  1.00  0.00     0.030 A 
HETATM   32  C26 UNL     1       3.610   9.678  12.294  1.00  0.00     0.004 A 
HETATM   33  C27 UNL     1       3.170   8.609  11.518  1.00  0.00     0.030 A 
HETATM   34  C28 UNL     1       1.999   7.917  11.854  1.00  0.00     0.039 A 
HETATM   35  C29 UNL     1       1.287   8.317  12.999  1.00  0.00     0.059 A 
HETATM   36  H27 UNL     1       1.574  10.386  15.597  1.00  0.00     0.184 HD
ENDROOT
BRANCH   1  37
HETATM   37  C2  UNL     1       1.734   7.916   8.900  1.00  0.00     0.064 C 
HETATM   38  C1  UNL     1       2.572   8.182   7.890  1.00  0.00     0.017 C 
ENDBRANCH   1  37
TORSDOF 1
ENDMDL
MODEL 2
REMARK minimizedAffinity -10.253952
REMARK  1 active torsions:
REMARK  status: ('A' for Active; 'I' for Inactive)
REMARK    1  A    between atoms: C2_2  and  C3_3 
REMARK       I    between atoms: C3_3  and  N1_5 
ROOT
HETATM    1  C3  UNL     1      -8.002   5.868  12.911  1.00  0.00     0.247 C 
HETATM    2  O1  UNL     1      -8.539   6.560  13.775  1.00  0.00    -0.268 OA
HETATM    3  N1  UNL     1      -6.797   5.176  13.092  1.00  0.00    -0.315 N 
HETATM    4  C4  UNL     1      -6.021   5.516  14.296  1.00  0.00     0.132 C 
HETATM    5  C5  UNL     1      -5.503   6.963  14.285  1.00  0.00     0.020 C 
HETATM    6  C6  UNL     1      -4.686   7.272  15.543  1.00  0.00     0.002 C 
HETATM    7  C7  UNL     1      -4.591   8.765  15.875  1.00  0.00     0.000 C 
HETATM    8  C8  UNL     1      -4.035   9.700  14.794  1.00  0.00     0.000 C 
HETATM    9  C9  UNL     1      -2.508   9.835  14.766  1.00  0.00     0.002 C 
HETATM   10  C10 UNL     1      -1.741   8.686  14.115  1.00  0.00     0.020 C 
HETATM   11  C11 UNL     1      -2.028   8.550  12.620  1.00  0.00     0.128 C 
HETATM   12  N2  UNL     1      -1.313   7.428  12.032  1.00  0.00    -0.355 N 
HETATM   13  C12 UNL     1      -1.740   6.132  12.136  1.00  0.00     0.106 A 
HETATM   14  C13 UNL     1      -0.866   5.321  11.439  1.00  0.00     0.019 A 
HETATM   15  C14 UNL     1       0.127   6.183  10.863  1.00  0.00     0.005 A 
HETATM   16  C15 UNL     1       1.241   5.986  10.014  1.00  0.00     0.014 A 
HETATM   17  C16 UNL     1       2.038   7.072   9.637  1.00  0.00     0.001 A 
HETATM   18  C17 UNL     1       1.744   8.354  10.088  1.00  0.00     0.002 A 
HETATM   19  C18 UNL     1       0.641   8.586  10.910  1.00  0.00     0.030 A 
HETATM   20  C19 UNL     1      -0.163   7.492  11.277  1.00  0.00     0.045 A 
HETATM   21  C20 UNL     1      -1.046   3.874  11.384  1.00  0.00     0.063 A 
HETATM   22  C21 UNL     1       0.027   3.019  11.290  1.00  0.00     0.048 A 
HETATM   23  C22 UNL     1      -0.284   1.686  11.256  1.00  0.00     0.108 A 
HETATM   24  N3  UNL     1      -1.541   1.215  11.317  1.00  0.00    -0.202 N 
ATOM     25  H3  UNL     1      -1.735   0.215  11.277  1.00  0.00     0.183 HD
HETATM   26  C23 UNL     1      -2.531   2.117  11.432  1.00  0.00     0.683 A 
HETATM   27  N4  UNL     1      -2.323   3.436  11.470  1.00  0.00    -0.191 N 
ATOM     28  H4  UNL     1      -3.100   4.090  11.561  1.00  0.00     0.184 HD
HETATM   29  N5  UNL     1      -3.809   1.571  11.488  1.00  0.00    -0.192 N 
HETATM   30  C24 UNL     1      -5.072   2.082  11.813  1.00  0.00     0.051 A 
HETATM   31  C25 UNL     1      -6.188   1.266  11.576  1.00  0.00     0.030 A 
HETATM   32  C26 UNL     1      -7.481   1.712  11.840  1.00  0.00     0.004 A 
HETATM   33  C27 UNL     1      -7.683   2.997  12.334  1.00  0.00     0.030 A 
HETATM   34  C28 UNL     1      -6.596   3.855  12.559  1.00  0.00     0.039 A 
HETATM   35  C29 UNL     1      -5.300   3.383  12.285  1.00  0.00     0.059 A 
HETATM   36  H27 UNL     1      -3.727   0.567  11.442  1.00  0.00     0.184 HD
ENDROOT
BRANCH   1  37
HETATM   37  C2  UNL     1      -8.563   5.820  11.525  1.00  0.00     0.064 C 
HETATM   38  C1  UNL     1      -9.714   6.436  11.227  1.00  0.00     0.017 C 
ENDBRANCH   1  37
TORSDOF 1
ENDMDL
MODEL 3
REMARK minimizedAffinity -9.94981098
REMARK  1 active torsions:
REMARK  status: ('A' for Active; 'I' for Inactive)
REMARK    1  A    between atoms: C2_2  and  C3_3 
REMARK       I    between atoms: C3_3  and  N1_5 
ROOT
HETATM    1  C3  UNL     1       2.519   6.559   8.846  1.00  0.00     0.247 C 
HETATM    2  O1  UNL     1       2.445   5.414   8.403  1.00  0.00    -0.268 OA
HETATM    3  N1  UNL     1       2.566   6.875  10.210  1.00  0.00    -0.315 N 
HETATM    4  C4  UNL     1       2.249   5.783  11.146  1.00  0.00     0.132 C 
HETATM    5  C5  UNL     1       0.794   5.300  11.030  1.00  0.00     0.020 C 
HETATM    6  C6  UNL     1       0.498   4.179  12.031  1.00  0.00     0.002 C 
HETATM    7  C7  UNL     1      -0.694   3.298  11.646  1.00  0.00     0.000 C 
HETATM    8  C8  UNL     1      -2.041   3.989  11.406  1.00  0.00     0.000 C 
HETATM    9  C9  UNL     1      -2.895   4.215  12.659  1.00  0.00     0.002 C 
HETATM   10  C10 UNL     1      -2.492   5.390  13.547  1.00  0.00     0.020 C 
HETATM   11  C11 UNL     1      -2.661   6.743  12.857  1.00  0.00     0.128 C 
HETATM   12  N2  UNL     1      -2.239   7.842  13.710  1.00  0.00    -0.355 N 
HETATM   13  C12 UNL     1      -0.927   8.197  13.878  1.00  0.00     0.106 A 
HETATM   14  C13 UNL     1      -0.869   9.296  14.712  1.00  0.00     0.019 A 
HETATM   15  C14 UNL     1      -2.225   9.635  15.043  1.00  0.00     0.005 A 
HETATM   16  C15 UNL     1      -2.835  10.665  15.797  1.00  0.00     0.014 A 
HETATM   17  C16 UNL     1      -4.225  10.701  15.940  1.00  0.00     0.001 A 
HETATM   18  C17 UNL     1      -5.022   9.732  15.341  1.00  0.00     0.002 A 
HETATM   19  C18 UNL     1      -4.455   8.714  14.574  1.00  0.00     0.030 A 
HETATM   20  C19 UNL     1      -3.056   8.689  14.426  1.00  0.00     0.045 A 
HETATM   21  C20 UNL     1       0.404   9.896  15.097  1.00  0.00     0.063 A 
HETATM   22  C21 UNL     1       0.572  10.503  16.320  1.00  0.00     0.048 A 
HETATM   23  C22 UNL     1       1.819  11.016  16.556  1.00  0.00     0.108 A 
HETATM   24  N3  UNL     1       2.831  10.940  15.676  1.00  0.00    -0.202 N 
ATOM     25  H3  UNL     1       3.745  11.345  15.881  1.00  0.00     0.183 HD
HETATM   26  C23 UNL     1       2.591  10.309  14.514  1.00  0.00     0.683 A 
HETATM   27  N4  UNL     1       1.405   9.781  14.196  1.00  0.00    -0.191 N 
ATOM     28  H4  UNL     1       1.261   9.307  13.305  1.00  0.00     0.184 HD
HETATM   29  N5  UNL     1       3.674  10.264  13.642  1.00  0.00    -0.192 N 
HETATM   30  C24 UNL     1       3.949   9.556  12.465  1.00  0.00     0.051 A 
HETATM   31  C25 UNL     1       5.095   9.911  11.741  1.00  0.00     0.030 A 
HETATM   32  C26 UNL     1       5.420   9.279  10.543  1.00  0.00     0.004 A 
HETATM   33  C27 UNL     1       4.589   8.284  10.037  1.00  0.00     0.030 A 
HETATM   34  C28 UNL     1       3.417   7.919  10.716  1.00  0.00     0.039 A 
HETATM   35  C29 UNL     1       3.109   8.571  11.924  1.00  0.00     0.059 A 
HETATM   36  H27 UNL     1       4.456  10.722  14.085  1.00  0.00     0.184 HD
ENDROOT
BRANCH   1  37
HETATM   37  C2  UNL     1       2.440   7.734   7.922  1.00  0.00     0.064 C 
HETATM   38  C1  UNL     1       1.966   7.599   6.676  1.00  0.00     0.017 C 
ENDBRANCH   1  37
TORSDOF 1
ENDMDL
MODEL 4
REMARK minimizedAffinity -8.81146812
REMARK  1 active torsions:
REMARK  status: ('A' for Active; 'I' for Inactive)
REMARK    1  A    between atoms: C2_2  and  C3_3 
REMARK       I    between atoms: C3_3  and  N1_5 
ROOT
HETATM    1  C3  UNL     1      -2.803  11.478  16.325  1.00  0.00     0.247 C 
HETATM    2  O1  UNL     1      -2.312  12.046  17.299  1.00  0.00    -0.268 OA
HETATM    3  N1  UNL     1      -2.515  10.157  15.953  1.00  0.00    -0.315 N 
HETATM    4  C4  UNL     1      -1.369   9.524  16.627  1.00  0.00     0.132 C 
HETATM    5  C5  UNL     1      -0.030  10.198  16.290  1.00  0.00     0.020 C 
HETATM    6  C6  UNL     1       1.138   9.500  16.993  1.00  0.00     0.002 C 
HETATM    7  C7  UNL     1       2.383  10.376  17.156  1.00  0.00     0.000 C 
HETATM    8  C8  UNL     1       2.988  10.995  15.890  1.00  0.00     0.000 C 
HETATM    9  C9  UNL     1       3.984  10.105  15.137  1.00  0.00     0.002 C 
HETATM   10  C10 UNL     1       3.380   9.005  14.267  1.00  0.00     0.020 C 
HETATM   11  C11 UNL     1       2.565   9.551  13.095  1.00  0.00     0.128 C 
HETATM   12  N2  UNL     1       1.973   8.485  12.303  1.00  0.00    -0.355 N 
HETATM   13  C12 UNL     1       0.830   7.827  12.670  1.00  0.00     0.106 A 
HETATM   14  C13 UNL     1       0.515   6.907  11.690  1.00  0.00     0.019 A 
HETATM   15  C14 UNL     1       1.512   7.037  10.665  1.00  0.00     0.005 A 
HETATM   16  C15 UNL     1       1.724   6.434   9.403  1.00  0.00     0.014 A 
HETATM   17  C16 UNL     1       2.838   6.786   8.634  1.00  0.00     0.001 A 
HETATM   18  C17 UNL     1       3.745   7.733   9.098  1.00  0.00     0.002 A 
HETATM   19  C18 UNL     1       3.555   8.362  10.328  1.00  0.00     0.030 A 
HETATM   20  C19 UNL     1       2.428   8.011  11.092  1.00  0.00     0.045 A 
HETATM   21  C20 UNL     1      -0.648   6.033  11.809  1.00  0.00     0.063 A 
HETATM   22  C21 UNL     1      -0.655   4.769  11.267  1.00  0.00     0.048 A 
HETATM   23  C22 UNL     1      -1.806   4.053  11.459  1.00  0.00     0.108 A 
HETATM   24  N3  UNL     1      -2.869   4.523  12.133  1.00  0.00    -0.202 N 
ATOM     25  H3  UNL     1      -3.715   3.965  12.246  1.00  0.00     0.183 HD
HETATM   26  C23 UNL     1      -2.771   5.760  12.652  1.00  0.00     0.683 A 
HETATM   27  N4  UNL     1      -1.689   6.532  12.512  1.00  0.00    -0.191 N 
ATOM     28  H4  UNL     1      -1.651   7.464  12.922  1.00  0.00     0.184 HD
HETATM   29  N5  UNL     1      -3.902   6.194  13.335  1.00  0.00    -0.192 N 
HETATM   30  C24 UNL     1      -4.170   7.271  14.189  1.00  0.00     0.051 A 
HETATM   31  C25 UNL     1      -5.504   7.501  14.553  1.00  0.00     0.030 A 
HETATM   32  C26 UNL     1      -5.859   8.571  15.371  1.00  0.00     0.004 A 
HETATM   33  C27 UNL     1      -4.878   9.447  15.828  1.00  0.00     0.030 A 
HETATM   34  C28 UNL     1      -3.536   9.270  15.464  1.00  0.00     0.039 A 
HETATM   35  C29 UNL     1      -3.202   8.182  14.638  1.00  0.00     0.059 A 
HETATM   36  H27 UNL     1      -4.588   5.455  13.313  1.00  0.00     0.184 HD
ENDROOT
BRANCH   1  37
HETATM   37  C2  UNL     1      -3.679  12.231  15.372  1.00  0.00     0.064 C 
HETATM   38  C1  UNL     1      -4.328  13.335  15.762  1.00  0.00     0.017 C 
ENDBRANCH   1  37
TORSDOF 1
ENDMDL
MODEL 5
REMARK minimizedAffinity -8.80386639
REMARK  1 active torsions:
REMARK  status: ('A' for Active; 'I' for Inactive)
REMARK    1  A    between atoms: C2_2  and  C3_3 
REMARK       I    between atoms: C3_3  and  N1_5 
ROOT
HETATM    1  C3  UNL     1       1.000  11.132  17.318  1.00  0.00     0.247 C 
HETATM    2  O1  UNL     1       0.255  11.938  17.871  1.00  0.00    -0.268 OA
HETATM    3  N1  UNL     1       0.970  10.842  15.947  1.00  0.00    -0.315 N 
HETATM    4  C4  UNL     1      -0.191  11.349  15.197  1.00  0.00     0.132 C 
HETATM    5  C5  UNL     1      -1.515  10.705  15.638  1.00  0.00     0.020 C 
HETATM    6  C6  UNL     1      -2.695  11.242  14.823  1.00  0.00     0.002 C 
HETATM    7  C7  UNL     1      -4.054  11.084  15.512  1.00  0.00     0.000 C 
HETATM    8  C8  UNL     1      -4.473   9.675  15.945  1.00  0.00     0.000 C 
HETATM    9  C9  UNL     1      -5.171   8.838  14.867  1.00  0.00     0.002 C 
HETATM   10  C10 UNL     1      -4.266   8.206  13.812  1.00  0.00     0.020 C 
HETATM   11  C11 UNL     1      -3.315   7.159  14.393  1.00  0.00     0.128 C 
HETATM   12  N2  UNL     1      -2.442   6.598  13.375  1.00  0.00    -0.355 N 
HETATM   13  C12 UNL     1      -1.316   7.233  12.923  1.00  0.00     0.106 A 
HETATM   14  C13 UNL     1      -0.694   6.422  11.995  1.00  0.00     0.019 A 
HETATM   15  C14 UNL     1      -1.476   5.221  11.904  1.00  0.00     0.005 A 
HETATM   16  C15 UNL     1      -1.351   4.006  11.191  1.00  0.00     0.014 A 
HETATM   17  C16 UNL     1      -2.327   3.013  11.319  1.00  0.00     0.001 A 
HETATM   18  C17 UNL     1      -3.426   3.206  12.148  1.00  0.00     0.002 A 
HETATM   19  C18 UNL     1      -3.570   4.384  12.882  1.00  0.00     0.030 A 
HETATM   20  C19 UNL     1      -2.579   5.375  12.756  1.00  0.00     0.045 A 
HETATM   21  C20 UNL     1       0.529   6.839  11.315  1.00  0.00     0.063 A 
HETATM   22  C21 UNL     1       0.812   6.432  10.032  1.00  0.00     0.048 A 
HETATM   23  C22 UNL     1       1.988   6.903   9.511  1.00  0.00     0.108 A 
HETATM   24  N3  UNL     1       2.823   7.715  10.181  1.00  0.00    -0.202 N 
ATOM     25  H3  UNL     1       3.697   8.037   9.765  1.00  0.00     0.183 HD
HETATM   26  C23 UNL     1       2.461   8.085  11.421  1.00  0.00     0.683 A 
HETATM   27  N4  UNL     1       1.334   7.672  12.011  1.00  0.00    -0.191 N 
ATOM     28  H4  UNL     1       1.092   7.976  12.954  1.00  0.00     0.184 HD
HETATM   29  N5  UNL     1       3.365   8.922  12.066  1.00  0.00    -0.192 N 
HETATM   30  C24 UNL     1       3.312   9.703  13.227  1.00  0.00     0.051 A 
HETATM   31  C25 UNL     1       4.505  10.286  13.678  1.00  0.00     0.030 A 
HETATM   32  C26 UNL     1       4.544  11.048  14.843  1.00  0.00     0.004 A 
HETATM   33  C27 UNL     1       3.384  11.228  15.591  1.00  0.00     0.030 A 
HETATM   34  C28 UNL     1       2.177  10.639  15.190  1.00  0.00     0.039 A 
HETATM   35  C29 UNL     1       2.162   9.874  14.011  1.00  0.00     0.059 A 
HETATM   36  H27 UNL     1       4.135   9.099  11.438  1.00  0.00     0.184 HD
ENDROOT
BRANCH   1  37
HETATM   37  C2  UNL     1       1.939  10.291  18.126  1.00  0.00     0.064 C 
HETATM   38  C1  UNL     1       2.249  10.625  19.386  1.00  0.00     0.017 C 
ENDBRANCH   1  37
TORSDOF 1
ENDMDL
MODEL 6
REMARK minimizedAffinity -8.73039722
REMARK  1 active torsions:
REMARK  status: ('A' for Active; 'I' for Inactive)
REMARK    1  A    between atoms: C2_2  and  C3_3 
REMARK       I    between atoms: C3_3  and  N1_5 
ROOT
HETATM    1  C3  UNL     1      -1.878   5.639  12.545  1.00  0.00     0.247 C 
HETATM    2  O1  UNL     1      -1.177   5.305  11.592  1.00  0.00    -0.268 OA
HETATM    3  N1  UNL     1      -2.062   6.964  12.964  1.00  0.00    -0.315 N 
HETATM    4  C4  UNL     1      -1.155   7.966  12.378  1.00  0.00     0.132 C 
HETATM    5  C5  UNL     1       0.312   7.755  12.785  1.00  0.00     0.020 C 
HETATM    6  C6  UNL     1       1.219   8.826  12.173  1.00  0.00     0.002 C 
HETATM    7  C7  UNL     1       2.691   8.414  12.070  1.00  0.00     0.000 C 
HETATM    8  C8  UNL     1       3.398   7.975  13.358  1.00  0.00     0.000 C 
HETATM    9  C9  UNL     1       4.003   9.110  14.193  1.00  0.00     0.002 C 
HETATM   10  C10 UNL     1       3.025   9.914  15.047  1.00  0.00     0.020 C 
HETATM   11  C11 UNL     1       2.376   9.082  16.152  1.00  0.00     0.128 C 
HETATM   12  N2  UNL     1       1.425   9.861  16.928  1.00  0.00    -0.355 N 
HETATM   13  C12 UNL     1       0.149  10.122  16.505  1.00  0.00     0.106 A 
HETATM   14  C13 UNL     1      -0.502  10.847  17.482  1.00  0.00     0.019 A 
HETATM   15  C14 UNL     1       0.426  11.007  18.566  1.00  0.00     0.005 A 
HETATM   16  C15 UNL     1       0.360  11.593  19.851  1.00  0.00     0.014 A 
HETATM   17  C16 UNL     1       1.486  11.593  20.682  1.00  0.00     0.001 A 
HETATM   18  C17 UNL     1       2.677  11.017  20.256  1.00  0.00     0.002 A 
HETATM   19  C18 UNL     1       2.771  10.412  19.002  1.00  0.00     0.030 A 
HETATM   20  C19 UNL     1       1.633  10.406  18.176  1.00  0.00     0.045 A 
HETATM   21  C20 UNL     1      -1.881  11.295  17.310  1.00  0.00     0.063 A 
HETATM   22  C21 UNL     1      -2.333  12.463  17.878  1.00  0.00     0.048 A 
HETATM   23  C22 UNL     1      -3.644  12.769  17.629  1.00  0.00     0.108 A 
HETATM   24  N3  UNL     1      -4.455  12.005  16.878  1.00  0.00    -0.202 N 
ATOM     25  H3  UNL     1      -5.430  12.259  16.724  1.00  0.00     0.183 HD
HETATM   26  C23 UNL     1      -3.928  10.892  16.340  1.00  0.00     0.683 A 
HETATM   27  N4  UNL     1      -2.661  10.512  16.531  1.00  0.00    -0.191 N 
ATOM     28  H4  UNL     1      -2.295   9.662  16.103  1.00  0.00     0.184 HD
HETATM   29  N5  UNL     1      -4.814  10.140  15.576  1.00  0.00    -0.192 N 
HETATM   30  C24 UNL     1      -4.667   9.071  14.683  1.00  0.00     0.051 A 
HETATM   31  C25 UNL     1      -5.829   8.433  14.230  1.00  0.00     0.030 A 
HETATM   32  C26 UNL     1      -5.767   7.340  13.368  1.00  0.00     0.004 A 
HETATM   33  C27 UNL     1      -4.530   6.854  12.954  1.00  0.00     0.030 A 
HETATM   34  C28 UNL     1      -3.342   7.447  13.407  1.00  0.00     0.039 A 
HETATM   35  C29 UNL     1      -3.430   8.548  14.276  1.00  0.00     0.059 A 
HETATM   36  H27 UNL     1      -5.706  10.611  15.571  1.00  0.00     0.184 HD
ENDROOT
BRANCH   1  37
HETATM   37  C2  UNL     1      -2.506   4.601  13.423  1.00  0.00     0.064 C 
HETATM   38  C1  UNL     1      -3.390   3.726  12.928  1.00  0.00     0.017 C 
ENDBRANCH   1  37
TORSDOF 1
ENDMDL
MODEL 7
REMARK minimizedAffinity -8.51274109
REMARK  1 active torsions:
REMARK  status: ('A' for Active; 'I' for Inactive)
REMARK    1  A    between atoms: C2_2  and  C3_3 
REMARK       I    between atoms: C3_3  and  N1_5 
ROOT
HETATM    1  C3  UNL     1       0.377   6.432  10.761  1.00  0.00     0.247 C 
HETATM    2  O1  UNL     1      -0.235   5.457  10.328  1.00  0.00    -0.268 OA
HETATM    3  N1  UNL     1       0.556   6.710  12.123  1.00  0.00    -0.315 N 
HETATM    4  C4  UNL     1      -0.260   5.924  13.064  1.00  0.00     0.132 C 
HETATM    5  C5  UNL     1      -1.766   6.200  12.926  1.00  0.00     0.020 C 
HETATM    6  C6  UNL     1      -2.577   5.380  13.932  1.00  0.00     0.002 C 
HETATM    7  C7  UNL     1      -4.043   5.177  13.535  1.00  0.00     0.000 C 
HETATM    8  C8  UNL     1      -4.886   6.428  13.262  1.00  0.00     0.000 C 
HETATM    9  C9  UNL     1      -5.539   7.060  14.498  1.00  0.00     0.002 C 
HETATM   10  C10 UNL     1      -4.628   7.910  15.381  1.00  0.00     0.020 C 
HETATM   11  C11 UNL     1      -4.115   9.164  14.675  1.00  0.00     0.128 C 
HETATM   12  N2  UNL     1      -3.224   9.938  15.524  1.00  0.00    -0.355 N 
HETATM   13  C12 UNL     1      -1.906   9.618  15.713  1.00  0.00     0.106 A 
HETATM   14  C13 UNL     1      -1.334  10.567  16.537  1.00  0.00     0.019 A 
HETATM   15  C14 UNL     1      -2.361  11.524  16.840  1.00  0.00     0.005 A 
HETATM   16  C15 UNL     1      -2.406  12.733  17.572  1.00  0.00     0.014 A 
HETATM   17  C16 UNL     1      -3.608  13.439  17.688  1.00  0.00     0.001 A 
HETATM   18  C17 UNL     1      -4.767  12.964  17.085  1.00  0.00     0.002 A 
HETATM   19  C18 UNL     1      -4.752  11.786  16.338  1.00  0.00     0.030 A 
HETATM   20  C19 UNL     1      -3.539  11.086  16.217  1.00  0.00     0.045 A 
HETATM   21  C20 UNL     1       0.066  10.484  16.939  1.00  0.00     0.063 A 
HETATM   22  C21 UNL     1       0.493  10.956  18.159  1.00  0.00     0.048 A 
HETATM   23  C22 UNL     1       1.830  10.808  18.412  1.00  0.00     0.108 A 
HETATM   24  N3  UNL     1       2.690  10.237  17.552  1.00  0.00    -0.202 N 
ATOM     25  H3  UNL     1       3.682  10.154  17.770  1.00  0.00     0.183 HD
HETATM   26  C23 UNL     1       2.188   9.780  16.392  1.00  0.00     0.683 A 
HETATM   27  N4  UNL     1       0.898   9.884  16.058  1.00  0.00    -0.191 N 
ATOM     28  H4  UNL     1       0.553   9.523  15.169  1.00  0.00     0.184 HD
HETATM   29  N5  UNL     1       3.124   9.203  15.540  1.00  0.00    -0.192 N 
HETATM   30  C24 UNL     1       3.035   8.429  14.376  1.00  0.00     0.051 A 
HETATM   31  C25 UNL     1       4.219   8.174  13.670  1.00  0.00     0.030 A 
HETATM   32  C26 UNL     1       4.212   7.442  12.484  1.00  0.00     0.004 A 
HETATM   33  C27 UNL     1       3.009   6.964  11.973  1.00  0.00     0.030 A 
HETATM   34  C28 UNL     1       1.799   7.222  12.634  1.00  0.00     0.039 A 
HETATM   35  C29 UNL     1       1.831   7.963  13.829  1.00  0.00     0.059 A 
HETATM   36  H27 UNL     1       4.025   9.234  15.993  1.00  0.00     0.184 HD
ENDROOT
BRANCH   1  37
HETATM   37  C2  UNL     1       0.885   7.483   9.824  1.00  0.00     0.064 C 
HETATM   38  C1  UNL     1       0.074   8.442   9.361  1.00  0.00     0.017 C 
ENDBRANCH   1  37
TORSDOF 1
ENDMDL
MODEL 8
REMARK minimizedAffinity -8.44111156
REMARK  1 active torsions:
REMARK  status: ('A' for Active; 'I' for Inactive)
REMARK    1  A    between atoms: C2_2  and  C3_3 
REMARK       I    between atoms: C3_3  and  N1_5 
ROOT
HETATM    1  C3  UNL     1      -2.204  15.423   2.201  1.00  0.00     0.247 C 
HETATM    2  O1  UNL     1      -3.098  16.183   1.831  1.00  0.00    -0.268 OA
HETATM    3  N1  UNL     1      -0.836  15.667   2.019  1.00  0.00    -0.315 N 
HETATM    4  C4  UNL     1      -0.484  16.767   1.107  1.00  0.00     0.132 C 
HETATM    5  C5  UNL     1      -0.907  16.499  -0.346  1.00  0.00     0.020 C 
HETATM    6  C6  UNL     1      -0.506  17.656  -1.266  1.00  0.00     0.002 C 
HETATM    7  C7  UNL     1      -1.320  17.735  -2.561  1.00  0.00     0.000 C 
HETATM    8  C8  UNL     1      -1.346  16.495  -3.462  1.00  0.00     0.000 C 
HETATM    9  C9  UNL     1      -0.186  16.385  -4.459  1.00  0.00     0.002 C 
HETATM   10  C10 UNL     1       1.147  15.900  -3.892  1.00  0.00     0.020 C 
HETATM   11  C11 UNL     1       1.089  14.460  -3.383  1.00  0.00     0.128 C 
HETATM   12  N2  UNL     1       2.360  14.035  -2.817  1.00  0.00    -0.355 N 
HETATM   13  C12 UNL     1       2.763  14.367  -1.552  1.00  0.00     0.106 A 
HETATM   14  C13 UNL     1       3.988  13.778  -1.310  1.00  0.00     0.019 A 
HETATM   15  C14 UNL     1       4.327  13.029  -2.487  1.00  0.00     0.005 A 
HETATM   16  C15 UNL     1       5.399  12.180  -2.850  1.00  0.00     0.014 A 
HETATM   17  C16 UNL     1       5.435  11.600  -4.122  1.00  0.00     0.001 A 
HETATM   18  C17 UNL     1       4.421  11.847  -5.040  1.00  0.00     0.002 A 
HETATM   19  C18 UNL     1       3.339  12.662  -4.708  1.00  0.00     0.030 A 
HETATM   20  C19 UNL     1       3.303  13.235  -3.424  1.00  0.00     0.045 A 
HETATM   21  C20 UNL     1       4.689  13.967  -0.044  1.00  0.00     0.063 A 
HETATM   22  C21 UNL     1       6.063  13.971   0.023  1.00  0.00     0.048 A 
HETATM   23  C22 UNL     1       6.591  14.168   1.271  1.00  0.00     0.108 A 
HETATM   24  N3  UNL     1       5.843  14.355   2.372  1.00  0.00    -0.202 N 
ATOM     25  H3  UNL     1       6.272  14.487   3.288  1.00  0.00     0.183 HD
HETATM   26  C23 UNL     1       4.508  14.361   2.216  1.00  0.00     0.683 A 
HETATM   27  N4  UNL     1       3.905  14.174   1.038  1.00  0.00    -0.191 N 
ATOM     28  H4  UNL     1       2.889  14.188   0.958  1.00  0.00     0.184 HD
HETATM   29  N5  UNL     1       3.787  14.556   3.389  1.00  0.00    -0.192 N 
HETATM   30  C24 UNL     1       2.446  14.843   3.672  1.00  0.00     0.051 A 
HETATM   31  C25 UNL     1       2.033  14.787   5.010  1.00  0.00     0.030 A 
HETATM   32  C26 UNL     1       0.709  15.025   5.371  1.00  0.00     0.004 A 
HETATM   33  C27 UNL     1      -0.235  15.311   4.389  1.00  0.00     0.030 A 
HETATM   34  C28 UNL     1       0.130  15.349   3.036  1.00  0.00     0.039 A 
HETATM   35  C29 UNL     1       1.473  15.105   2.696  1.00  0.00     0.059 A 
HETATM   36  H27 UNL     1       4.442  14.672   4.148  1.00  0.00     0.184 HD
ENDROOT
BRANCH   1  37
HETATM   37  C2  UNL     1      -2.542  14.087   2.784  1.00  0.00     0.064 C 
HETATM   38  C1  UNL     1      -1.900  12.981   2.386  1.00  0.00     0.017 C 
ENDBRANCH   1  37
TORSDOF 1
ENDMDL
MODEL 9
REMARK minimizedAffinity -8.14011669
REMARK  1 active torsions:
REMARK  status: ('A' for Active; 'I' for Inactive)
REMARK    1  A    between atoms: C2_2  and  C3_3 
REMARK       I    between atoms: C3_3  and  N1_5 
ROOT
HETATM    1  C3  UNL     1       4.037  11.835  22.210  1.00  0.00     0.247 C 
HETATM    2  O1  UNL     1       2.951  12.399  22.330  1.00  0.00    -0.268 OA
HETATM    3  N1  UNL     1       5.010  12.188  21.265  1.00  0.00    -0.315 N 
HETATM    4  C4  UNL     1       4.583  13.115  20.203  1.00  0.00     0.132 C 
HETATM    5  C5  UNL     1       3.513  12.513  19.278  1.00  0.00     0.020 C 
HETATM    6  C6  UNL     1       3.110  13.498  18.177  1.00  0.00     0.002 C 
HETATM    7  C7  UNL     1       1.733  13.222  17.566  1.00  0.00     0.000 C 
HETATM    8  C8  UNL     1       1.483  11.831  16.972  1.00  0.00     0.000 C 
HETATM    9  C9  UNL     1       1.921  11.652  15.514  1.00  0.00     0.002 C 
HETATM   10  C10 UNL     1       3.416  11.444  15.279  1.00  0.00     0.020 C 
HETATM   11  C11 UNL     1       3.938  10.139  15.880  1.00  0.00     0.128 C 
HETATM   12  N2  UNL     1       5.368   9.982  15.673  1.00  0.00    -0.355 N 
HETATM   13  C12 UNL     1       6.309  10.605  16.448  1.00  0.00     0.106 A 
HETATM   14  C13 UNL     1       7.563  10.219  16.018  1.00  0.00     0.019 A 
HETATM   15  C14 UNL     1       7.362   9.290  14.942  1.00  0.00     0.005 A 
HETATM   16  C15 UNL     1       8.220   8.511  14.130  1.00  0.00     0.014 A 
HETATM   17  C16 UNL     1       7.687   7.694  13.128  1.00  0.00     0.001 A 
HETATM   18  C17 UNL     1       6.314   7.635  12.920  1.00  0.00     0.002 A 
HETATM   19  C18 UNL     1       5.438   8.375  13.717  1.00  0.00     0.030 A 
HETATM   20  C19 UNL     1       5.980   9.187  14.729  1.00  0.00     0.045 A 
HETATM   21  C20 UNL     1       8.777  10.737  16.641  1.00  0.00     0.063 A 
HETATM   22  C21 UNL     1       9.936  10.908  15.922  1.00  0.00     0.048 A 
HETATM   23  C22 UNL     1      10.997  11.410  16.627  1.00  0.00     0.108 A 
HETATM   24  N3  UNL     1      10.937  11.731  17.931  1.00  0.00    -0.202 N 
ATOM     25  H3  UNL     1      11.752  12.092  18.426  1.00  0.00     0.183 HD
HETATM   26  C23 UNL     1       9.759  11.556  18.554  1.00  0.00     0.683 A 
HETATM   27  N4  UNL     1       8.672  11.069  17.948  1.00  0.00    -0.191 N 
ATOM     28  H4  UNL     1       7.794  10.952  18.454  1.00  0.00     0.184 HD
HETATM   29  N5  UNL     1       9.758  11.902  19.901  1.00  0.00    -0.192 N 
HETATM   30  C24 UNL     1       8.752  12.088  20.858  1.00  0.00     0.051 A 
HETATM   31  C25 UNL     1       9.143  12.257  22.193  1.00  0.00     0.030 A 
HETATM   32  C26 UNL     1       8.203  12.414  23.210  1.00  0.00     0.004 A 
HETATM   33  C27 UNL     1       6.845  12.388  22.907  1.00  0.00     0.030 A 
HETATM   34  C28 UNL     1       6.411  12.192  21.587  1.00  0.00     0.039 A 
HETATM   35  C29 UNL     1       7.378  12.036  20.578  1.00  0.00     0.059 A 
HETATM   36  H27 UNL     1      10.677  12.240  20.142  1.00  0.00     0.184 HD
ENDROOT
BRANCH   1  37
HETATM   37  C2  UNL     1       4.348  10.614  23.019  1.00  0.00     0.064 C 
HETATM   38  C1  UNL     1       3.379   9.953  23.665  1.00  0.00     0.017 C 
ENDBRANCH   1  37
TORSDOF 1
ENDMDL
