MODEL 1
REMARK minimizedAffinity -8.07804108
REMARK CNNscore 0.16335924
REMARK CNNaffinity 6.20596886
REMARK  4 active torsions:
REMARK  status: ('A' for Active; 'I' for Inactive)
REMARK    1  A    between atoms: C5_5  and  C6_6 
REMARK    2  A    between atoms: C8_10  and  C9_11 
REMARK       I    between atoms: N3_21  and  C16_22 
REMARK    3  A    between atoms: C16_22  and  C17_24 
REMARK    4  A    between atoms: N6_33  and  C22_34 
ROOT
HETATM    1  C6  UNL     1     -11.974   9.650  21.421  1.00  0.00     0.141 C 
HETATM    2  N1  UNL     1     -11.121  10.521  21.867  1.00  0.00    -0.336 N 
ATOM      3  H1  UNL     1     -10.595  11.108  21.220  1.00  0.00     0.168 HD
HETATM    4  C7  UNL     1     -10.937  10.640  23.221  1.00  0.00     0.104 C 
HETATM    5  C8  UNL     1     -10.057  11.503  23.765  1.00  0.00     0.046 C 
HETATM    6  C15 UNL     1     -11.762   9.845  24.188  1.00  0.00     0.287 C 
HETATM    7  O1  UNL     1     -11.751  10.014  25.404  1.00  0.00    -0.264 OA
HETATM    8  N2  UNL     1     -12.556   8.892  23.617  1.00  0.00    -0.253 N 
HETATM    9  N3  UNL     1     -12.727   8.769  22.220  1.00  0.00    -0.197 N 
HETATM   10  C16 UNL     1     -13.546   7.724  21.741  1.00  0.00     0.312 C 
HETATM   11  O2  UNL     1     -13.633   7.327  20.580  1.00  0.00    -0.262 OA
HETATM   12  H11 UNL     1     -13.227   8.437  24.235  1.00  0.00     0.191 HD
ENDROOT
BRANCH   1  13
HETATM   13  C5  UNL     1     -12.157   9.607  19.953  1.00  0.00     0.010 A 
HETATM   14  C4  UNL     1     -13.345  10.081  19.388  1.00  0.00     0.016 A 
HETATM   15  C3  UNL     1     -13.490  10.079  18.000  1.00  0.00     0.007 A 
HETATM   16  C2  UNL     1     -12.455   9.609  17.178  1.00  0.00    -0.062 A 
HETATM   17  C1  UNL     1     -12.598   9.635  15.683  1.00  0.00     0.048 C 
HETATM   18  C30 UNL     1     -11.257   9.170  17.759  1.00  0.00     0.007 A 
HETATM   19  C29 UNL     1     -11.102   9.173  19.147  1.00  0.00     0.016 A 
ENDBRANCH   1  13
BRANCH  10  20
HETATM   20  C17 UNL     1     -14.387   6.936  22.738  1.00  0.00     0.181 A 
HETATM   21  N4  UNL     1     -13.955   5.838  23.298  1.00  0.00    -0.322 N 
HETATM   22  C18 UNL     1     -14.844   5.281  24.174  1.00  0.00     0.147 A 
ATOM     23  H4  UNL     1     -13.039   5.434  23.100  1.00  0.00     0.169 HD
HETATM   24  C19 UNL     1     -16.098   5.772  24.473  1.00  0.00     0.101 A 
HETATM   25  N6  UNL     1     -14.698   4.117  24.933  1.00  0.00    -0.239 N 
HETATM   26  C20 UNL     1     -16.671   4.872  25.378  1.00  0.00     0.042 A 
HETATM   27  C28 UNL     1     -16.551   6.989  23.862  1.00  0.00     0.263 A 
HETATM   28  C21 UNL     1     -18.016   4.935  26.005  1.00  0.00     0.071 C 
HETATM   29  N5  UNL     1     -15.842   3.861  25.646  1.00  0.00    -0.295 N 
ATOM     30  H5  UNL     1     -16.021   3.062  26.254  1.00  0.00     0.187 HD
HETATM   31  O3  UNL     1     -17.631   7.517  24.085  1.00  0.00    -0.267 OA
HETATM   32  N7  UNL     1     -15.628   7.510  22.986  1.00  0.00    -0.304 N 
HETATM   33  H20 UNL     1     -15.856   8.395  22.546  1.00  0.00     0.171 HD
BRANCH  25  34
HETATM   34  C22 UNL     1     -13.588   3.224  25.041  1.00  0.00     0.058 A 
HETATM   35  C23 UNL     1     -12.815   2.958  23.898  1.00  0.00     0.031 A 
HETATM   36  C24 UNL     1     -11.710   2.104  23.968  1.00  0.00     0.002 A 
HETATM   37  C25 UNL     1     -11.367   1.506  25.178  1.00  0.00     0.000 A 
HETATM   38  C26 UNL     1     -12.134   1.754  26.314  1.00  0.00     0.002 A 
HETATM   39  C27 UNL     1     -13.243   2.603  26.248  1.00  0.00     0.031 A 
ENDBRANCH  25  34
ENDBRANCH  10  20
BRANCH   5  40
HETATM   40  C9  UNL     1      -9.162  12.419  23.040  1.00  0.00    -0.034 A 
HETATM   41  C10 UNL     1      -8.130  13.053  23.749  1.00  0.00     0.013 A 
HETATM   42  C11 UNL     1      -7.236  13.907  23.094  1.00  0.00     0.024 A 
HETATM   43  C12 UNL     1      -7.362  14.120  21.724  1.00  0.00     0.034 A 
HETATM   44 CL1  UNL     1      -6.263  15.169  20.917  1.00  0.00    -0.084 Cl
HETATM   45  C13 UNL     1      -8.370  13.486  21.002  1.00  0.00     0.024 A 
HETATM   46  C14 UNL     1      -9.262  12.633  21.658  1.00  0.00     0.013 A 
ENDBRANCH   5  40
TORSDOF 4
ENDMDL
MODEL 2
REMARK minimizedAffinity -11.2482042
REMARK CNNscore 0.0840770453
REMARK CNNaffinity 6.96398544
REMARK  4 active torsions:
REMARK  status: ('A' for Active; 'I' for Inactive)
REMARK    1  A    between atoms: C5_5  and  C6_6 
REMARK    2  A    between atoms: C8_10  and  C9_11 
REMARK       I    between atoms: N3_21  and  C16_22 
REMARK    3  A    between atoms: C16_22  and  C17_24 
REMARK    4  A    between atoms: N6_33  and  C22_34 
ROOT
HETATM    1  C6  UNL     1      -0.767   7.556  13.032  1.00  0.00     0.141 C 
HETATM    2  N1  UNL     1       0.330   7.386  12.360  1.00  0.00    -0.336 N 
ATOM      3  H1  UNL     1       1.120   8.017  12.491  1.00  0.00     0.168 HD
HETATM    4  C7  UNL     1       0.412   6.344  11.471  1.00  0.00     0.104 C 
HETATM    5  C8  UNL     1       1.506   6.110  10.719  1.00  0.00     0.046 C 
HETATM    6  C15 UNL     1      -0.708   5.358  11.328  1.00  0.00     0.287 C 
HETATM    7  O1  UNL     1      -0.637   4.326  10.666  1.00  0.00    -0.264 OA
HETATM    8  N2  UNL     1      -1.849   5.682  12.004  1.00  0.00    -0.253 N 
HETATM    9  N3  UNL     1      -1.927   6.767  12.906  1.00  0.00    -0.197 N 
HETATM   10  C16 UNL     1      -3.168   7.030  13.523  1.00  0.00     0.312 C 
HETATM   11  O2  UNL     1      -3.483   8.041  14.148  1.00  0.00    -0.262 OA
HETATM   12  H11 UNL     1      -2.571   4.964  12.037  1.00  0.00     0.191 HD
ENDROOT
BRANCH   1  13
HETATM   13  C5  UNL     1      -0.771   8.669  14.007  1.00  0.00     0.010 A 
HETATM   14  C4  UNL     1      -1.180   9.944  13.603  1.00  0.00     0.016 A 
HETATM   15  C3  UNL     1      -1.224  10.976  14.541  1.00  0.00     0.007 A 
HETATM   16  C2  UNL     1      -0.864  10.740  15.877  1.00  0.00    -0.062 A 
HETATM   17  C1  UNL     1      -0.940  11.842  16.893  1.00  0.00     0.048 C 
HETATM   18  C30 UNL     1      -0.490   9.447  16.271  1.00  0.00     0.007 A 
HETATM   19  C29 UNL     1      -0.447   8.408  15.341  1.00  0.00     0.016 A 
ENDBRANCH   1  13
BRANCH  10  20
HETATM   20  C17 UNL     1      -4.291   6.009  13.377  1.00  0.00     0.181 A 
HETATM   21  N4  UNL     1      -5.521   6.272  13.728  1.00  0.00    -0.322 N 
HETATM   22  C18 UNL     1      -6.388   5.239  13.508  1.00  0.00     0.147 A 
ATOM     23  H4  UNL     1      -5.807   7.165  14.129  1.00  0.00     0.169 HD
HETATM   24  C19 UNL     1      -6.059   4.007  12.982  1.00  0.00     0.101 A 
HETATM   25  N6  UNL     1      -7.759   5.189  13.771  1.00  0.00    -0.239 N 
HETATM   26  C20 UNL     1      -7.237   3.252  12.973  1.00  0.00     0.042 A 
HETATM   27  C28 UNL     1      -4.707   3.740  12.585  1.00  0.00     0.263 A 
HETATM   28  C21 UNL     1      -7.425   1.853  12.513  1.00  0.00     0.071 C 
HETATM   29  N5  UNL     1      -8.263   3.950  13.466  1.00  0.00    -0.295 N 
ATOM     30  H5  UNL     1      -9.224   3.630  13.589  1.00  0.00     0.187 HD
HETATM   31  O3  UNL     1      -4.325   2.692  12.083  1.00  0.00    -0.267 OA
HETATM   32  N7  UNL     1      -3.870   4.803  12.829  1.00  0.00    -0.304 N 
HETATM   33  H20 UNL     1      -2.904   4.709  12.534  1.00  0.00     0.171 HD
BRANCH  25  34
HETATM   34  C22 UNL     1      -8.632   6.195  14.289  1.00  0.00     0.058 A 
HETATM   35  C23 UNL     1      -9.746   6.588  13.527  1.00  0.00     0.031 A 
HETATM   36  C24 UNL     1     -10.633   7.556  14.008  1.00  0.00     0.002 A 
HETATM   37  C25 UNL     1     -10.416   8.142  15.252  1.00  0.00     0.000 A 
HETATM   38  C26 UNL     1      -9.309   7.768  16.010  1.00  0.00     0.002 A 
HETATM   39  C27 UNL     1      -8.416   6.804  15.531  1.00  0.00     0.031 A 
ENDBRANCH  25  34
ENDBRANCH  10  20
BRANCH   5  40
HETATM   40  C9  UNL     1       2.746   6.901  10.703  1.00  0.00    -0.034 A 
HETATM   41  C10 UNL     1       3.038   7.672   9.567  1.00  0.00     0.013 A 
HETATM   42  C11 UNL     1       4.189   8.465   9.521  1.00  0.00     0.024 A 
HETATM   43  C12 UNL     1       5.048   8.501  10.616  1.00  0.00     0.034 A 
HETATM   44 CL1  UNL     1       6.465   9.476  10.560  1.00  0.00    -0.084 Cl
HETATM   45  C13 UNL     1       4.765   7.755  11.757  1.00  0.00     0.024 A 
HETATM   46  C14 UNL     1       3.614   6.963  11.802  1.00  0.00     0.013 A 
ENDBRANCH   5  40
TORSDOF 4
ENDMDL
MODEL 3
REMARK minimizedAffinity -10.5065947
REMARK CNNscore 0.068085216
REMARK CNNaffinity 6.83126211
REMARK  4 active torsions:
REMARK  status: ('A' for Active; 'I' for Inactive)
REMARK    1  A    between atoms: C5_5  and  C6_6 
REMARK    2  A    between atoms: C8_10  and  C9_11 
REMARK       I    between atoms: N3_21  and  C16_22 
REMARK    3  A    between atoms: C16_22  and  C17_24 
REMARK    4  A    between atoms: N6_33  and  C22_34 
ROOT
HETATM    1  C6  UNL     1      -1.502   8.219  15.262  1.00  0.00     0.141 C 
HETATM    2  N1  UNL     1      -1.862   9.222  16.004  1.00  0.00    -0.336 N 
ATOM      3  H1  UNL     1      -1.168   9.881  16.354  1.00  0.00     0.168 HD
HETATM    4  C7  UNL     1      -3.190   9.382  16.309  1.00  0.00     0.104 C 
HETATM    5  C8  UNL     1      -3.644  10.383  17.089  1.00  0.00     0.046 C 
HETATM    6  C15 UNL     1      -4.233   8.471  15.733  1.00  0.00     0.287 C 
HETATM    7  O1  UNL     1      -5.442   8.651  15.845  1.00  0.00    -0.264 OA
HETATM    8  N2  UNL     1      -3.742   7.396  15.050  1.00  0.00    -0.253 N 
HETATM    9  N3  UNL     1      -2.370   7.233  14.754  1.00  0.00    -0.197 N 
HETATM   10  C16 UNL     1      -1.972   6.064  14.071  1.00  0.00     0.312 C 
HETATM   11  O2  UNL     1      -0.823   5.647  13.927  1.00  0.00    -0.262 OA
HETATM   12  H11 UNL     1      -4.424   6.843  14.533  1.00  0.00     0.191 HD
ENDROOT
BRANCH   1  13
HETATM   13  C5  UNL     1      -0.062   8.133  14.933  1.00  0.00     0.010 A 
HETATM   14  C4  UNL     1       0.412   8.693  13.744  1.00  0.00     0.016 A 
HETATM   15  C3  UNL     1       1.779   8.648  13.464  1.00  0.00     0.007 A 
HETATM   16  C2  UNL     1       2.670   8.048  14.366  1.00  0.00    -0.062 A 
HETATM   17  C1  UNL     1       4.144   8.025  14.081  1.00  0.00     0.048 C 
HETATM   18  C30 UNL     1       2.181   7.522  15.571  1.00  0.00     0.007 A 
HETATM   19  C29 UNL     1       0.816   7.568  15.861  1.00  0.00     0.016 A 
ENDBRANCH   1  13
BRANCH  10  20
HETATM   20  C17 UNL     1      -3.046   5.158  13.481  1.00  0.00     0.181 A 
HETATM   21  N4  UNL     1      -4.317   5.338  13.722  1.00  0.00    -0.322 N 
HETATM   22  C18 UNL     1      -5.128   4.434  13.094  1.00  0.00     0.147 A 
ATOM     23  H4  UNL     1      -4.671   6.082  14.322  1.00  0.00     0.169 HD
HETATM   24  C19 UNL     1      -4.709   3.400  12.283  1.00  0.00     0.101 A 
HETATM   25  N6  UNL     1      -6.522   4.343  13.140  1.00  0.00    -0.239 N 
HETATM   26  C20 UNL     1      -5.862   2.709  11.893  1.00  0.00     0.042 A 
HETATM   27  C28 UNL     1      -3.310   3.227  12.015  1.00  0.00     0.263 A 
HETATM   28  C21 UNL     1      -5.961   1.510  11.024  1.00  0.00     0.071 C 
HETATM   29  N5  UNL     1      -6.958   3.260  12.421  1.00  0.00    -0.295 N 
ATOM     30  H5  UNL     1      -7.921   2.940  12.313  1.00  0.00     0.187 HD
HETATM   31  O3  UNL     1      -2.845   2.361  11.287  1.00  0.00    -0.267 OA
HETATM   32  N7  UNL     1      -2.533   4.153  12.670  1.00  0.00    -0.304 N 
HETATM   33  H20 UNL     1      -1.535   4.126  12.495  1.00  0.00     0.171 HD
BRANCH  25  34
HETATM   34  C22 UNL     1      -7.475   5.176  13.803  1.00  0.00     0.058 A 
HETATM   35  C23 UNL     1      -7.370   5.359  15.192  1.00  0.00     0.031 A 
HETATM   36  C24 UNL     1      -8.273   6.181  15.873  1.00  0.00     0.002 A 
HETATM   37  C25 UNL     1      -9.289   6.827  15.175  1.00  0.00     0.000 A 
HETATM   38  C26 UNL     1      -9.410   6.643  13.799  1.00  0.00     0.002 A 
HETATM   39  C27 UNL     1      -8.513   5.818  13.115  1.00  0.00     0.031 A 
ENDBRANCH  25  34
ENDBRANCH  10  20
BRANCH   5  40
HETATM   40  C9  UNL     1      -2.836  11.427  17.739  1.00  0.00    -0.034 A 
HETATM   41  C10 UNL     1      -3.245  12.763  17.624  1.00  0.00     0.013 A 
HETATM   42  C11 UNL     1      -2.526  13.785  18.253  1.00  0.00     0.024 A 
HETATM   43  C12 UNL     1      -1.400  13.473  19.010  1.00  0.00     0.034 A 
HETATM   44 CL1  UNL     1      -0.514  14.729  19.783  1.00  0.00    -0.084 Cl
HETATM   45  C13 UNL     1      -0.989  12.149  19.147  1.00  0.00     0.024 A 
HETATM   46  C14 UNL     1      -1.709  11.130  18.518  1.00  0.00     0.013 A 
ENDBRANCH   5  40
TORSDOF 4
ENDMDL
MODEL 4
REMARK minimizedAffinity -7.97912836
REMARK CNNscore 0.0610515922
REMARK CNNaffinity 6.28771019
REMARK  4 active torsions:
REMARK  status: ('A' for Active; 'I' for Inactive)
REMARK    1  A    between atoms: C5_5  and  C6_6 
REMARK    2  A    between atoms: C8_10  and  C9_11 
REMARK       I    between atoms: N3_21  and  C16_22 
REMARK    3  A    between atoms: C16_22  and  C17_24 
REMARK    4  A    between atoms: N6_33  and  C22_34 
ROOT
HETATM    1  C6  UNL     1     -11.392   9.454  15.482  1.00  0.00     0.141 C 
HETATM    2  N1  UNL     1     -12.400   9.885  14.787  1.00  0.00    -0.336 N 
ATOM      3  H1  UNL     1     -13.099  10.494  15.212  1.00  0.00     0.168 HD
HETATM    4  C7  UNL     1     -12.512   9.510  13.472  1.00  0.00     0.104 C 
HETATM    5  C8  UNL     1     -13.537   9.895  12.687  1.00  0.00     0.046 C 
HETATM    6  C15 UNL     1     -11.450   8.685  12.809  1.00  0.00     0.287 C 
HETATM    7  O1  UNL     1     -11.415   8.444  11.606  1.00  0.00    -0.264 OA
HETATM    8  N2  UNL     1     -10.487   8.205  13.649  1.00  0.00    -0.253 N 
HETATM    9  N3  UNL     1     -10.390   8.586  15.006  1.00  0.00    -0.197 N 
HETATM   10  C16 UNL     1      -9.374   7.999  15.790  1.00  0.00     0.312 C 
HETATM   11  O2  UNL     1      -9.274   8.033  17.016  1.00  0.00    -0.262 OA
HETATM   12  H11 UNL     1      -9.683   7.763  13.206  1.00  0.00     0.191 HD
ENDROOT
BRANCH   1  13
HETATM   13  C5  UNL     1     -11.308   9.935  16.879  1.00  0.00     0.010 A 
HETATM   14  C4  UNL     1     -10.642  11.131  17.162  1.00  0.00     0.016 A 
HETATM   15  C3  UNL     1     -10.608  11.600  18.476  1.00  0.00     0.007 A 
HETATM   16  C2  UNL     1     -11.236  10.881  19.504  1.00  0.00    -0.062 A 
HETATM   17  C1  UNL     1     -11.226  11.400  20.913  1.00  0.00     0.048 C 
HETATM   18  C30 UNL     1     -11.930   9.702  19.196  1.00  0.00     0.007 A 
HETATM   19  C29 UNL     1     -11.972   9.228  17.884  1.00  0.00     0.016 A 
ENDBRANCH   1  13
BRANCH  10  20
HETATM   20  C17 UNL     1      -8.296   7.175  15.097  1.00  0.00     0.181 A 
HETATM   21  N4  UNL     1      -7.051   7.564  15.041  1.00  0.00    -0.322 N 
HETATM   22  C18 UNL     1      -6.229   6.686  14.391  1.00  0.00     0.147 A 
ATOM     23  H4  UNL     1      -6.722   8.442  15.445  1.00  0.00     0.169 HD
HETATM   24  C19 UNL     1      -6.616   5.494  13.815  1.00  0.00     0.101 A 
HETATM   25  N6  UNL     1      -4.857   6.797  14.155  1.00  0.00    -0.239 N 
HETATM   26  C20 UNL     1      -5.469   4.945  13.230  1.00  0.00     0.042 A 
HETATM   27  C28 UNL     1      -7.985   5.072  13.900  1.00  0.00     0.263 A 
HETATM   28  C21 UNL     1      -5.345   3.672  12.477  1.00  0.00     0.071 C 
HETATM   29  N5  UNL     1      -4.408   5.734  13.414  1.00  0.00    -0.295 N 
ATOM     30  H5  UNL     1      -3.459   5.579  13.073  1.00  0.00     0.187 HD
HETATM   31  O3  UNL     1      -8.416   4.021  13.449  1.00  0.00    -0.267 OA
HETATM   32  N7  UNL     1      -8.774   5.987  14.557  1.00  0.00    -0.304 N 
HETATM   33  H20 UNL     1      -9.748   5.741  14.698  1.00  0.00     0.171 HD
BRANCH  25  34
HETATM   34  C22 UNL     1      -3.935   7.813  14.556  1.00  0.00     0.058 A 
HETATM   35  C23 UNL     1      -3.423   7.791  15.864  1.00  0.00     0.031 A 
HETATM   36  C24 UNL     1      -2.506   8.758  16.287  1.00  0.00     0.002 A 
HETATM   37  C25 UNL     1      -2.093   9.757  15.410  1.00  0.00     0.000 A 
HETATM   38  C26 UNL     1      -2.604   9.796  14.115  1.00  0.00     0.002 A 
HETATM   39  C27 UNL     1      -3.526   8.834  13.689  1.00  0.00     0.031 A 
ENDBRANCH  25  34
ENDBRANCH  10  20
BRANCH   5  40
HETATM   40  C9  UNL     1     -14.679  10.734  13.083  1.00  0.00    -0.034 A 
HETATM   41  C10 UNL     1     -14.605  12.118  12.865  1.00  0.00     0.013 A 
HETATM   42  C11 UNL     1     -15.680  12.950  13.195  1.00  0.00     0.024 A 
HETATM   43  C12 UNL     1     -16.840  12.399  13.735  1.00  0.00     0.034 A 
HETATM   44 CL1  UNL     1     -18.162  13.422  14.142  1.00  0.00    -0.084 Cl
HETATM   45  C13 UNL     1     -16.936  11.026  13.943  1.00  0.00     0.024 A 
HETATM   46  C14 UNL     1     -15.861  10.196  13.611  1.00  0.00     0.013 A 
ENDBRANCH   5  40
TORSDOF 4
ENDMDL
MODEL 5
REMARK minimizedAffinity -8.39064789
REMARK CNNscore 0.0539593138
REMARK CNNaffinity 5.45148849
REMARK  4 active torsions:
REMARK  status: ('A' for Active; 'I' for Inactive)
REMARK    1  A    between atoms: C5_5  and  C6_6 
REMARK    2  A    between atoms: C8_10  and  C9_11 
REMARK       I    between atoms: N3_21  and  C16_22 
REMARK    3  A    between atoms: C16_22  and  C17_24 
REMARK    4  A    between atoms: N6_33  and  C22_34 
ROOT
HETATM    1  C6  UNL     1       5.412  12.739  22.033  1.00  0.00     0.141 C 
HETATM    2  N1  UNL     1       5.113  13.767  22.767  1.00  0.00    -0.336 N 
ATOM      3  H1  UNL     1       4.278  13.759  23.352  1.00  0.00     0.168 HD
HETATM    4  C7  UNL     1       5.937  14.864  22.744  1.00  0.00     0.104 C 
HETATM    5  C8  UNL     1       5.688  15.979  23.459  1.00  0.00     0.046 C 
HETATM    6  C15 UNL     1       7.211  14.860  21.955  1.00  0.00     0.287 C 
HETATM    7  O1  UNL     1       8.060  15.745  22.013  1.00  0.00    -0.264 OA
HETATM    8  N2  UNL     1       7.382  13.774  21.145  1.00  0.00    -0.253 N 
HETATM    9  N3  UNL     1       6.518  12.656  21.165  1.00  0.00    -0.197 N 
HETATM   10  C16 UNL     1       6.772  11.605  20.259  1.00  0.00     0.312 C 
HETATM   11  O2  UNL     1       6.018  10.673  19.978  1.00  0.00    -0.262 OA
HETATM   12  H11 UNL     1       8.297  13.678  20.708  1.00  0.00     0.191 HD
ENDROOT
BRANCH   1  13
HETATM   13  C5  UNL     1       4.507  11.573  22.141  1.00  0.00     0.010 A 
HETATM   14  C4  UNL     1       4.799  10.551  23.048  1.00  0.00     0.016 A 
HETATM   15  C3  UNL     1       3.915   9.478  23.176  1.00  0.00     0.007 A 
HETATM   16  C2  UNL     1       2.745   9.425  22.404  1.00  0.00    -0.062 A 
HETATM   17  C1  UNL     1       1.779   8.286  22.562  1.00  0.00     0.048 C 
HETATM   18  C30 UNL     1       2.451  10.476  21.524  1.00  0.00     0.007 A 
HETATM   19  C29 UNL     1       3.327  11.555  21.394  1.00  0.00     0.016 A 
ENDBRANCH   1  13
BRANCH  10  20
HETATM   20  C17 UNL     1       8.079  11.611  19.475  1.00  0.00     0.181 A 
HETATM   21  N4  UNL     1       8.196  11.027  18.313  1.00  0.00    -0.322 N 
HETATM   22  C18 UNL     1       9.439  11.152  17.758  1.00  0.00     0.147 A 
ATOM     23  H4  UNL     1       7.432  10.524  17.862  1.00  0.00     0.169 HD
HETATM   24  C19 UNL     1      10.513  11.807  18.323  1.00  0.00     0.101 A 
HETATM   25  N6  UNL     1       9.897  10.650  16.537  1.00  0.00    -0.239 N 
HETATM   26  C20 UNL     1      11.585  11.652  17.436  1.00  0.00     0.042 A 
HETATM   27  C28 UNL     1      10.363  12.459  19.593  1.00  0.00     0.263 A 
HETATM   28  C21 UNL     1      12.972  12.160  17.578  1.00  0.00     0.071 C 
HETATM   29  N5  UNL     1      11.227  10.938  16.366  1.00  0.00    -0.295 N 
ATOM     30  H5  UNL     1      11.820  10.664  15.582  1.00  0.00     0.187 HD
HETATM   31  O3  UNL     1      11.246  13.088  20.158  1.00  0.00    -0.267 OA
HETATM   32  N7  UNL     1       9.101  12.302  20.115  1.00  0.00    -0.304 N 
HETATM   33  H20 UNL     1       8.901  12.773  20.991  1.00  0.00     0.171 HD
BRANCH  25  34
HETATM   34  C22 UNL     1       9.200   9.919  15.526  1.00  0.00     0.058 A 
HETATM   35  C23 UNL     1       8.399  10.620  14.608  1.00  0.00     0.031 A 
HETATM   36  C24 UNL     1       7.717   9.942  13.594  1.00  0.00     0.002 A 
HETATM   37  C25 UNL     1       7.826   8.559  13.486  1.00  0.00     0.000 A 
HETATM   38  C26 UNL     1       8.607   7.852  14.397  1.00  0.00     0.002 A 
HETATM   39  C27 UNL     1       9.288   8.525  15.417  1.00  0.00     0.031 A 
ENDBRANCH  25  34
ENDBRANCH  10  20
BRANCH   5  40
HETATM   40  C9  UNL     1       4.533  16.218  24.339  1.00  0.00    -0.034 A 
HETATM   41  C10 UNL     1       4.702  17.041  25.463  1.00  0.00     0.013 A 
HETATM   42  C11 UNL     1       3.625  17.323  26.309  1.00  0.00     0.024 A 
HETATM   43  C12 UNL     1       2.368  16.793  26.028  1.00  0.00     0.034 A 
HETATM   44 CL1  UNL     1       1.042  17.138  27.067  1.00  0.00    -0.084 Cl
HETATM   45  C13 UNL     1       2.179  15.988  24.907  1.00  0.00     0.024 A 
HETATM   46  C14 UNL     1       3.257  15.707  24.063  1.00  0.00     0.013 A 
ENDBRANCH   5  40
TORSDOF 4
ENDMDL
MODEL 6
REMARK minimizedAffinity -8.31801128
REMARK CNNscore 0.0378953815
REMARK CNNaffinity 4.48853159
REMARK  4 active torsions:
REMARK  status: ('A' for Active; 'I' for Inactive)
REMARK    1  A    between atoms: C5_5  and  C6_6 
REMARK    2  A    between atoms: C8_10  and  C9_11 
REMARK       I    between atoms: N3_21  and  C16_22 
REMARK    3  A    between atoms: C16_22  and  C17_24 
REMARK    4  A    between atoms: N6_33  and  C22_34 
ROOT
HETATM    1  C6  UNL     1      12.693  11.904  17.787  1.00  0.00     0.141 C 
HETATM    2  N1  UNL     1      12.298  11.424  16.648  1.00  0.00    -0.336 N 
ATOM      3  H1  UNL     1      11.305  11.292  16.458  1.00  0.00     0.168 HD
HETATM    4  C7  UNL     1      13.236  11.098  15.701  1.00  0.00     0.104 C 
HETATM    5  C8  UNL     1      12.913  10.575  14.502  1.00  0.00     0.046 C 
HETATM    6  C15 UNL     1      14.694  11.365  15.931  1.00  0.00     0.287 C 
HETATM    7  O1  UNL     1      15.561  11.236  15.073  1.00  0.00    -0.264 OA
HETATM    8  N2  UNL     1      15.010  11.777  17.194  1.00  0.00    -0.253 N 
HETATM    9  N3  UNL     1      14.036  12.096  18.166  1.00  0.00    -0.197 N 
HETATM   10  C16 UNL     1      14.479  12.480  19.449  1.00  0.00     0.312 C 
HETATM   11  O2  UNL     1      13.796  12.575  20.469  1.00  0.00    -0.262 OA
HETATM   12  H11 UNL     1      15.967  12.098  17.335  1.00  0.00     0.191 HD
ENDROOT
BRANCH   1  13
HETATM   13  C5  UNL     1      11.627  12.279  18.743  1.00  0.00     0.010 A 
HETATM   14  C4  UNL     1      11.046  11.299  19.554  1.00  0.00     0.016 A 
HETATM   15  C3  UNL     1      10.075  11.670  20.485  1.00  0.00     0.007 A 
HETATM   16  C2  UNL     1       9.685  13.012  20.609  1.00  0.00    -0.062 A 
HETATM   17  C1  UNL     1       8.662  13.417  21.631  1.00  0.00     0.048 C 
HETATM   18  C30 UNL     1      10.303  13.987  19.813  1.00  0.00     0.007 A 
HETATM   19  C29 UNL     1      11.278  13.625  18.882  1.00  0.00     0.016 A 
ENDBRANCH   1  13
BRANCH  10  20
HETATM   20  C17 UNL     1      15.962  12.759  19.661  1.00  0.00     0.181 A 
HETATM   21  N4  UNL     1      16.396  13.899  20.127  1.00  0.00    -0.322 N 
HETATM   22  C18 UNL     1      17.755  13.956  20.261  1.00  0.00     0.147 A 
ATOM     23  H4  UNL     1      15.778  14.674  20.369  1.00  0.00     0.169 HD
HETATM   24  C19 UNL     1      18.641  12.949  19.940  1.00  0.00     0.101 A 
HETATM   25  N6  UNL     1      18.535  15.019  20.724  1.00  0.00    -0.239 N 
HETATM   26  C20 UNL     1      19.922  13.451  20.195  1.00  0.00     0.042 A 
HETATM   27  C28 UNL     1      18.147  11.697  19.444  1.00  0.00     0.263 A 
HETATM   28  C21 UNL     1      21.227  12.769  20.008  1.00  0.00     0.071 C 
HETATM   29  N5  UNL     1      19.868  14.705  20.650  1.00  0.00    -0.295 N 
ATOM     30  H5  UNL     1      20.656  15.307  20.892  1.00  0.00     0.187 HD
HETATM   31  O3  UNL     1      18.849  10.736  19.162  1.00  0.00    -0.267 OA
HETATM   32  N7  UNL     1      16.777  11.686  19.322  1.00  0.00    -0.304 N 
HETATM   33  H20 UNL     1      16.346  10.819  19.020  1.00  0.00     0.171 HD
BRANCH  25  34
HETATM   34  C22 UNL     1      18.141  16.299  21.221  1.00  0.00     0.058 A 
HETATM   35  C23 UNL     1      16.776  16.559  21.427  1.00  0.00     0.031 A 
HETATM   36  C24 UNL     1      16.353  17.794  21.929  1.00  0.00     0.002 A 
HETATM   37  C25 UNL     1      17.288  18.781  22.228  1.00  0.00     0.000 A 
HETATM   38  C26 UNL     1      18.643  18.538  22.015  1.00  0.00     0.002 A 
HETATM   39  C27 UNL     1      19.070  17.307  21.509  1.00  0.00     0.031 A 
ENDBRANCH  25  34
ENDBRANCH  10  20
BRANCH   5  40
HETATM   40  C9  UNL     1      11.560  10.258  14.018  1.00  0.00    -0.034 A 
HETATM   41  C10 UNL     1      11.068   8.957  14.199  1.00  0.00     0.013 A 
HETATM   42  C11 UNL     1       9.776   8.619  13.785  1.00  0.00     0.024 A 
HETATM   43  C12 UNL     1       8.964   9.586  13.198  1.00  0.00     0.034 A 
HETATM   44 CL1  UNL     1       7.374   9.172  12.688  1.00  0.00    -0.084 Cl
HETATM   45  C13 UNL     1       9.430  10.887  13.026  1.00  0.00     0.024 A 
HETATM   46  C14 UNL     1      10.722  11.222  13.441  1.00  0.00     0.013 A 
ENDBRANCH   5  40
TORSDOF 4
ENDMDL
MODEL 7
REMARK minimizedAffinity -10.8212414
REMARK CNNscore 0.0361163281
REMARK CNNaffinity 7.00577307
REMARK  4 active torsions:
REMARK  status: ('A' for Active; 'I' for Inactive)
REMARK    1  A    between atoms: C5_5  and  C6_6 
REMARK    2  A    between atoms: C8_10  and  C9_11 
REMARK       I    between atoms: N3_21  and  C16_22 
REMARK    3  A    between atoms: C16_22  and  C17_24 
REMARK    4  A    between atoms: N6_33  and  C22_34 
ROOT
HETATM    1  C6  UNL     1      -0.405   7.057  12.984  1.00  0.00     0.141 C 
HETATM    2  N1  UNL     1       0.065   7.867  13.882  1.00  0.00    -0.336 N 
ATOM      3  H1  UNL     1       0.962   8.332  13.741  1.00  0.00     0.168 HD
HETATM    4  C7  UNL     1      -0.661   8.090  15.025  1.00  0.00     0.104 C 
HETATM    5  C8  UNL     1      -0.235   8.898  16.015  1.00  0.00     0.046 C 
HETATM    6  C15 UNL     1      -2.019   7.481  15.210  1.00  0.00     0.287 C 
HETATM    7  O1  UNL     1      -2.778   7.759  16.134  1.00  0.00    -0.264 OA
HETATM    8  N2  UNL     1      -2.376   6.572  14.256  1.00  0.00    -0.253 N 
HETATM    9  N3  UNL     1      -1.612   6.339  13.090  1.00  0.00    -0.197 N 
HETATM   10  C16 UNL     1      -2.060   5.351  12.189  1.00  0.00     0.312 C 
HETATM   11  O2  UNL     1      -1.426   4.860  11.255  1.00  0.00    -0.262 OA
HETATM   12  H11 UNL     1      -3.343   6.251  14.280  1.00  0.00     0.191 HD
ENDROOT
BRANCH   1  13
HETATM   13  C5  UNL     1       0.407   6.899  11.756  1.00  0.00     0.010 A 
HETATM   14  C4  UNL     1       1.432   5.950  11.720  1.00  0.00     0.016 A 
HETATM   15  C3  UNL     1       2.161   5.776  10.543  1.00  0.00     0.007 A 
HETATM   16  C2  UNL     1       1.869   6.544   9.406  1.00  0.00    -0.062 A 
HETATM   17  C1  UNL     1       2.633   6.337   8.129  1.00  0.00     0.048 C 
HETATM   18  C30 UNL     1       0.814   7.467   9.449  1.00  0.00     0.007 A 
HETATM   19  C29 UNL     1       0.077   7.644  10.621  1.00  0.00     0.016 A 
ENDBRANCH   1  13
BRANCH  10  20
HETATM   20  C17 UNL     1      -3.449   4.753  12.386  1.00  0.00     0.181 A 
HETATM   21  N4  UNL     1      -4.416   5.416  12.961  1.00  0.00    -0.322 N 
HETATM   22  C18 UNL     1      -5.590   4.721  13.034  1.00  0.00     0.147 A 
ATOM     23  H4  UNL     1      -4.305   6.364  13.321  1.00  0.00     0.169 HD
HETATM   24  C19 UNL     1      -5.798   3.436  12.577  1.00  0.00     0.101 A 
HETATM   25  N6  UNL     1      -6.808   5.132  13.583  1.00  0.00    -0.239 N 
HETATM   26  C20 UNL     1      -7.122   3.111  12.892  1.00  0.00     0.042 A 
HETATM   27  C28 UNL     1      -4.729   2.728  11.933  1.00  0.00     0.263 A 
HETATM   28  C21 UNL     1      -7.842   1.841  12.625  1.00  0.00     0.071 C 
HETATM   29  N5  UNL     1      -7.732   4.122  13.517  1.00  0.00    -0.295 N 
ATOM     30  H5  UNL     1      -8.688   4.138  13.872  1.00  0.00     0.187 HD
HETATM   31  O3  UNL     1      -4.824   1.600  11.469  1.00  0.00    -0.267 OA
HETATM   32  N7  UNL     1      -3.568   3.462  11.886  1.00  0.00    -0.304 N 
HETATM   33  H20 UNL     1      -2.777   3.048  11.405  1.00  0.00     0.171 HD
BRANCH  25  34
HETATM   34  C22 UNL     1      -7.174   6.383  14.169  1.00  0.00     0.058 A 
HETATM   35  C23 UNL     1      -6.164   7.297  14.512  1.00  0.00     0.031 A 
HETATM   36  C24 UNL     1      -6.484   8.538  15.070  1.00  0.00     0.002 A 
HETATM   37  C25 UNL     1      -7.816   8.878  15.294  1.00  0.00     0.000 A 
HETATM   38  C26 UNL     1      -8.825   7.974  14.970  1.00  0.00     0.002 A 
HETATM   39  C27 UNL     1      -8.509   6.730  14.415  1.00  0.00     0.031 A 
ENDBRANCH  25  34
ENDBRANCH  10  20
BRANCH   5  40
HETATM   40  C9  UNL     1       1.034   9.641  16.058  1.00  0.00    -0.034 A 
HETATM   41  C10 UNL     1       1.583  10.106  14.853  1.00  0.00     0.013 A 
HETATM   42  C11 UNL     1       2.771  10.845  14.849  1.00  0.00     0.024 A 
HETATM   43  C12 UNL     1       3.409  11.133  16.052  1.00  0.00     0.034 A 
HETATM   44 CL1  UNL     1       4.870  12.041  16.049  1.00  0.00    -0.084 Cl
HETATM   45  C13 UNL     1       2.869  10.693  17.259  1.00  0.00     0.024 A 
HETATM   46  C14 UNL     1       1.682   9.955  17.260  1.00  0.00     0.013 A 
ENDBRANCH   5  40
TORSDOF 4
ENDMDL
MODEL 8
REMARK minimizedAffinity -8.6076088
REMARK CNNscore 0.0346970111
REMARK CNNaffinity 5.21415567
REMARK  4 active torsions:
REMARK  status: ('A' for Active; 'I' for Inactive)
REMARK    1  A    between atoms: C5_5  and  C6_6 
REMARK    2  A    between atoms: C8_10  and  C9_11 
REMARK       I    between atoms: N3_21  and  C16_22 
REMARK    3  A    between atoms: C16_22  and  C17_24 
REMARK    4  A    between atoms: N6_33  and  C22_34 
ROOT
HETATM    1  C6  UNL     1      10.162  10.691  16.212  1.00  0.00     0.141 C 
HETATM    2  N1  UNL     1      11.346  10.948  15.748  1.00  0.00    -0.336 N 
ATOM      3  H1  UNL     1      11.668  10.514  14.884  1.00  0.00     0.168 HD
HETATM    4  C7  UNL     1      12.158  11.814  16.437  1.00  0.00     0.104 C 
HETATM    5  C8  UNL     1      13.407  12.119  16.035  1.00  0.00     0.046 C 
HETATM    6  C15 UNL     1      11.668  12.526  17.662  1.00  0.00     0.287 C 
HETATM    7  O1  UNL     1      12.287  13.420  18.232  1.00  0.00    -0.264 OA
HETATM    8  N2  UNL     1      10.450  12.112  18.119  1.00  0.00    -0.253 N 
HETATM    9  N3  UNL     1       9.629  11.208  17.409  1.00  0.00    -0.197 N 
HETATM   10  C16 UNL     1       8.404  10.823  17.994  1.00  0.00     0.312 C 
HETATM   11  O2  UNL     1       7.676   9.896  17.643  1.00  0.00    -0.262 OA
HETATM   12  H11 UNL     1      10.034  12.672  18.861  1.00  0.00     0.191 HD
ENDROOT
BRANCH   1  13
HETATM   13  C5  UNL     1       9.322   9.786  15.396  1.00  0.00     0.010 A 
HETATM   14  C4  UNL     1       9.412   8.403  15.579  1.00  0.00     0.016 A 
HETATM   15  C3  UNL     1       8.582   7.560  14.838  1.00  0.00     0.007 A 
HETATM   16  C2  UNL     1       7.666   8.093  13.919  1.00  0.00    -0.062 A 
HETATM   17  C1  UNL     1       6.752   7.190  13.142  1.00  0.00     0.048 C 
HETATM   18  C30 UNL     1       7.565   9.484  13.773  1.00  0.00     0.007 A 
HETATM   19  C29 UNL     1       8.388  10.334  14.514  1.00  0.00     0.016 A 
ENDBRANCH   1  13
BRANCH  10  20
HETATM   20  C17 UNL     1       7.916  11.568  19.232  1.00  0.00     0.181 A 
HETATM   21  N4  UNL     1       6.830  11.221  19.870  1.00  0.00    -0.322 N 
HETATM   22  C18 UNL     1       6.564  11.997  20.963  1.00  0.00     0.147 A 
ATOM     23  H4  UNL     1       6.237  10.445  19.578  1.00  0.00     0.169 HD
HETATM   24  C19 UNL     1       7.320  13.066  21.398  1.00  0.00     0.101 A 
HETATM   25  N6  UNL     1       5.492  11.900  21.854  1.00  0.00    -0.239 N 
HETATM   26  C20 UNL     1       6.662  13.589  22.516  1.00  0.00     0.042 A 
HETATM   27  C28 UNL     1       8.520  13.423  20.696  1.00  0.00     0.263 A 
HETATM   28  C21 UNL     1       7.057  14.751  23.352  1.00  0.00     0.071 C 
HETATM   29  N5  UNL     1       5.548  12.904  22.786  1.00  0.00    -0.295 N 
ATOM     30  H5  UNL     1       4.877  13.088  23.532  1.00  0.00     0.187 HD
HETATM   31  O3  UNL     1       9.269  14.332  21.022  1.00  0.00    -0.267 OA
HETATM   32  N7  UNL     1       8.745  12.620  19.603  1.00  0.00    -0.304 N 
HETATM   33  H20 UNL     1       9.599  12.780  19.079  1.00  0.00     0.171 HD
BRANCH  25  34
HETATM   34  C22 UNL     1       4.421  10.956  21.901  1.00  0.00     0.058 A 
HETATM   35  C23 UNL     1       4.291  10.127  23.028  1.00  0.00     0.031 A 
HETATM   36  C24 UNL     1       3.245   9.204  23.119  1.00  0.00     0.002 A 
HETATM   37  C25 UNL     1       2.320   9.097  22.084  1.00  0.00     0.000 A 
HETATM   38  C26 UNL     1       2.446   9.904  20.956  1.00  0.00     0.002 A 
HETATM   39  C27 UNL     1       3.493  10.826  20.859  1.00  0.00     0.031 A 
ENDBRANCH  25  34
ENDBRANCH  10  20
BRANCH   5  40
HETATM   40  C9  UNL     1      14.103  11.590  14.851  1.00  0.00    -0.034 A 
HETATM   41  C10 UNL     1      13.340  11.207  13.738  1.00  0.00     0.013 A 
HETATM   42  C11 UNL     1      13.961  10.730  12.579  1.00  0.00     0.024 A 
HETATM   43  C12 UNL     1      15.350  10.646  12.524  1.00  0.00     0.034 A 
HETATM   44 CL1  UNL     1      16.115  10.059  11.099  1.00  0.00    -0.084 Cl
HETATM   45  C13 UNL     1      16.123  11.038  13.614  1.00  0.00     0.024 A 
HETATM   46  C14 UNL     1      15.500  11.515  14.771  1.00  0.00     0.013 A 
ENDBRANCH   5  40
TORSDOF 4
ENDMDL
MODEL 9
REMARK minimizedAffinity -9.66232967
REMARK CNNscore 0.0296007637
REMARK CNNaffinity 5.62692404
REMARK  4 active torsions:
REMARK  status: ('A' for Active; 'I' for Inactive)
REMARK    1  A    between atoms: C5_5  and  C6_6 
REMARK    2  A    between atoms: C8_10  and  C9_11 
REMARK       I    between atoms: N3_21  and  C16_22 
REMARK    3  A    between atoms: C16_22  and  C17_24 
REMARK    4  A    between atoms: N6_33  and  C22_34 
ROOT
HETATM    1  C6  UNL     1      -9.578   7.990  14.325  1.00  0.00     0.141 C 
HETATM    2  N1  UNL     1      -8.678   7.097  14.049  1.00  0.00    -0.336 N 
ATOM      3  H1  UNL     1      -8.939   6.221  13.599  1.00  0.00     0.168 HD
HETATM    4  C7  UNL     1      -7.368   7.349  14.373  1.00  0.00     0.104 C 
HETATM    5  C8  UNL     1      -6.376   6.468  14.141  1.00  0.00     0.046 C 
HETATM    6  C15 UNL     1      -6.955   8.666  14.958  1.00  0.00     0.287 C 
HETATM    7  O1  UNL     1      -5.788   9.009  15.129  1.00  0.00    -0.264 OA
HETATM    8  N2  UNL     1      -7.987   9.493  15.298  1.00  0.00    -0.253 N 
HETATM    9  N3  UNL     1      -9.334   9.216  14.973  1.00  0.00    -0.197 N 
HETATM   10  C16 UNL     1     -10.322  10.127  15.405  1.00  0.00     0.312 C 
HETATM   11  O2  UNL     1     -11.539   9.947  15.414  1.00  0.00    -0.262 OA
HETATM   12  H11 UNL     1      -7.732  10.443  15.565  1.00  0.00     0.191 HD
ENDROOT
BRANCH   1  13
HETATM   13  C5  UNL     1     -10.962   7.674  13.907  1.00  0.00     0.010 A 
HETATM   14  C4  UNL     1     -11.697   6.714  14.608  1.00  0.00     0.016 A 
HETATM   15  C3  UNL     1     -13.017   6.457  14.236  1.00  0.00     0.007 A 
HETATM   16  C2  UNL     1     -13.603   7.154  13.168  1.00  0.00    -0.062 A 
HETATM   17  C1  UNL     1     -15.032   6.899  12.785  1.00  0.00     0.048 C 
HETATM   18  C30 UNL     1     -12.863   8.138  12.498  1.00  0.00     0.007 A 
HETATM   19  C29 UNL     1     -11.543   8.405  12.867  1.00  0.00     0.016 A 
ENDBRANCH   1  13
BRANCH  10  20
HETATM   20  C17 UNL     1      -9.882  11.466  15.986  1.00  0.00     0.181 A 
HETATM   21  N4  UNL     1      -9.877  11.699  17.271  1.00  0.00    -0.322 N 
HETATM   22  C18 UNL     1      -9.437  12.950  17.600  1.00  0.00     0.147 A 
ATOM     23  H4  UNL     1     -10.173  11.011  17.963  1.00  0.00     0.169 HD
HETATM   24  C19 UNL     1      -9.036  13.925  16.710  1.00  0.00     0.101 A 
HETATM   25  N6  UNL     1      -9.310  13.517  18.871  1.00  0.00    -0.239 N 
HETATM   26  C20 UNL     1      -8.709  15.051  17.475  1.00  0.00     0.042 A 
HETATM   27  C28 UNL     1      -9.031  13.647  15.303  1.00  0.00     0.263 A 
HETATM   28  C21 UNL     1      -8.230  16.373  17.001  1.00  0.00     0.071 C 
HETATM   29  N5  UNL     1      -8.891  14.819  18.778  1.00  0.00    -0.295 N 
ATOM     30  H5  UNL     1      -8.747  15.476  19.546  1.00  0.00     0.187 HD
HETATM   31  O3  UNL     1      -8.666  14.434  14.441  1.00  0.00    -0.267 OA
HETATM   32  N7  UNL     1      -9.485  12.381  15.018  1.00  0.00    -0.304 N 
HETATM   33  H20 UNL     1      -9.470  12.091  14.046  1.00  0.00     0.171 HD
BRANCH  25  34
HETATM   34  C22 UNL     1      -9.555  12.948  20.158  1.00  0.00     0.058 A 
HETATM   35  C23 UNL     1      -8.689  13.264  21.219  1.00  0.00     0.031 A 
HETATM   36  C24 UNL     1      -8.907  12.741  22.497  1.00  0.00     0.002 A 
HETATM   37  C25 UNL     1      -9.989  11.896  22.729  1.00  0.00     0.000 A 
HETATM   38  C26 UNL     1     -10.847  11.566  21.682  1.00  0.00     0.002 A 
HETATM   39  C27 UNL     1     -10.630  12.083  20.400  1.00  0.00     0.031 A 
ENDBRANCH  25  34
ENDBRANCH  10  20
BRANCH   5  40
HETATM   40  C9  UNL     1      -6.511   5.130  13.543  1.00  0.00    -0.034 A 
HETATM   41  C10 UNL     1      -5.486   4.659  12.709  1.00  0.00     0.013 A 
HETATM   42  C11 UNL     1      -5.557   3.381  12.145  1.00  0.00     0.024 A 
HETATM   43  C12 UNL     1      -6.648   2.563  12.423  1.00  0.00     0.034 A 
HETATM   44 CL1  UNL     1      -6.737   0.990  11.730  1.00  0.00    -0.084 Cl
HETATM   45  C13 UNL     1      -7.667   3.009  13.261  1.00  0.00     0.024 A 
HETATM   46  C14 UNL     1      -7.594   4.286  13.824  1.00  0.00     0.013 A 
ENDBRANCH   5  40
TORSDOF 4
ENDMDL
