MODEL 1
REMARK minimizedAffinity -9.28138161
REMARK  4 active torsions:
REMARK  status: ('A' for Active; 'I' for Inactive)
REMARK    1  A    between atoms: C4_4  and  N1_5 
REMARK    2  A    between atoms: N1_5  and  C5_6 
REMARK    3  A    between atoms: C7_10  and  C8_11 
REMARK       I    between atoms: C8_11  and  N3_13 
REMARK    4  A    between atoms: N3_13  and  C9_14 
ROOT
HETATM    1  C5  UNL     1       4.914  -5.293  29.587  1.00  0.00     0.150 A 
HETATM    2  N2  UNL     1       5.911  -6.149  29.556  1.00  0.00    -0.345 N 
ATOM      3  H2  UNL     1       5.907  -7.026  29.034  1.00  0.00     0.167 HD
HETATM    4  C6  UNL     1       6.963  -5.698  30.325  1.00  0.00     0.115 A 
HETATM    5  C7  UNL     1       6.802  -4.452  30.893  1.00  0.00     0.091 A 
HETATM    6  S1  UNL     1       5.245  -3.857  30.491  1.00  0.00    -0.047 SA
ENDROOT
BRANCH   1   7
HETATM    7  N1  UNL     1       3.722  -5.401  28.952  1.00  0.00    -0.323 N 
HETATM    8  H5  UNL     1       2.975  -4.841  29.342  1.00  0.00     0.169 HD
BRANCH   7   9
HETATM    9  C4  UNL     1       3.221  -6.603  28.406  1.00  0.00     0.110 A 
HETATM   10  C3  UNL     1       4.137  -7.508  27.900  1.00  0.00     0.073 A 
HETATM   11  C2  UNL     1       3.645  -8.683  27.366  1.00  0.00     0.010 A 
HETATM   12  C1  UNL     1       4.579  -9.711  26.804  1.00  0.00     0.068 C 
HETATM   13  N5  UNL     1       2.328  -8.958  27.331  1.00  0.00    -0.350 N 
HETATM   14  C16 UNL     1       1.506  -8.034  27.857  1.00  0.00     0.078 A 
ATOM     15  H5  UNL     1       1.972  -9.823  26.925  1.00  0.00     0.167 HD
HETATM   16  N4  UNL     1       1.904  -6.863  28.379  1.00  0.00    -0.332 N 
HETATM   17  C17 UNL     1       0.036  -8.305  27.816  1.00  0.00     0.089 C 
ATOM     18  H4  UNL     1       1.228  -6.192  28.744  1.00  0.00     0.168 HD
ENDBRANCH   7   9
ENDBRANCH   1   7
BRANCH   5  19
HETATM   19  C8  UNL     1       7.696  -3.668  31.725  1.00  0.00     0.264 C 
HETATM   20  O1  UNL     1       7.483  -2.493  32.018  1.00  0.00    -0.267 OA
HETATM   21  N3  UNL     1       8.864  -4.338  32.081  1.00  0.00    -0.320 N 
HETATM   22  H7  UNL     1       9.177  -5.022  31.408  1.00  0.00     0.169 HD
BRANCH  21  23
HETATM   23  C9  UNL     1       9.854  -3.791  32.938  1.00  0.00     0.062 A 
HETATM   24  C10 UNL     1       9.803  -4.120  34.312  1.00  0.00    -0.034 A 
HETATM   25  C11 UNL     1       8.754  -5.038  34.883  1.00  0.00     0.050 C 
HETATM   26  C12 UNL     1      10.780  -3.605  35.183  1.00  0.00     0.009 A 
HETATM   27  C13 UNL     1      11.786  -2.763  34.714  1.00  0.00     0.002 A 
HETATM   28  C14 UNL     1      11.812  -2.399  33.371  1.00  0.00     0.026 A 
HETATM   29  C15 UNL     1      10.846  -2.892  32.486  1.00  0.00     0.061 A 
HETATM   30 CL1  UNL     1      10.839  -2.194  30.900  1.00  0.00    -0.082 Cl
ENDBRANCH  21  23
ENDBRANCH   5  19
TORSDOF 4
ENDMDL
MODEL 2
REMARK minimizedAffinity -9.21157646
REMARK  4 active torsions:
REMARK  status: ('A' for Active; 'I' for Inactive)
REMARK    1  A    between atoms: C4_4  and  N1_5 
REMARK    2  A    between atoms: N1_5  and  C5_6 
REMARK    3  A    between atoms: C7_10  and  C8_11 
REMARK       I    between atoms: C8_11  and  N3_13 
REMARK    4  A    between atoms: N3_13  and  C9_14 
ROOT
HETATM    1  C5  UNL     1       5.061  -5.396  29.440  1.00  0.00     0.150 A 
HETATM    2  N2  UNL     1       6.129  -6.149  29.292  1.00  0.00    -0.345 N 
ATOM      3  H2  UNL     1       6.185  -6.963  28.679  1.00  0.00     0.167 HD
HETATM    4  C6  UNL     1       7.161  -5.688  30.081  1.00  0.00     0.115 A 
HETATM    5  C7  UNL     1       6.909  -4.529  30.785  1.00  0.00     0.091 A 
HETATM    6  S1  UNL     1       5.293  -4.040  30.486  1.00  0.00    -0.047 SA
ENDROOT
BRANCH   1   7
HETATM    7  N1  UNL     1       3.862  -5.546  28.825  1.00  0.00    -0.323 N 
HETATM    8  H5  UNL     1       3.104  -5.012  29.228  1.00  0.00     0.169 HD
BRANCH   7   9
HETATM    9  C4  UNL     1       3.394  -6.765  28.288  1.00  0.00     0.110 A 
HETATM   10  C3  UNL     1       2.024  -6.962  28.243  1.00  0.00     0.073 A 
HETATM   11  C2  UNL     1       1.569  -8.155  27.717  1.00  0.00     0.010 A 
HETATM   12  C1  UNL     1       0.099  -8.434  27.633  1.00  0.00     0.068 C 
HETATM   13  N5  UNL     1       2.407  -9.103  27.259  1.00  0.00    -0.350 N 
HETATM   14  C16 UNL     1       3.721  -8.828  27.324  1.00  0.00     0.078 A 
ATOM     15  H5  UNL     1       2.062  -9.985  26.882  1.00  0.00     0.167 HD
HETATM   16  N4  UNL     1       4.243  -7.701  27.834  1.00  0.00    -0.332 N 
HETATM   17  C17 UNL     1       4.676  -9.870  26.838  1.00  0.00     0.089 C 
ATOM     18  H4  UNL     1       5.252  -7.560  27.876  1.00  0.00     0.168 HD
ENDBRANCH   7   9
ENDBRANCH   1   7
BRANCH   5  19
HETATM   19  C8  UNL     1       7.758  -3.758  31.676  1.00  0.00     0.264 C 
HETATM   20  O1  UNL     1       7.493  -2.611  32.027  1.00  0.00    -0.267 OA
HETATM   21  N3  UNL     1       8.944  -4.402  32.017  1.00  0.00    -0.320 N 
HETATM   22  H7  UNL     1       9.295  -5.036  31.314  1.00  0.00     0.169 HD
BRANCH  21  23
HETATM   23  C9  UNL     1       9.897  -3.866  32.922  1.00  0.00     0.062 A 
HETATM   24  C10 UNL     1       9.785  -4.209  34.289  1.00  0.00    -0.034 A 
HETATM   25  C11 UNL     1       8.710  -5.129  34.804  1.00  0.00     0.050 C 
HETATM   26  C12 UNL     1      10.724  -3.705  35.207  1.00  0.00     0.009 A 
HETATM   27  C13 UNL     1      11.751  -2.861  34.790  1.00  0.00     0.002 A 
HETATM   28  C14 UNL     1      11.837  -2.483  33.454  1.00  0.00     0.026 A 
HETATM   29  C15 UNL     1      10.910  -2.966  32.523  1.00  0.00     0.061 A 
HETATM   30 CL1  UNL     1      10.973  -2.252  30.944  1.00  0.00    -0.082 Cl
ENDBRANCH  21  23
ENDBRANCH   5  19
TORSDOF 4
ENDMDL
MODEL 3
REMARK minimizedAffinity -8.70822525
REMARK  4 active torsions:
REMARK  status: ('A' for Active; 'I' for Inactive)
REMARK    1  A    between atoms: C4_4  and  N1_5 
REMARK    2  A    between atoms: N1_5  and  C5_6 
REMARK    3  A    between atoms: C7_10  and  C8_11 
REMARK       I    between atoms: C8_11  and  N3_13 
REMARK    4  A    between atoms: N3_13  and  C9_14 
ROOT
HETATM    1  C5  UNL     1       4.470  -5.086  29.757  1.00  0.00     0.150 A 
HETATM    2  N2  UNL     1       4.627  -3.781  29.815  1.00  0.00    -0.345 N 
ATOM      3  H2  UNL     1       3.943  -3.100  29.486  1.00  0.00     0.167 HD
HETATM    4  C6  UNL     1       5.843  -3.463  30.380  1.00  0.00     0.115 A 
HETATM    5  C7  UNL     1       6.596  -4.527  30.827  1.00  0.00     0.091 A 
HETATM    6  S1  UNL     1       5.766  -5.983  30.466  1.00  0.00    -0.047 SA
ENDROOT
BRANCH   1   7
HETATM    7  N1  UNL     1       3.403  -5.761  29.266  1.00  0.00    -0.323 N 
HETATM    8  H5  UNL     1       2.633  -5.874  29.912  1.00  0.00     0.169 HD
BRANCH   7   9
HETATM    9  C4  UNL     1       3.498  -6.867  28.393  1.00  0.00     0.110 A 
HETATM   10  C3  UNL     1       2.340  -7.578  28.130  1.00  0.00     0.073 A 
HETATM   11  C2  UNL     1       2.435  -8.659  27.275  1.00  0.00     0.010 A 
HETATM   12  C1  UNL     1       1.222  -9.472  26.943  1.00  0.00     0.068 C 
HETATM   13  N5  UNL     1       3.600  -9.023  26.708  1.00  0.00    -0.350 N 
HETATM   14  C16 UNL     1       4.675  -8.271  27.002  1.00  0.00     0.078 A 
ATOM     15  H5  UNL     1       3.664  -9.829  26.087  1.00  0.00     0.167 HD
HETATM   16  N4  UNL     1       4.667  -7.217  27.834  1.00  0.00    -0.332 N 
HETATM   17  C17 UNL     1       5.986  -8.663  26.399  1.00  0.00     0.089 C 
ATOM     18  H4  UNL     1       5.523  -6.699  28.034  1.00  0.00     0.168 HD
ENDBRANCH   7   9
ENDBRANCH   1   7
BRANCH   5  19
HETATM   19  C8  UNL     1       7.890  -4.562  31.486  1.00  0.00     0.264 C 
HETATM   20  O1  UNL     1       8.691  -5.482  31.340  1.00  0.00    -0.267 OA
HETATM   21  N3  UNL     1       8.097  -3.508  32.372  1.00  0.00    -0.320 N 
HETATM   22  H7  UNL     1       7.257  -3.149  32.800  1.00  0.00     0.169 HD
BRANCH  21  23
HETATM   23  C9  UNL     1       9.310  -3.304  33.081  1.00  0.00     0.062 A 
HETATM   24  C10 UNL     1      10.244  -2.383  32.554  1.00  0.00    -0.034 A 
HETATM   25  C11 UNL     1       9.985  -1.607  31.289  1.00  0.00     0.050 C 
HETATM   26  C12 UNL     1      11.447  -2.149  33.243  1.00  0.00     0.009 A 
HETATM   27  C13 UNL     1      11.738  -2.824  34.426  1.00  0.00     0.002 A 
HETATM   28  C14 UNL     1      10.843  -3.766  34.923  1.00  0.00     0.026 A 
HETATM   29  C15 UNL     1       9.642  -4.022  34.251  1.00  0.00     0.061 A 
HETATM   30 CL1  UNL     1       8.718  -5.370  34.829  1.00  0.00    -0.082 Cl
ENDBRANCH  21  23
ENDBRANCH   5  19
TORSDOF 4
ENDMDL
MODEL 4
REMARK minimizedAffinity -8.70648098
REMARK  4 active torsions:
REMARK  status: ('A' for Active; 'I' for Inactive)
REMARK    1  A    between atoms: C4_4  and  N1_5 
REMARK    2  A    between atoms: N1_5  and  C5_6 
REMARK    3  A    between atoms: C7_10  and  C8_11 
REMARK       I    between atoms: C8_11  and  N3_13 
REMARK    4  A    between atoms: N3_13  and  C9_14 
ROOT
HETATM    1  C5  UNL     1       5.029  -5.575  29.401  1.00  0.00     0.150 A 
HETATM    2  N2  UNL     1       4.331  -4.506  29.717  1.00  0.00    -0.345 N 
ATOM      3  H2  UNL     1       3.364  -4.341  29.437  1.00  0.00     0.167 HD
HETATM    4  C6  UNL     1       5.087  -3.639  30.476  1.00  0.00     0.115 A 
HETATM    5  C7  UNL     1       6.352  -4.076  30.809  1.00  0.00     0.091 A 
HETATM    6  S1  UNL     1       6.615  -5.608  30.087  1.00  0.00    -0.047 SA
ENDROOT
BRANCH   1   7
HETATM    7  N1  UNL     1       4.615  -6.636  28.668  1.00  0.00    -0.323 N 
HETATM    8  H5  UNL     1       3.674  -6.953  28.865  1.00  0.00     0.169 HD
BRANCH   7   9
HETATM    9  C4  UNL     1       5.446  -7.715  28.296  1.00  0.00     0.110 A 
HETATM   10  C3  UNL     1       6.659  -7.845  28.949  1.00  0.00     0.073 A 
HETATM   11  C2  UNL     1       7.471  -8.902  28.584  1.00  0.00     0.010 A 
HETATM   12  C1  UNL     1       8.796  -9.106  29.251  1.00  0.00     0.068 C 
HETATM   13  N5  UNL     1       7.113  -9.784  27.633  1.00  0.00    -0.350 N 
HETATM   14  C16 UNL     1       5.912  -9.597  27.058  1.00  0.00     0.078 A 
ATOM     15  H5  UNL     1       7.722 -10.555  27.361  1.00  0.00     0.167 HD
HETATM   16  N4  UNL     1       5.074  -8.588  27.346  1.00  0.00    -0.332 N 
HETATM   17  C17 UNL     1       5.496 -10.552  25.986  1.00  0.00     0.089 C 
ATOM     18  H4  UNL     1       4.184  -8.487  26.858  1.00  0.00     0.168 HD
ENDBRANCH   7   9
ENDBRANCH   1   7
BRANCH   5  19
HETATM   19  C8  UNL     1       7.392  -3.448  31.603  1.00  0.00     0.264 C 
HETATM   20  O1  UNL     1       7.366  -2.263  31.926  1.00  0.00    -0.267 OA
HETATM   21  N3  UNL     1       8.468  -4.288  31.884  1.00  0.00    -0.320 N 
HETATM   22  H7  UNL     1       8.642  -4.993  31.183  1.00  0.00     0.169 HD
BRANCH  21  23
HETATM   23  C9  UNL     1       9.570  -3.910  32.694  1.00  0.00     0.062 A 
HETATM   24  C10 UNL     1       9.572  -4.317  34.048  1.00  0.00    -0.034 A 
HETATM   25  C11 UNL     1       8.464  -5.145  34.643  1.00  0.00     0.050 C 
HETATM   26  C12 UNL     1      10.659  -3.970  34.871  1.00  0.00     0.009 A 
HETATM   27  C13 UNL     1      11.722  -3.218  34.376  1.00  0.00     0.002 A 
HETATM   28  C14 UNL     1      11.700  -2.776  33.057  1.00  0.00     0.026 A 
HETATM   29  C15 UNL     1      10.627  -3.102  32.220  1.00  0.00     0.061 A 
HETATM   30 CL1  UNL     1      10.594  -2.309  30.679  1.00  0.00    -0.082 Cl
ENDBRANCH  21  23
ENDBRANCH   5  19
TORSDOF 4
ENDMDL
MODEL 5
REMARK minimizedAffinity -8.69534016
REMARK  4 active torsions:
REMARK  status: ('A' for Active; 'I' for Inactive)
REMARK    1  A    between atoms: C4_4  and  N1_5 
REMARK    2  A    between atoms: N1_5  and  C5_6 
REMARK    3  A    between atoms: C7_10  and  C8_11 
REMARK       I    between atoms: C8_11  and  N3_13 
REMARK    4  A    between atoms: N3_13  and  C9_14 
ROOT
HETATM    1  C5  UNL     1       5.079  -5.585  29.423  1.00  0.00     0.150 A 
HETATM    2  N2  UNL     1       4.370  -4.522  29.735  1.00  0.00    -0.345 N 
ATOM      3  H2  UNL     1       3.404  -4.363  29.448  1.00  0.00     0.167 HD
HETATM    4  C6  UNL     1       5.113  -3.653  30.504  1.00  0.00     0.115 A 
HETATM    5  C7  UNL     1       6.377  -4.082  30.848  1.00  0.00     0.091 A 
HETATM    6  S1  UNL     1       6.659  -5.610  30.124  1.00  0.00    -0.047 SA
ENDROOT
BRANCH   1   7
HETATM    7  N1  UNL     1       4.679  -6.647  28.682  1.00  0.00    -0.323 N 
HETATM    8  H5  UNL     1       3.730  -6.955  28.850  1.00  0.00     0.169 HD
BRANCH   7   9
HETATM    9  C4  UNL     1       5.511  -7.736  28.343  1.00  0.00     0.110 A 
HETATM   10  C3  UNL     1       5.063  -8.606  27.364  1.00  0.00     0.073 A 
HETATM   11  C2  UNL     1       5.880  -9.671  27.035  1.00  0.00     0.010 A 
HETATM   12  C1  UNL     1       5.461 -10.650  25.982  1.00  0.00     0.068 C 
HETATM   13  N5  UNL     1       7.070  -9.871  27.629  1.00  0.00    -0.350 N 
HETATM   14  C16 UNL     1       7.440  -8.972  28.558  1.00  0.00     0.078 A 
ATOM     15  H5  UNL     1       7.662 -10.665  27.387  1.00  0.00     0.167 HD
HETATM   16  N4  UNL     1       6.697  -7.922  28.945  1.00  0.00    -0.332 N 
HETATM   17  C17 UNL     1       8.750  -9.180  29.247  1.00  0.00     0.089 C 
ATOM     18  H4  UNL     1       7.024  -7.286  29.672  1.00  0.00     0.168 HD
ENDBRANCH   7   9
ENDBRANCH   1   7
BRANCH   5  19
HETATM   19  C8  UNL     1       7.406  -3.450  31.654  1.00  0.00     0.264 C 
HETATM   20  O1  UNL     1       7.346  -2.278  32.019  1.00  0.00    -0.267 OA
HETATM   21  N3  UNL     1       8.511  -4.264  31.894  1.00  0.00    -0.320 N 
HETATM   22  H7  UNL     1       8.700  -4.938  31.167  1.00  0.00     0.169 HD
BRANCH  21  23
HETATM   23  C9  UNL     1       9.609  -3.880  32.706  1.00  0.00     0.062 A 
HETATM   24  C10 UNL     1       9.613  -4.290  34.059  1.00  0.00    -0.034 A 
HETATM   25  C11 UNL     1       8.511  -5.129  34.651  1.00  0.00     0.050 C 
HETATM   26  C12 UNL     1      10.696  -3.937  34.884  1.00  0.00     0.009 A 
HETATM   27  C13 UNL     1      11.754  -3.176  34.393  1.00  0.00     0.002 A 
HETATM   28  C14 UNL     1      11.730  -2.730  33.075  1.00  0.00     0.026 A 
HETATM   29  C15 UNL     1      10.660  -3.062  32.236  1.00  0.00     0.061 A 
HETATM   30 CL1  UNL     1      10.623  -2.265  30.697  1.00  0.00    -0.082 Cl
ENDBRANCH  21  23
ENDBRANCH   5  19
TORSDOF 4
ENDMDL
MODEL 6
REMARK minimizedAffinity -8.52980042
REMARK  4 active torsions:
REMARK  status: ('A' for Active; 'I' for Inactive)
REMARK    1  A    between atoms: C4_4  and  N1_5 
REMARK    2  A    between atoms: N1_5  and  C5_6 
REMARK    3  A    between atoms: C7_10  and  C8_11 
REMARK       I    between atoms: C8_11  and  N3_13 
REMARK    4  A    between atoms: N3_13  and  C9_14 
ROOT
HETATM    1  C5  UNL     1       4.964  -5.828  29.224  1.00  0.00     0.150 A 
HETATM    2  N2  UNL     1       4.443  -4.622  29.173  1.00  0.00    -0.345 N 
ATOM      3  H2  UNL     1       3.597  -4.376  28.657  1.00  0.00     0.167 HD
HETATM    4  C6  UNL     1       5.196  -3.735  29.911  1.00  0.00     0.115 A 
HETATM    5  C7  UNL     1       6.265  -4.276  30.595  1.00  0.00     0.091 A 
HETATM    6  S1  UNL     1       6.354  -5.952  30.243  1.00  0.00    -0.047 SA
ENDROOT
BRANCH   1   7
HETATM    7  N1  UNL     1       4.496  -6.948  28.623  1.00  0.00    -0.323 N 
HETATM    8  H5  UNL     1       3.606  -7.281  28.969  1.00  0.00     0.169 HD
BRANCH   7   9
HETATM    9  C4  UNL     1       5.311  -8.023  28.205  1.00  0.00     0.110 A 
HETATM   10  C3  UNL     1       6.488  -8.244  28.900  1.00  0.00     0.073 A 
HETATM   11  C2  UNL     1       7.284  -9.296  28.489  1.00  0.00     0.010 A 
HETATM   12  C1  UNL     1       8.569  -9.595  29.197  1.00  0.00     0.068 C 
HETATM   13  N5  UNL     1       6.945 -10.088  27.456  1.00  0.00    -0.350 N 
HETATM   14  C16 UNL     1       5.779  -9.817  26.844  1.00  0.00     0.078 A 
ATOM     15  H5  UNL     1       7.544 -10.857  27.152  1.00  0.00     0.167 HD
HETATM   16  N4  UNL     1       4.960  -8.806  27.173  1.00  0.00    -0.332 N 
HETATM   17  C17 UNL     1       5.387 -10.672  25.682  1.00  0.00     0.089 C 
ATOM     18  H4  UNL     1       4.097  -8.638  26.655  1.00  0.00     0.168 HD
ENDBRANCH   7   9
ENDBRANCH   1   7
BRANCH   5  19
HETATM   19  C8  UNL     1       7.239  -3.656  31.475  1.00  0.00     0.264 C 
HETATM   20  O1  UNL     1       7.076  -2.548  31.980  1.00  0.00    -0.267 OA
HETATM   21  N3  UNL     1       8.414  -4.389  31.616  1.00  0.00    -0.320 N 
HETATM   22  H7  UNL     1       8.658  -4.950  30.812  1.00  0.00     0.169 HD
BRANCH  21  23
HETATM   23  C9  UNL     1       9.480  -4.009  32.472  1.00  0.00     0.062 A 
HETATM   24  C10 UNL     1      10.566  -3.299  31.911  1.00  0.00    -0.034 A 
HETATM   25  C11 UNL     1      10.616  -2.923  30.454  1.00  0.00     0.050 C 
HETATM   26  C12 UNL     1      11.629  -2.896  32.738  1.00  0.00     0.009 A 
HETATM   27  C13 UNL     1      11.635  -3.200  34.098  1.00  0.00     0.002 A 
HETATM   28  C14 UNL     1      10.591  -3.939  34.645  1.00  0.00     0.026 A 
HETATM   29  C15 UNL     1       9.525  -4.359  33.841  1.00  0.00     0.061 A 
HETATM   30 CL1  UNL     1       8.406  -5.462  34.573  1.00  0.00    -0.082 Cl
ENDBRANCH  21  23
ENDBRANCH   5  19
TORSDOF 4
ENDMDL
MODEL 7
REMARK minimizedAffinity -8.2796278
REMARK  4 active torsions:
REMARK  status: ('A' for Active; 'I' for Inactive)
REMARK    1  A    between atoms: C4_4  and  N1_5 
REMARK    2  A    between atoms: N1_5  and  C5_6 
REMARK    3  A    between atoms: C7_10  and  C8_11 
REMARK       I    between atoms: C8_11  and  N3_13 
REMARK    4  A    between atoms: N3_13  and  C9_14 
ROOT
HETATM    1  C5  UNL     1      11.206  -5.113  29.920  1.00  0.00     0.150 A 
HETATM    2  N2  UNL     1      11.471  -4.687  28.705  1.00  0.00    -0.345 N 
ATOM      3  H2  UNL     1      12.318  -4.185  28.437  1.00  0.00     0.167 HD
HETATM    4  C6  UNL     1      10.446  -5.011  27.842  1.00  0.00     0.115 A 
HETATM    5  C7  UNL     1       9.419  -5.756  28.381  1.00  0.00     0.091 A 
HETATM    6  S1  UNL     1       9.730  -6.002  30.049  1.00  0.00    -0.047 SA
ENDROOT
BRANCH   1   7
HETATM    7  N1  UNL     1      11.982  -4.976  31.023  1.00  0.00    -0.323 N 
HETATM    8  H5  UNL     1      12.742  -5.638  31.098  1.00  0.00     0.169 HD
BRANCH   7   9
HETATM    9  C4  UNL     1      11.490  -4.623  32.299  1.00  0.00     0.110 A 
HETATM   10  C3  UNL     1      10.265  -5.141  32.680  1.00  0.00     0.073 A 
HETATM   11  C2  UNL     1       9.786  -4.794  33.928  1.00  0.00     0.010 A 
HETATM   12  C1  UNL     1       8.468  -5.321  34.408  1.00  0.00     0.068 C 
HETATM   13  N5  UNL     1      10.470  -3.986  34.758  1.00  0.00    -0.350 N 
HETATM   14  C16 UNL     1      11.659  -3.538  34.320  1.00  0.00     0.078 A 
ATOM     15  H5  UNL     1      10.104  -3.726  35.674  1.00  0.00     0.167 HD
HETATM   16  N4  UNL     1      12.185  -3.816  33.116  1.00  0.00    -0.332 N 
HETATM   17  C17 UNL     1      12.432  -2.623  35.215  1.00  0.00     0.089 C 
ATOM     18  H4  UNL     1      13.084  -3.426  32.832  1.00  0.00     0.168 HD
ENDBRANCH   7   9
ENDBRANCH   1   7
BRANCH   5  19
HETATM   19  C8  UNL     1       8.213  -6.288  27.772  1.00  0.00     0.264 C 
HETATM   20  O1  UNL     1       8.073  -6.406  26.557  1.00  0.00    -0.267 OA
HETATM   21  N3  UNL     1       7.197  -6.563  28.684  1.00  0.00    -0.320 N 
HETATM   22  H7  UNL     1       7.201  -5.975  29.505  1.00  0.00     0.169 HD
BRANCH  21  23
HETATM   23  C9  UNL     1       5.954  -7.145  28.324  1.00  0.00     0.062 A 
HETATM   24  C10 UNL     1       4.782  -6.375  28.498  1.00  0.00    -0.034 A 
HETATM   25  C11 UNL     1       4.814  -4.966  29.028  1.00  0.00     0.050 C 
HETATM   26  C12 UNL     1       3.537  -6.920  28.135  1.00  0.00     0.009 A 
HETATM   27  C13 UNL     1       3.442  -8.213  27.624  1.00  0.00     0.002 A 
HETATM   28  C14 UNL     1       4.588  -8.991  27.497  1.00  0.00     0.026 A 
HETATM   29  C15 UNL     1       5.838  -8.474  27.857  1.00  0.00     0.061 A 
HETATM   30 CL1  UNL     1       7.154  -9.602  27.875  1.00  0.00    -0.082 Cl
ENDBRANCH  21  23
ENDBRANCH   5  19
TORSDOF 4
ENDMDL
MODEL 8
REMARK minimizedAffinity -8.24945641
REMARK  4 active torsions:
REMARK  status: ('A' for Active; 'I' for Inactive)
REMARK    1  A    between atoms: C4_4  and  N1_5 
REMARK    2  A    between atoms: N1_5  and  C5_6 
REMARK    3  A    between atoms: C7_10  and  C8_11 
REMARK       I    between atoms: C8_11  and  N3_13 
REMARK    4  A    between atoms: N3_13  and  C9_14 
ROOT
HETATM    1  C5  UNL     1      11.141  -5.328  29.388  1.00  0.00     0.150 A 
HETATM    2  N2  UNL     1      11.453  -5.270  28.112  1.00  0.00    -0.345 N 
ATOM      3  H2  UNL     1      12.380  -5.045  27.751  1.00  0.00     0.167 HD
HETATM    4  C6  UNL     1      10.354  -5.554  27.330  1.00  0.00     0.115 A 
HETATM    5  C7  UNL     1       9.206  -5.905  28.009  1.00  0.00     0.091 A 
HETATM    6  S1  UNL     1       9.510  -5.814  29.694  1.00  0.00    -0.047 SA
ENDROOT
BRANCH   1   7
HETATM    7  N1  UNL     1      11.963  -5.110  30.443  1.00  0.00    -0.323 N 
HETATM    8  H5  UNL     1      12.337  -5.945  30.876  1.00  0.00     0.169 HD
BRANCH   7   9
HETATM    9  C4  UNL     1      11.775  -4.086  31.396  1.00  0.00     0.110 A 
HETATM   10  C3  UNL     1      11.314  -2.863  30.941  1.00  0.00     0.073 A 
HETATM   11  C2  UNL     1      11.131  -1.862  31.875  1.00  0.00     0.010 A 
HETATM   12  C1  UNL     1      10.631  -0.514  31.455  1.00  0.00     0.068 C 
HETATM   13  N5  UNL     1      11.383  -2.049  33.184  1.00  0.00    -0.350 N 
HETATM   14  C16 UNL     1      11.812  -3.270  33.546  1.00  0.00     0.078 A 
ATOM     15  H5  UNL     1      11.255  -1.301  33.866  1.00  0.00     0.167 HD
HETATM   16  N4  UNL     1      12.030  -4.288  32.699  1.00  0.00    -0.332 N 
HETATM   17  C17 UNL     1      12.116  -3.501  34.992  1.00  0.00     0.089 C 
ATOM     18  H4  UNL     1      12.378  -5.186  33.033  1.00  0.00     0.168 HD
ENDBRANCH   7   9
ENDBRANCH   1   7
BRANCH   5  19
HETATM   19  C8  UNL     1       7.894  -6.287  27.518  1.00  0.00     0.264 C 
HETATM   20  O1  UNL     1       7.597  -6.282  26.326  1.00  0.00    -0.267 OA
HETATM   21  N3  UNL     1       6.976  -6.565  28.528  1.00  0.00    -0.320 N 
HETATM   22  H7  UNL     1       7.131  -6.057  29.387  1.00  0.00     0.169 HD
BRANCH  21  23
HETATM   23  C9  UNL     1       5.653  -7.016  28.285  1.00  0.00     0.062 A 
HETATM   24  C10 UNL     1       4.583  -6.151  28.611  1.00  0.00    -0.034 A 
HETATM   25  C11 UNL     1       4.804  -4.775  29.182  1.00  0.00     0.050 C 
HETATM   26  C12 UNL     1       3.261  -6.565  28.366  1.00  0.00     0.009 A 
HETATM   27  C13 UNL     1       2.992  -7.820  27.825  1.00  0.00     0.002 A 
HETATM   28  C14 UNL     1       4.039  -8.693  27.548  1.00  0.00     0.026 A 
HETATM   29  C15 UNL     1       5.363  -8.307  27.789  1.00  0.00     0.061 A 
HETATM   30 CL1  UNL     1       6.561  -9.549  27.626  1.00  0.00    -0.082 Cl
ENDBRANCH  21  23
ENDBRANCH   5  19
TORSDOF 4
ENDMDL
MODEL 9
REMARK minimizedAffinity -8.06271553
REMARK  4 active torsions:
REMARK  status: ('A' for Active; 'I' for Inactive)
REMARK    1  A    between atoms: C4_4  and  N1_5 
REMARK    2  A    between atoms: N1_5  and  C5_6 
REMARK    3  A    between atoms: C7_10  and  C8_11 
REMARK       I    between atoms: C8_11  and  N3_13 
REMARK    4  A    between atoms: N3_13  and  C9_14 
ROOT
HETATM    1  C5  UNL     1       8.064  -5.056  30.982  1.00  0.00     0.150 A 
HETATM    2  N2  UNL     1       9.028  -5.325  30.128  1.00  0.00    -0.345 N 
ATOM      3  H2  UNL     1      10.019  -5.150  30.297  1.00  0.00     0.167 HD
HETATM    4  C6  UNL     1       8.514  -5.876  28.974  1.00  0.00     0.115 A 
HETATM    5  C7  UNL     1       7.154  -6.100  28.967  1.00  0.00     0.091 A 
HETATM    6  S1  UNL     1       6.493  -5.539  30.447  1.00  0.00    -0.047 SA
ENDROOT
BRANCH   1   7
HETATM    7  N1  UNL     1       8.192  -4.511  32.216  1.00  0.00    -0.323 N 
HETATM    8  H5  UNL     1       7.323  -4.246  32.660  1.00  0.00     0.169 HD
BRANCH   7   9
HETATM    9  C4  UNL     1       9.240  -3.644  32.595  1.00  0.00     0.110 A 
HETATM   10  C3  UNL     1      10.016  -4.011  33.681  1.00  0.00     0.073 A 
HETATM   11  C2  UNL     1      11.040  -3.160  34.050  1.00  0.00     0.010 A 
HETATM   12  C1  UNL     1      11.922  -3.495  35.213  1.00  0.00     0.068 C 
HETATM   13  N5  UNL     1      11.292  -2.015  33.390  1.00  0.00    -0.350 N 
HETATM   14  C16 UNL     1      10.504  -1.739  32.337  1.00  0.00     0.078 A 
ATOM     15  H5  UNL     1      12.044  -1.387  33.676  1.00  0.00     0.167 HD
HETATM   16  N4  UNL     1       9.480  -2.504  31.926  1.00  0.00    -0.332 N 
HETATM   17  C17 UNL     1      10.751  -0.464  31.596  1.00  0.00     0.089 C 
ATOM     18  H4  UNL     1       8.903  -2.229  31.131  1.00  0.00     0.168 HD
ENDBRANCH   7   9
ENDBRANCH   1   7
BRANCH   5  19
HETATM   19  C8  UNL     1       6.294  -6.679  27.951  1.00  0.00     0.264 C 
HETATM   20  O1  UNL     1       6.376  -6.390  26.759  1.00  0.00    -0.267 OA
HETATM   21  N3  UNL     1       5.306  -7.517  28.462  1.00  0.00    -0.320 N 
HETATM   22  H7  UNL     1       4.997  -7.280  29.394  1.00  0.00     0.169 HD
BRANCH  21  23
HETATM   23  C9  UNL     1       4.391  -8.239  27.653  1.00  0.00     0.062 A 
HETATM   24  C10 UNL     1       3.037  -7.834  27.653  1.00  0.00    -0.034 A 
HETATM   25  C11 UNL     1       2.546  -6.663  28.461  1.00  0.00     0.050 C 
HETATM   26  C12 UNL     1       2.110  -8.522  26.848  1.00  0.00     0.009 A 
HETATM   27  C13 UNL     1       2.505  -9.605  26.066  1.00  0.00     0.002 A 
HETATM   28  C14 UNL     1       3.828 -10.036  26.100  1.00  0.00     0.026 A 
HETATM   29  C15 UNL     1       4.767  -9.373  26.898  1.00  0.00     0.061 A 
HETATM   30 CL1  UNL     1       6.319 -10.133  27.040  1.00  0.00    -0.082 Cl
ENDBRANCH  21  23
ENDBRANCH   5  19
TORSDOF 4
ENDMDL
