MODEL 1
REMARK minimizedAffinity -8.43356323
REMARK  1 active torsions:
REMARK  status: ('A' for Active; 'I' for Inactive)
REMARK    1  A    between atoms: C2_2  and  C3_3 
REMARK       I    between atoms: C3_3  and  N1_5 
ROOT
HETATM    1  C3  UNL     1       2.154   7.279   9.761  1.00  0.00     0.247 C 
HETATM    2  O1  UNL     1       1.065   6.853   9.379  1.00  0.00    -0.268 OA
HETATM    3  N1  UNL     1       2.558   7.443  11.098  1.00  0.00    -0.315 N 
HETATM    4  C4  UNL     1       3.951   7.810  11.450  1.00  0.00     0.132 C 
HETATM    5  C5  UNL     1       4.874   6.584  11.386  1.00  0.00     0.020 C 
HETATM    6  C6  UNL     1       6.341   6.926  11.108  1.00  0.00     0.002 C 
HETATM    7  C7  UNL     1       7.031   7.833  12.129  1.00  0.00     0.000 C 
HETATM    8  C8  UNL     1       7.010   7.265  13.547  1.00  0.00     0.002 C 
HETATM    9  C9  UNL     1       8.010   7.926  14.506  1.00  0.00     0.020 C 
HETATM   10  C10 UNL     1       8.035   9.460  14.528  1.00  0.00     0.128 C 
HETATM   11  N2  UNL     1       6.816  10.155  14.905  1.00  0.00    -0.355 N 
HETATM   12  C11 UNL     1       5.760   9.625  15.591  1.00  0.00     0.106 A 
HETATM   13  C12 UNL     1       4.782  10.592  15.706  1.00  0.00     0.019 A 
HETATM   14  C13 UNL     1       5.293  11.787  15.124  1.00  0.00     0.005 A 
HETATM   15  C14 UNL     1       4.781  13.090  14.947  1.00  0.00     0.014 A 
HETATM   16  C15 UNL     1       5.564  14.063  14.318  1.00  0.00     0.001 A 
HETATM   17  C16 UNL     1       6.840  13.754  13.860  1.00  0.00     0.002 A 
HETATM   18  C17 UNL     1       7.368  12.468  14.009  1.00  0.00     0.030 A 
HETATM   19  C18 UNL     1       6.574  11.494  14.640  1.00  0.00     0.045 A 
HETATM   20  C19 UNL     1       3.499  10.312  16.316  1.00  0.00     0.063 A 
HETATM   21  C20 UNL     1       3.061  11.005  17.417  1.00  0.00     0.048 A 
HETATM   22  C21 UNL     1       1.850  10.595  17.908  1.00  0.00     0.108 A 
HETATM   23  N3  UNL     1       1.121   9.601  17.362  1.00  0.00    -0.202 N 
ATOM     24  H3  UNL     1       0.227   9.316  17.764  1.00  0.00     0.183 HD
HETATM   25  C22 UNL     1       1.617   9.001  16.269  1.00  0.00     0.683 A 
HETATM   26  N4  UNL     1       2.799   9.318  15.736  1.00  0.00    -0.191 N 
ATOM     27  H4  UNL     1       3.160   8.825  14.918  1.00  0.00     0.184 HD
HETATM   28  N5  UNL     1       0.834   7.995  15.716  1.00  0.00    -0.189 N 
HETATM   29  C23 UNL     1       0.852   7.345  14.472  1.00  0.00     0.089 A 
HETATM   30  C24 UNL     1       1.710   7.695  13.416  1.00  0.00     0.063 A 
HETATM   31  C25 UNL     1       1.695   7.022  12.177  1.00  0.00     0.039 A 
HETATM   32  C26 UNL     1       0.804   5.949  12.029  1.00  0.00     0.033 A 
HETATM   33  C27 UNL     1      -0.039   5.562  13.071  1.00  0.00     0.047 A 
HETATM   34  C28 UNL     1      -0.006   6.256  14.273  1.00  0.00     0.143 A 
HETATM   35  F1  UNL     1      -0.830   5.876  15.262  1.00  0.00    -0.204 F 
HETATM   36  H25 UNL     1       0.020   7.821  16.290  1.00  0.00     0.184 HD
ENDROOT
BRANCH   1  37
HETATM   37  C2  UNL     1       3.131   7.693   8.713  1.00  0.00     0.064 C 
HETATM   38  C1  UNL     1       2.734   8.467   7.695  1.00  0.00     0.017 C 
ENDBRANCH   1  37
TORSDOF 1
ENDMDL
MODEL 2
REMARK minimizedAffinity -8.38526154
REMARK  1 active torsions:
REMARK  status: ('A' for Active; 'I' for Inactive)
REMARK    1  A    between atoms: C2_2  and  C3_3 
REMARK       I    between atoms: C3_3  and  N1_5 
ROOT
HETATM    1  C3  UNL     1       8.673   8.608  15.582  1.00  0.00     0.247 C 
HETATM    2  O1  UNL     1       9.814   8.274  15.271  1.00  0.00    -0.268 OA
HETATM    3  N1  UNL     1       8.323   9.645  16.467  1.00  0.00    -0.315 N 
HETATM    4  C4  UNL     1       6.915  10.072  16.646  1.00  0.00     0.132 C 
HETATM    5  C5  UNL     1       6.468  10.987  15.496  1.00  0.00     0.020 C 
HETATM    6  C6  UNL     1       4.959  10.967  15.237  1.00  0.00     0.002 C 
HETATM    7  C7  UNL     1       4.066  11.403  16.401  1.00  0.00     0.000 C 
HETATM    8  C8  UNL     1       4.372  12.816  16.895  1.00  0.00     0.002 C 
HETATM    9  C9  UNL     1       3.269  13.430  17.769  1.00  0.00     0.020 C 
HETATM   10  C10 UNL     1       2.719  12.556  18.903  1.00  0.00     0.128 C 
HETATM   11  N2  UNL     1       3.644  12.112  19.930  1.00  0.00    -0.355 N 
HETATM   12  C11 UNL     1       4.860  12.665  20.219  1.00  0.00     0.106 A 
HETATM   13  C12 UNL     1       5.450  11.926  21.224  1.00  0.00     0.019 A 
HETATM   14  C13 UNL     1       4.522  10.918  21.614  1.00  0.00     0.005 A 
HETATM   15  C14 UNL     1       4.542   9.883  22.573  1.00  0.00     0.014 A 
HETATM   16  C15 UNL     1       3.432   9.042  22.707  1.00  0.00     0.001 A 
HETATM   17  C16 UNL     1       2.315   9.214  21.899  1.00  0.00     0.002 A 
HETATM   18  C17 UNL     1       2.273  10.221  20.931  1.00  0.00     0.030 A 
HETATM   19  C18 UNL     1       3.392  11.062  20.799  1.00  0.00     0.045 A 
HETATM   20  C19 UNL     1       6.787  12.213  21.700  1.00  0.00     0.063 A 
HETATM   21  C20 UNL     1       7.030  12.534  23.012  1.00  0.00     0.048 A 
HETATM   22  C21 UNL     1       8.337  12.825  23.300  1.00  0.00     0.108 A 
HETATM   23  N3  UNL     1       9.327  12.794  22.386  1.00  0.00    -0.202 N 
ATOM     24  H3  UNL     1      10.287  13.028  22.636  1.00  0.00     0.183 HD
HETATM   25  C22 UNL     1       8.999  12.440  21.133  1.00  0.00     0.683 A 
HETATM   26  N4  UNL     1       7.748  12.163  20.757  1.00  0.00    -0.191 N 
ATOM     27  H4  UNL     1       7.528  11.922  19.790  1.00  0.00     0.184 HD
HETATM   28  N5  UNL     1      10.043  12.396  20.218  1.00  0.00    -0.189 N 
HETATM   29  C23 UNL     1      10.171  11.829  18.941  1.00  0.00     0.089 A 
HETATM   30  C24 UNL     1       9.179  11.045  18.327  1.00  0.00     0.063 A 
HETATM   31  C25 UNL     1       9.345  10.486  17.044  1.00  0.00     0.039 A 
HETATM   32  C26 UNL     1      10.540  10.762  16.363  1.00  0.00     0.033 A 
HETATM   33  C27 UNL     1      11.530  11.560  16.937  1.00  0.00     0.047 A 
HETATM   34  C28 UNL     1      11.336  12.083  18.208  1.00  0.00     0.143 A 
HETATM   35  F1  UNL     1      12.303  12.842  18.749  1.00  0.00    -0.204 F 
HETATM   36  H25 UNL     1      10.902  12.719  20.642  1.00  0.00     0.184 HD
ENDROOT
BRANCH   1  37
HETATM   37  C2  UNL     1       7.547   7.826  14.994  1.00  0.00     0.064 C 
HETATM   38  C1  UNL     1       7.433   7.715  13.663  1.00  0.00     0.017 C 
ENDBRANCH   1  37
TORSDOF 1
ENDMDL
MODEL 3
REMARK minimizedAffinity -8.32921982
REMARK  1 active torsions:
REMARK  status: ('A' for Active; 'I' for Inactive)
REMARK    1  A    between atoms: C2_2  and  C3_3 
REMARK       I    between atoms: C3_3  and  N1_5 
ROOT
HETATM    1  C3  UNL     1       1.599   6.936  10.054  1.00  0.00     0.247 C 
HETATM    2  O1  UNL     1       1.266   6.118   9.198  1.00  0.00    -0.268 OA
HETATM    3  N1  UNL     1       0.965   7.144  11.293  1.00  0.00    -0.315 N 
HETATM    4  C4  UNL     1       1.545   8.041  12.321  1.00  0.00     0.132 C 
HETATM    5  C5  UNL     1       2.676   7.339  13.088  1.00  0.00     0.020 C 
HETATM    6  C6  UNL     1       3.713   8.297  13.681  1.00  0.00     0.002 C 
HETATM    7  C7  UNL     1       3.189   9.323  14.688  1.00  0.00     0.000 C 
HETATM    8  C8  UNL     1       2.496   8.684  15.890  1.00  0.00     0.002 C 
HETATM    9  C9  UNL     1       2.315   9.627  17.088  1.00  0.00     0.020 C 
HETATM   10  C10 UNL     1       1.735  11.016  16.792  1.00  0.00     0.128 C 
HETATM   11  N2  UNL     1       0.409  11.088  16.203  1.00  0.00    -0.355 N 
HETATM   12  C11 UNL     1      -0.537  10.101  16.211  1.00  0.00     0.106 A 
HETATM   13  C12 UNL     1      -1.638  10.543  15.507  1.00  0.00     0.019 A 
HETATM   14  C13 UNL     1      -1.380  11.886  15.110  1.00  0.00     0.005 A 
HETATM   15  C14 UNL     1      -2.110  12.855  14.387  1.00  0.00     0.014 A 
HETATM   16  C15 UNL     1      -1.553  14.118  14.165  1.00  0.00     0.001 A 
HETATM   17  C16 UNL     1      -0.284  14.424  14.644  1.00  0.00     0.002 A 
HETATM   18  C17 UNL     1       0.467  13.481  15.350  1.00  0.00     0.030 A 
HETATM   19  C18 UNL     1      -0.097  12.212  15.568  1.00  0.00     0.045 A 
HETATM   20  C19 UNL     1      -2.783   9.691  15.267  1.00  0.00     0.063 A 
HETATM   21  C20 UNL     1      -4.039  10.034  15.705  1.00  0.00     0.048 A 
HETATM   22  C21 UNL     1      -5.011   9.106  15.444  1.00  0.00     0.108 A 
HETATM   23  N3  UNL     1      -4.781   7.946  14.799  1.00  0.00    -0.202 N 
ATOM     24  H3  UNL     1      -5.530   7.273  14.633  1.00  0.00     0.183 HD
HETATM   25  C22 UNL     1      -3.527   7.710  14.382  1.00  0.00     0.683 A 
HETATM   26  N4  UNL     1      -2.512   8.545  14.612  1.00  0.00    -0.191 N 
ATOM     27  H4  UNL     1      -1.565   8.325  14.304  1.00  0.00     0.184 HD
HETATM   28  N5  UNL     1      -3.325   6.516  13.701  1.00  0.00    -0.189 N 
HETATM   29  C23 UNL     1      -2.281   6.042  12.891  1.00  0.00     0.089 A 
HETATM   30  C24 UNL     1      -1.166   6.814  12.517  1.00  0.00     0.063 A 
HETATM   31  C25 UNL     1      -0.139   6.306  11.697  1.00  0.00     0.039 A 
HETATM   32  C26 UNL     1      -0.240   4.971  11.277  1.00  0.00     0.033 A 
HETATM   33  C27 UNL     1      -1.320   4.174  11.657  1.00  0.00     0.047 A 
HETATM   34  C28 UNL     1      -2.320   4.713  12.456  1.00  0.00     0.143 A 
HETATM   35  F1  UNL     1      -3.358   3.935  12.805  1.00  0.00    -0.204 F 
HETATM   36  H25 UNL     1      -4.171   5.963  13.692  1.00  0.00     0.184 HD
ENDROOT
BRANCH   1  37
HETATM   37  C2  UNL     1       2.764   7.814   9.745  1.00  0.00     0.064 C 
HETATM   38  C1  UNL     1       3.064   8.104   8.472  1.00  0.00     0.017 C 
ENDBRANCH   1  37
TORSDOF 1
ENDMDL
MODEL 4
REMARK minimizedAffinity -8.12939358
REMARK  1 active torsions:
REMARK  status: ('A' for Active; 'I' for Inactive)
REMARK    1  A    between atoms: C2_2  and  C3_3 
REMARK       I    between atoms: C3_3  and  N1_5 
ROOT
HETATM    1  C3  UNL     1       3.557  12.890  15.485  1.00  0.00     0.247 C 
HETATM    2  O1  UNL     1       4.446  13.570  15.993  1.00  0.00    -0.268 OA
HETATM    3  N1  UNL     1       3.651  11.532  15.129  1.00  0.00    -0.315 N 
HETATM    4  C4  UNL     1       2.467  10.764  14.674  1.00  0.00     0.132 C 
HETATM    5  C5  UNL     1       1.604  10.327  15.867  1.00  0.00     0.020 C 
HETATM    6  C6  UNL     1       0.128  10.112  15.520  1.00  0.00     0.002 C 
HETATM    7  C7  UNL     1      -0.171   9.048  14.461  1.00  0.00     0.000 C 
HETATM    8  C8  UNL     1       0.363   7.665  14.833  1.00  0.00     0.002 C 
HETATM    9  C9  UNL     1      -0.243   6.515  14.016  1.00  0.00     0.020 C 
HETATM   10  C10 UNL     1      -0.287   6.698  12.494  1.00  0.00     0.128 C 
HETATM   11  N2  UNL     1       0.972   6.877  11.793  1.00  0.00    -0.355 N 
HETATM   12  C11 UNL     1       2.213   6.543  12.259  1.00  0.00     0.106 A 
HETATM   13  C12 UNL     1       3.150   6.916  11.317  1.00  0.00     0.019 A 
HETATM   14  C13 UNL     1       2.443   7.438  10.195  1.00  0.00     0.005 A 
HETATM   15  C14 UNL     1       2.835   7.963   8.945  1.00  0.00     0.014 A 
HETATM   16  C15 UNL     1       1.861   8.402   8.042  1.00  0.00     0.001 A 
HETATM   17  C16 UNL     1       0.512   8.330   8.370  1.00  0.00     0.002 A 
HETATM   18  C17 UNL     1       0.096   7.828   9.606  1.00  0.00     0.030 A 
HETATM   19  C18 UNL     1       1.079   7.392  10.510  1.00  0.00     0.045 A 
HETATM   20  C19 UNL     1       4.571   6.768  11.552  1.00  0.00     0.063 A 
HETATM   21  C20 UNL     1       5.359   6.001  10.730  1.00  0.00     0.048 A 
HETATM   22  C21 UNL     1       6.673   5.919  11.108  1.00  0.00     0.108 A 
HETATM   23  N3  UNL     1       7.179   6.546  12.189  1.00  0.00    -0.202 N 
ATOM     24  H3  UNL     1       8.162   6.451  12.445  1.00  0.00     0.183 HD
HETATM   25  C22 UNL     1       6.338   7.298  12.916  1.00  0.00     0.683 A 
HETATM   26  N4  UNL     1       5.037   7.416  12.637  1.00  0.00    -0.191 N 
ATOM     27  H4  UNL     1       4.419   7.976  13.224  1.00  0.00     0.184 HD
HETATM   28  N5  UNL     1       6.892   7.948  14.012  1.00  0.00    -0.189 N 
HETATM   29  C23 UNL     1       6.446   9.003  14.823  1.00  0.00     0.089 A 
HETATM   30  C24 UNL     1       5.261   9.724  14.592  1.00  0.00     0.063 A 
HETATM   31  C25 UNL     1       4.848  10.783  15.426  1.00  0.00     0.039 A 
HETATM   32  C26 UNL     1       5.649  11.087  16.538  1.00  0.00     0.033 A 
HETATM   33  C27 UNL     1       6.814  10.369  16.806  1.00  0.00     0.047 A 
HETATM   34  C28 UNL     1       7.197   9.341  15.955  1.00  0.00     0.143 A 
HETATM   35  F1  UNL     1       8.326   8.666  16.224  1.00  0.00    -0.204 F 
HETATM   36  H25 UNL     1       7.859   7.682  14.132  1.00  0.00     0.184 HD
ENDROOT
BRANCH   1  37
HETATM   37  C2  UNL     1       2.263  13.569  15.186  1.00  0.00     0.064 C 
HETATM   38  C1  UNL     1       2.195  14.480  14.206  1.00  0.00     0.017 C 
ENDBRANCH   1  37
TORSDOF 1
ENDMDL
MODEL 5
REMARK minimizedAffinity -8.01413536
REMARK  1 active torsions:
REMARK  status: ('A' for Active; 'I' for Inactive)
REMARK    1  A    between atoms: C2_2  and  C3_3 
REMARK       I    between atoms: C3_3  and  N1_5 
ROOT
HETATM    1  C3  UNL     1       0.412   9.248  15.988  1.00  0.00     0.247 C 
HETATM    2  O1  UNL     1      -0.640   8.610  15.994  1.00  0.00    -0.268 OA
HETATM    3  N1  UNL     1       1.385   9.232  14.972  1.00  0.00    -0.315 N 
HETATM    4  C4  UNL     1       2.539  10.163  14.987  1.00  0.00     0.132 C 
HETATM    5  C5  UNL     1       2.128  11.554  14.483  1.00  0.00     0.020 C 
HETATM    6  C6  UNL     1       2.997  12.693  15.026  1.00  0.00     0.002 C 
HETATM    7  C7  UNL     1       4.488  12.625  14.691  1.00  0.00     0.000 C 
HETATM    8  C8  UNL     1       4.765  12.586  13.189  1.00  0.00     0.002 C 
HETATM    9  C9  UNL     1       6.216  12.913  12.807  1.00  0.00     0.020 C 
HETATM   10  C10 UNL     1       7.317  12.186  13.589  1.00  0.00     0.128 C 
HETATM   11  N2  UNL     1       7.354  10.736  13.524  1.00  0.00    -0.355 N 
HETATM   12  C11 UNL     1       6.763   9.952  12.573  1.00  0.00     0.106 A 
HETATM   13  C12 UNL     1       6.990   8.629  12.893  1.00  0.00     0.019 A 
HETATM   14  C13 UNL     1       7.814   8.605  14.055  1.00  0.00     0.005 A 
HETATM   15  C14 UNL     1       8.377   7.576  14.839  1.00  0.00     0.014 A 
HETATM   16  C15 UNL     1       9.164   7.902  15.948  1.00  0.00     0.001 A 
HETATM   17  C16 UNL     1       9.390   9.231  16.287  1.00  0.00     0.002 A 
HETATM   18  C17 UNL     1       8.833  10.271  15.537  1.00  0.00     0.030 A 
HETATM   19  C18 UNL     1       8.041   9.937  14.425  1.00  0.00     0.045 A 
HETATM   20  C19 UNL     1       6.420   7.547  12.117  1.00  0.00     0.063 A 
HETATM   21  C20 UNL     1       7.213   6.608  11.504  1.00  0.00     0.048 A 
HETATM   22  C21 UNL     1       6.532   5.675  10.768  1.00  0.00     0.108 A 
HETATM   23  N3  UNL     1       5.189   5.652  10.650  1.00  0.00    -0.202 N 
ATOM     24  H3  UNL     1       4.718   4.947  10.083  1.00  0.00     0.183 HD
HETATM   25  C22 UNL     1       4.496   6.594  11.310  1.00  0.00     0.683 A 
HETATM   26  N4  UNL     1       5.076   7.556  12.031  1.00  0.00    -0.191 N 
ATOM     27  H4  UNL     1       4.521   8.273  12.500  1.00  0.00     0.184 HD
HETATM   28  N5  UNL     1       3.113   6.533  11.187  1.00  0.00    -0.189 N 
HETATM   29  C23 UNL     1       2.063   7.123  11.906  1.00  0.00     0.089 A 
HETATM   30  C24 UNL     1       2.244   7.904  13.061  1.00  0.00     0.063 A 
HETATM   31  C25 UNL     1       1.163   8.477  13.762  1.00  0.00     0.039 A 
HETATM   32  C26 UNL     1      -0.127   8.271  13.251  1.00  0.00     0.033 A 
HETATM   33  C27 UNL     1      -0.333   7.524  12.090  1.00  0.00     0.047 A 
HETATM   34  C28 UNL     1       0.755   6.964  11.434  1.00  0.00     0.143 A 
HETATM   35  F1  UNL     1       0.538   6.241  10.324  1.00  0.00    -0.204 F 
HETATM   36  H25 UNL     1       2.846   5.805  10.538  1.00  0.00     0.184 HD
ENDROOT
BRANCH   1  37
HETATM   37  C2  UNL     1       0.704  10.098  17.178  1.00  0.00     0.064 C 
HETATM   38  C1  UNL     1      -0.299  10.687  17.842  1.00  0.00     0.017 C 
ENDBRANCH   1  37
TORSDOF 1
ENDMDL
MODEL 6
REMARK minimizedAffinity -7.4233346
REMARK  1 active torsions:
REMARK  status: ('A' for Active; 'I' for Inactive)
REMARK    1  A    between atoms: C2_2  and  C3_3 
REMARK       I    between atoms: C3_3  and  N1_5 
ROOT
HETATM    1  C3  UNL     1      -1.979  16.358  -1.092  1.00  0.00     0.247 C 
HETATM    2  O1  UNL     1      -2.800  16.550  -0.197  1.00  0.00    -0.268 OA
HETATM    3  N1  UNL     1      -0.772  15.646  -0.972  1.00  0.00    -0.315 N 
HETATM    4  C4  UNL     1       0.067  15.334  -2.154  1.00  0.00     0.132 C 
HETATM    5  C5  UNL     1      -0.495  14.129  -2.924  1.00  0.00     0.020 C 
HETATM    6  C6  UNL     1      -0.127  14.115  -4.410  1.00  0.00     0.002 C 
HETATM    7  C7  UNL     1       1.368  14.075  -4.738  1.00  0.00     0.000 C 
HETATM    8  C8  UNL     1       2.083  12.868  -4.133  1.00  0.00     0.002 C 
HETATM    9  C9  UNL     1       3.459  12.577  -4.748  1.00  0.00     0.020 C 
HETATM   10  C10 UNL     1       4.415  13.767  -4.895  1.00  0.00     0.128 C 
HETATM   11  N2  UNL     1       4.815  14.472  -3.690  1.00  0.00    -0.355 N 
HETATM   12  C11 UNL     1       4.742  13.996  -2.410  1.00  0.00     0.106 A 
HETATM   13  C12 UNL     1       5.171  14.986  -1.550  1.00  0.00     0.019 A 
HETATM   14  C13 UNL     1       5.590  16.091  -2.344  1.00  0.00     0.005 A 
HETATM   15  C14 UNL     1       6.122  17.366  -2.052  1.00  0.00     0.014 A 
HETATM   16  C15 UNL     1       6.438  18.240  -3.096  1.00  0.00     0.001 A 
HETATM   17  C16 UNL     1       6.227  17.866  -4.419  1.00  0.00     0.002 A 
HETATM   18  C17 UNL     1       5.689  16.616  -4.737  1.00  0.00     0.030 A 
HETATM   19  C18 UNL     1       5.371  15.742  -3.683  1.00  0.00     0.045 A 
HETATM   20  C19 UNL     1       5.136  14.815  -0.112  1.00  0.00     0.063 A 
HETATM   21  C20 UNL     1       6.276  14.897   0.649  1.00  0.00     0.048 A 
HETATM   22  C21 UNL     1       6.090  14.668   1.986  1.00  0.00     0.108 A 
HETATM   23  N3  UNL     1       4.891  14.394   2.537  1.00  0.00    -0.202 N 
ATOM     24  H3  UNL     1       4.795  14.217   3.537  1.00  0.00     0.183 HD
HETATM   25  C22 UNL     1       3.828  14.364   1.718  1.00  0.00     0.683 A 
HETATM   26  N4  UNL     1       3.918  14.552   0.399  1.00  0.00    -0.191 N 
ATOM     27  H4  UNL     1       3.094  14.497  -0.201  1.00  0.00     0.184 HD
HETATM   28  N5  UNL     1       2.603  14.100   2.317  1.00  0.00    -0.189 N 
HETATM   29  C23 UNL     1       1.276  14.253   1.886  1.00  0.00     0.089 A 
HETATM   30  C24 UNL     1       0.911  14.846   0.664  1.00  0.00     0.063 A 
HETATM   31  C25 UNL     1      -0.434  14.988   0.267  1.00  0.00     0.039 A 
HETATM   32  C26 UNL     1      -1.424  14.485   1.126  1.00  0.00     0.033 A 
HETATM   33  C27 UNL     1      -1.088  13.867   2.330  1.00  0.00     0.047 A 
HETATM   34  C28 UNL     1       0.247  13.756   2.695  1.00  0.00     0.143 A 
HETATM   35  F1  UNL     1       0.552  13.167   3.862  1.00  0.00    -0.204 F 
HETATM   36  H25 UNL     1       2.724  13.894   3.299  1.00  0.00     0.184 HD
ENDROOT
BRANCH   1  37
HETATM   37  C2  UNL     1      -2.269  16.960  -2.426  1.00  0.00     0.064 C 
HETATM   38  C1  UNL     1      -3.347  16.567  -3.117  1.00  0.00     0.017 C 
ENDBRANCH   1  37
TORSDOF 1
ENDMDL
MODEL 7
REMARK minimizedAffinity -7.41030312
REMARK  1 active torsions:
REMARK  status: ('A' for Active; 'I' for Inactive)
REMARK    1  A    between atoms: C2_2  and  C3_3 
REMARK       I    between atoms: C3_3  and  N1_5 
ROOT
HETATM    1  C3  UNL     1       0.579  12.751  15.419  1.00  0.00     0.247 C 
HETATM    2  O1  UNL     1       0.968  13.693  16.107  1.00  0.00    -0.268 OA
HETATM    3  N1  UNL     1       1.292  11.568  15.150  1.00  0.00    -0.315 N 
HETATM    4  C4  UNL     1       0.665  10.426  14.443  1.00  0.00     0.132 C 
HETATM    5  C5  UNL     1      -0.213   9.604  15.400  1.00  0.00     0.020 C 
HETATM    6  C6  UNL     1      -1.346   8.844  14.705  1.00  0.00     0.002 C 
HETATM    7  C7  UNL     1      -0.926   7.821  13.646  1.00  0.00     0.000 C 
HETATM    8  C8  UNL     1       0.008   6.743  14.192  1.00  0.00     0.002 C 
HETATM    9  C9  UNL     1       0.132   5.504  13.294  1.00  0.00     0.020 C 
HETATM   10  C10 UNL     1       0.390   5.754  11.803  1.00  0.00     0.128 C 
HETATM   11  N2  UNL     1       1.602   6.464  11.432  1.00  0.00    -0.355 N 
HETATM   12  C11 UNL     1       2.718   6.620  12.204  1.00  0.00     0.106 A 
HETATM   13  C12 UNL     1       3.625   7.396  11.511  1.00  0.00     0.019 A 
HETATM   14  C13 UNL     1       3.065   7.667  10.230  1.00  0.00     0.005 A 
HETATM   15  C14 UNL     1       3.505   8.386   9.098  1.00  0.00     0.014 A 
HETATM   16  C15 UNL     1       2.688   8.460   7.965  1.00  0.00     0.001 A 
HETATM   17  C16 UNL     1       1.445   7.838   7.949  1.00  0.00     0.002 A 
HETATM   18  C17 UNL     1       0.978   7.131   9.061  1.00  0.00     0.030 A 
HETATM   19  C18 UNL     1       1.802   7.063  10.197  1.00  0.00     0.045 A 
HETATM   20  C19 UNL     1       4.883   7.808  12.099  1.00  0.00     0.063 A 
HETATM   21  C20 UNL     1       6.086   7.473  11.529  1.00  0.00     0.048 A 
HETATM   22  C21 UNL     1       7.188   7.895  12.225  1.00  0.00     0.108 A 
HETATM   23  N3  UNL     1       7.121   8.597  13.374  1.00  0.00    -0.202 N 
ATOM     24  H3  UNL     1       7.965   8.884  13.870  1.00  0.00     0.183 HD
HETATM   25  C22 UNL     1       5.900   8.905  13.839  1.00  0.00     0.683 A 
HETATM   26  N4  UNL     1       4.772   8.515  13.240  1.00  0.00    -0.191 N 
ATOM     27  H4  UNL     1       3.858   8.744  13.633  1.00  0.00     0.184 HD
HETATM   28  N5  UNL     1       5.862   9.647  15.012  1.00  0.00    -0.189 N 
HETATM   29  C23 UNL     1       4.849  10.382  15.647  1.00  0.00     0.089 A 
HETATM   30  C24 UNL     1       3.570  10.588  15.100  1.00  0.00     0.063 A 
HETATM   31  C25 UNL     1       2.578  11.338  15.764  1.00  0.00     0.039 A 
HETATM   32  C26 UNL     1       2.893  11.861  17.027  1.00  0.00     0.033 A 
HETATM   33  C27 UNL     1       4.144  11.647  17.605  1.00  0.00     0.047 A 
HETATM   34  C28 UNL     1       5.101  10.915  16.916  1.00  0.00     0.143 A 
HETATM   35  F1  UNL     1       6.304  10.727  17.483  1.00  0.00    -0.204 F 
HETATM   36  H25 UNL     1       6.795   9.779  15.380  1.00  0.00     0.184 HD
ENDROOT
BRANCH   1  37
HETATM   37  C2  UNL     1      -0.764  12.879  14.782  1.00  0.00     0.064 C 
HETATM   38  C1  UNL     1      -1.094  14.006  14.138  1.00  0.00     0.017 C 
ENDBRANCH   1  37
TORSDOF 1
ENDMDL
MODEL 8
REMARK minimizedAffinity -7.33858824
REMARK  1 active torsions:
REMARK  status: ('A' for Active; 'I' for Inactive)
REMARK    1  A    between atoms: C2_2  and  C3_3 
REMARK       I    between atoms: C3_3  and  N1_5 
ROOT
HETATM    1  C3  UNL     1       8.381   8.556  16.233  1.00  0.00     0.247 C 
HETATM    2  O1  UNL     1       9.429   7.946  16.432  1.00  0.00    -0.268 OA
HETATM    3  N1  UNL     1       7.948   9.708  16.916  1.00  0.00    -0.315 N 
HETATM    4  C4  UNL     1       6.746  10.461  16.486  1.00  0.00     0.132 C 
HETATM    5  C5  UNL     1       7.065  11.368  15.288  1.00  0.00     0.020 C 
HETATM    6  C6  UNL     1       5.854  11.678  14.403  1.00  0.00     0.002 C 
HETATM    7  C7  UNL     1       4.684  12.393  15.083  1.00  0.00     0.000 C 
HETATM    8  C8  UNL     1       5.079  13.729  15.710  1.00  0.00     0.002 C 
HETATM    9  C9  UNL     1       3.892  14.643  16.044  1.00  0.00     0.020 C 
HETATM   10  C10 UNL     1       2.720  14.006  16.799  1.00  0.00     0.128 C 
HETATM   11  N2  UNL     1       2.983  13.436  18.109  1.00  0.00    -0.355 N 
HETATM   12  C11 UNL     1       4.054  13.712  18.913  1.00  0.00     0.106 A 
HETATM   13  C12 UNL     1       3.962  12.932  20.047  1.00  0.00     0.019 A 
HETATM   14  C13 UNL     1       2.745  12.197  19.964  1.00  0.00     0.005 A 
HETATM   15  C14 UNL     1       2.105  11.259  20.802  1.00  0.00     0.014 A 
HETATM   16  C15 UNL     1       0.879  10.709  20.416  1.00  0.00     0.001 A 
HETATM   17  C16 UNL     1       0.289  11.075  19.211  1.00  0.00     0.002 A 
HETATM   18  C17 UNL     1       0.907  11.991  18.355  1.00  0.00     0.030 A 
HETATM   19  C18 UNL     1       2.141  12.538  18.748  1.00  0.00     0.045 A 
HETATM   20  C19 UNL     1       4.995  12.937  21.062  1.00  0.00     0.063 A 
HETATM   21  C20 UNL     1       4.725  13.288  22.362  1.00  0.00     0.048 A 
HETATM   22  C21 UNL     1       5.812  13.289  23.194  1.00  0.00     0.108 A 
HETATM   23  N3  UNL     1       7.058  12.963  22.795  1.00  0.00    -0.202 N 
ATOM     24  H3  UNL     1       7.845  12.987  23.443  1.00  0.00     0.183 HD
HETATM   25  C22 UNL     1       7.221  12.604  21.512  1.00  0.00     0.683 A 
HETATM   26  N4  UNL     1       6.223  12.597  20.624  1.00  0.00    -0.191 N 
ATOM     27  H4  UNL     1       6.385  12.344  19.649  1.00  0.00     0.184 HD
HETATM   28  N5  UNL     1       8.511  12.253  21.135  1.00  0.00    -0.189 N 
HETATM   29  C23 UNL     1       9.030  11.580  20.018  1.00  0.00     0.089 A 
HETATM   30  C24 UNL     1       8.238  11.004  19.010  1.00  0.00     0.063 A 
HETATM   31  C25 UNL     1       8.795  10.329  17.905  1.00  0.00     0.039 A 
HETATM   32  C26 UNL     1      10.194  10.271  17.816  1.00  0.00     0.033 A 
HETATM   33  C27 UNL     1      11.005  10.859  18.787  1.00  0.00     0.047 A 
HETATM   34  C28 UNL     1      10.420  11.504  19.869  1.00  0.00     0.143 A 
HETATM   35  F1  UNL     1      11.215  12.056  20.799  1.00  0.00    -0.204 F 
HETATM   36  H25 UNL     1       9.157  12.399  21.898  1.00  0.00     0.184 HD
ENDROOT
BRANCH   1  37
HETATM   37  C2  UNL     1       7.462   8.015  15.190  1.00  0.00     0.064 C 
HETATM   38  C1  UNL     1       7.907   7.819  13.941  1.00  0.00     0.017 C 
ENDBRANCH   1  37
TORSDOF 1
ENDMDL
MODEL 9
REMARK minimizedAffinity -7.25072861
REMARK  1 active torsions:
REMARK  status: ('A' for Active; 'I' for Inactive)
REMARK    1  A    between atoms: C2_2  and  C3_3 
REMARK       I    between atoms: C3_3  and  N1_5 
ROOT
HETATM    1  C3  UNL     1       0.270  10.533  17.329  1.00  0.00     0.247 C 
HETATM    2  O1  UNL     1      -0.822  10.137  17.730  1.00  0.00    -0.268 OA
HETATM    3  N1  UNL     1       0.807  10.329  16.045  1.00  0.00    -0.315 N 
HETATM    4  C4  UNL     1       2.062  10.990  15.613  1.00  0.00     0.132 C 
HETATM    5  C5  UNL     1       1.802  12.448  15.204  1.00  0.00     0.020 C 
HETATM    6  C6  UNL     1       3.022  13.362  15.354  1.00  0.00     0.002 C 
HETATM    7  C7  UNL     1       4.257  12.982  14.534  1.00  0.00     0.000 C 
HETATM    8  C8  UNL     1       3.983  12.915  13.032  1.00  0.00     0.002 C 
HETATM    9  C9  UNL     1       5.247  12.931  12.160  1.00  0.00     0.020 C 
HETATM   10  C10 UNL     1       6.373  11.969  12.559  1.00  0.00     0.128 C 
HETATM   11  N2  UNL     1       6.082  10.546  12.566  1.00  0.00    -0.355 N 
HETATM   12  C11 UNL     1       5.050   9.927  11.918  1.00  0.00     0.106 A 
HETATM   13  C12 UNL     1       5.092   8.580  12.215  1.00  0.00     0.019 A 
HETATM   14  C13 UNL     1       6.242   8.356  13.024  1.00  0.00     0.005 A 
HETATM   15  C14 UNL     1       6.814   7.214  13.624  1.00  0.00     0.014 A 
HETATM   16  C15 UNL     1       7.985   7.341  14.379  1.00  0.00     0.001 A 
HETATM   17  C16 UNL     1       8.586   8.583  14.546  1.00  0.00     0.002 A 
HETATM   18  C17 UNL     1       8.034   9.733  13.975  1.00  0.00     0.030 A 
HETATM   19  C18 UNL     1       6.855   9.600  13.221  1.00  0.00     0.045 A 
HETATM   20  C19 UNL     1       4.078   7.662  11.741  1.00  0.00     0.063 A 
HETATM   21  C20 UNL     1       4.395   6.587  10.947  1.00  0.00     0.048 A 
HETATM   22  C21 UNL     1       3.324   5.838  10.541  1.00  0.00     0.108 A 
HETATM   23  N3  UNL     1       2.050   6.106  10.890  1.00  0.00    -0.202 N 
ATOM     24  H3  UNL     1       1.276   5.530  10.558  1.00  0.00     0.183 HD
HETATM   25  C22 UNL     1       1.839   7.160  11.693  1.00  0.00     0.683 A 
HETATM   26  N4  UNL     1       2.820   7.961  12.119  1.00  0.00    -0.191 N 
ATOM     27  H4  UNL     1       2.624   8.770  12.708  1.00  0.00     0.184 HD
HETATM   28  N5  UNL     1       0.519   7.400  12.054  1.00  0.00    -0.189 N 
HETATM   29  C23 UNL     1      -0.071   8.187  13.054  1.00  0.00     0.089 A 
HETATM   30  C24 UNL     1       0.657   8.887  14.033  1.00  0.00     0.063 A 
HETATM   31  C25 UNL     1       0.029   9.664  15.027  1.00  0.00     0.039 A 
HETATM   32  C26 UNL     1      -1.371   9.751  15.000  1.00  0.00     0.033 A 
HETATM   33  C27 UNL     1      -2.116   9.090  14.023  1.00  0.00     0.047 A 
HETATM   34  C28 UNL     1      -1.464   8.323  13.067  1.00  0.00     0.143 A 
HETATM   35  F1  UNL     1      -2.197   7.685  12.139  1.00  0.00    -0.204 F 
HETATM   36  H25 UNL     1      -0.102   6.760  11.576  1.00  0.00     0.184 HD
ENDROOT
BRANCH   1  37
HETATM   37  C2  UNL     1       1.126  11.276  18.299  1.00  0.00     0.064 C 
HETATM   38  C1  UNL     1       1.022  11.027  19.612  1.00  0.00     0.017 C 
ENDBRANCH   1  37
TORSDOF 1
ENDMDL
