MODEL 1
REMARK minimizedAffinity -9.69486141
REMARK  9 active torsions:
REMARK  status: ('A' for Active; 'I' for Inactive)
REMARK    1  A    between atoms: O1_2  and  C2_3 
REMARK    2  A    between atoms: C5_6  and  C6_7 
REMARK    3  A    between atoms: C6_7  and  C7_8 
REMARK    4  A    between atoms: C7_8  and  C8_9 
REMARK    5  A    between atoms: C7_8  and  N1_11 
REMARK    6  A    between atoms: C8_9  and  O2_10 
REMARK    7  A    between atoms: C10_13  and  C11_14 
REMARK    8  A    between atoms: C15_18  and  O3_19 
REMARK    9  A    between atoms: C18_22  and  N2_23 
ROOT
HETATM    1  N1  UNL     1       7.602  -5.112  30.144  1.00  0.00    -0.334 N 
HETATM    2  C9  UNL     1       7.805  -4.768  31.460  1.00  0.00     0.106 A 
HETATM    3  C10 UNL     1       9.164  -4.618  31.661  1.00  0.00     0.007 A 
HETATM    4  C17 UNL     1       9.809  -4.856  30.409  1.00  0.00     0.059 A 
HETATM    5  C18 UNL     1      11.125  -4.851  29.916  1.00  0.00     0.093 A 
HETATM    6  N3  UNL     1      11.338  -5.130  28.615  1.00  0.00    -0.343 N 
ATOM      7  H3  UNL     1      12.282  -5.134  28.229  1.00  0.00     0.167 HD
HETATM    8  C19 UNL     1      10.274  -5.402  27.838  1.00  0.00     0.183 A 
HETATM    9  N4  UNL     1       8.979  -5.423  28.185  1.00  0.00    -0.338 N 
ATOM     10  H4  UNL     1       8.216  -5.622  27.537  1.00  0.00     0.168 HD
HETATM   11  C20 UNL     1       8.808  -5.149  29.489  1.00  0.00     0.123 A 
ENDROOT
BRANCH   1  12
HETATM   12  C7  UNL     1       6.286  -5.375  29.549  1.00  0.00     0.118 C 
BRANCH  12  13
HETATM   13  C6  UNL     1       6.181  -6.839  29.076  1.00  0.00     0.066 C 
BRANCH  13  14
HETATM   14  C5  UNL     1       4.830  -7.185  28.490  1.00  0.00    -0.056 A 
HETATM   15  C4  UNL     1       3.724  -6.349  28.695  1.00  0.00     0.010 A 
HETATM   16  C3  UNL     1       2.470  -6.678  28.168  1.00  0.00     0.037 A 
HETATM   17  C2  UNL     1       2.308  -7.845  27.422  1.00  0.00     0.068 A 
HETATM   18  C22 UNL     1       3.411  -8.671  27.203  1.00  0.00     0.037 A 
HETATM   19  C21 UNL     1       4.662  -8.348  27.732  1.00  0.00     0.010 A 
BRANCH  17  20
HETATM   20  O1  UNL     1       1.144  -8.281  26.852  1.00  0.00    -0.356 OA
HETATM   21  C1  UNL     1       1.033  -8.154  25.441  1.00  0.00     0.210 C 
ENDBRANCH  17  20
ENDBRANCH  13  14
ENDBRANCH  12  13
BRANCH  12  22
HETATM   22  C8  UNL     1       5.140  -4.968  30.494  1.00  0.00     0.190 C 
BRANCH  22  23
HETATM   23  O2  UNL     1       4.745  -3.610  30.284  1.00  0.00    -0.399 OA
HETATM   24  H11 UNL     1       4.380  -3.538  29.386  1.00  0.00     0.209 HD
ENDBRANCH  22  23
ENDBRANCH  12  22
ENDBRANCH   1  12
BRANCH   3  25
HETATM   25  C11 UNL     1       9.725  -4.299  32.961  1.00  0.00    -0.021 A 
HETATM   26  C12 UNL     1      11.011  -3.755  33.055  1.00  0.00     0.012 A 
HETATM   27  C13 UNL     1      11.552  -3.436  34.302  1.00  0.00     0.004 A 
HETATM   28  C14 UNL     1      10.813  -3.659  35.464  1.00  0.00     0.036 A 
HETATM   29  C15 UNL     1       9.534  -4.200  35.365  1.00  0.00     0.066 A 
HETATM   30  C16 UNL     1       8.987  -4.524  34.128  1.00  0.00     0.049 A 
BRANCH  29  31
HETATM   31  O3  UNL     1       8.775  -4.428  36.475  1.00  0.00    -0.361 OA
HETATM   32  H16 UNL     1       9.285  -4.162  37.258  1.00  0.00     0.217 HD
ENDBRANCH  29  31
ENDBRANCH   3  25
BRANCH   5  33
HETATM   33  N2  UNL     1      12.245  -4.551  30.680  1.00  0.00    -0.288 NA
HETATM   34  H18 UNL     1      13.028  -4.312  30.084  1.00  0.00     0.125 HD
HETATM   35  H19 UNL     1      12.066  -3.933  31.462  1.00  0.00     0.125 HD
ENDBRANCH   5  33
TORSDOF 9
ENDMDL
MODEL 2
REMARK minimizedAffinity -9.46187496
REMARK  9 active torsions:
REMARK  status: ('A' for Active; 'I' for Inactive)
REMARK    1  A    between atoms: O1_2  and  C2_3 
REMARK    2  A    between atoms: C5_6  and  C6_7 
REMARK    3  A    between atoms: C6_7  and  C7_8 
REMARK    4  A    between atoms: C7_8  and  C8_9 
REMARK    5  A    between atoms: C7_8  and  N1_11 
REMARK    6  A    between atoms: C8_9  and  O2_10 
REMARK    7  A    between atoms: C10_13  and  C11_14 
REMARK    8  A    between atoms: C15_18  and  O3_19 
REMARK    9  A    between atoms: C18_22  and  N2_23 
ROOT
HETATM    1  N1  UNL     1       8.574  -5.900  30.065  1.00  0.00    -0.334 N 
HETATM    2  C9  UNL     1       8.653  -5.705  31.424  1.00  0.00     0.106 A 
HETATM    3  C10 UNL     1       9.692  -4.829  31.675  1.00  0.00     0.007 A 
HETATM    4  C17 UNL     1      10.249  -4.457  30.413  1.00  0.00     0.059 A 
HETATM    5  C18 UNL     1      11.277  -3.616  29.954  1.00  0.00     0.093 A 
HETATM    6  N3  UNL     1      11.500  -3.519  28.629  1.00  0.00    -0.343 N 
ATOM      7  H3  UNL     1      12.240  -2.918  28.266  1.00  0.00     0.167 HD
HETATM    8  C19 UNL     1      10.724  -4.237  27.796  1.00  0.00     0.183 A 
HETATM    9  N4  UNL     1       9.709  -5.055  28.109  1.00  0.00    -0.338 N 
ATOM     10  H4  UNL     1       9.147  -5.558  27.422  1.00  0.00     0.168 HD
HETATM   11  C20 UNL     1       9.523  -5.132  29.438  1.00  0.00     0.123 A 
ENDROOT
BRANCH   1  12
HETATM   12  C7  UNL     1       7.602  -6.783  29.409  1.00  0.00     0.118 C 
BRANCH  12  13
HETATM   13  C6  UNL     1       6.755  -6.001  28.385  1.00  0.00     0.066 C 
BRANCH  13  14
HETATM   14  C5  UNL     1       5.310  -6.445  28.337  1.00  0.00    -0.056 A 
HETATM   15  C4  UNL     1       4.945  -7.627  27.679  1.00  0.00     0.010 A 
HETATM   16  C3  UNL     1       3.605  -8.028  27.620  1.00  0.00     0.037 A 
HETATM   17  C2  UNL     1       2.614  -7.256  28.225  1.00  0.00     0.068 A 
HETATM   18  C22 UNL     1       2.977  -6.087  28.895  1.00  0.00     0.037 A 
HETATM   19  C21 UNL     1       4.313  -5.681  28.952  1.00  0.00     0.010 A 
BRANCH  17  20
HETATM   20  O1  UNL     1       1.275  -7.534  28.244  1.00  0.00    -0.356 OA
HETATM   21  C1  UNL     1       0.838  -8.638  27.464  1.00  0.00     0.210 C 
ENDBRANCH  17  20
ENDBRANCH  13  14
ENDBRANCH  12  13
BRANCH  12  22
HETATM   22  C8  UNL     1       8.279  -8.026  28.802  1.00  0.00     0.190 C 
BRANCH  22  23
HETATM   23  O2  UNL     1       7.694  -9.234  29.294  1.00  0.00    -0.399 OA
HETATM   24  H11 UNL     1       6.771  -9.267  28.992  1.00  0.00     0.209 HD
ENDBRANCH  22  23
ENDBRANCH  12  22
ENDBRANCH   1  12
BRANCH   3  25
HETATM   25  C11 UNL     1      10.075  -4.445  33.020  1.00  0.00    -0.021 A 
HETATM   26  C12 UNL     1      11.349  -3.920  33.263  1.00  0.00     0.012 A 
HETATM   27  C13 UNL     1      11.720  -3.539  34.555  1.00  0.00     0.004 A 
HETATM   28  C14 UNL     1      10.821  -3.682  35.612  1.00  0.00     0.036 A 
HETATM   29  C15 UNL     1       9.555  -4.203  35.365  1.00  0.00     0.066 A 
HETATM   30  C16 UNL     1       9.176  -4.588  34.083  1.00  0.00     0.049 A 
BRANCH  29  31
HETATM   31  O3  UNL     1       8.643  -4.352  36.369  1.00  0.00    -0.361 OA
HETATM   32  H16 UNL     1       9.047  -4.052  37.200  1.00  0.00     0.217 HD
ENDBRANCH  29  31
ENDBRANCH   3  25
BRANCH   5  33
HETATM   33  N2  UNL     1      12.082  -2.843  30.780  1.00  0.00    -0.288 NA
HETATM   34  H18 UNL     1      12.533  -2.107  30.249  1.00  0.00     0.125 HD
HETATM   35  H19 UNL     1      11.648  -2.570  31.652  1.00  0.00     0.125 HD
ENDBRANCH   5  33
TORSDOF 9
ENDMDL
MODEL 3
REMARK minimizedAffinity -9.26837444
REMARK  9 active torsions:
REMARK  status: ('A' for Active; 'I' for Inactive)
REMARK    1  A    between atoms: O1_2  and  C2_3 
REMARK    2  A    between atoms: C5_6  and  C6_7 
REMARK    3  A    between atoms: C6_7  and  C7_8 
REMARK    4  A    between atoms: C7_8  and  C8_9 
REMARK    5  A    between atoms: C7_8  and  N1_11 
REMARK    6  A    between atoms: C8_9  and  O2_10 
REMARK    7  A    between atoms: C10_13  and  C11_14 
REMARK    8  A    between atoms: C15_18  and  O3_19 
REMARK    9  A    between atoms: C18_22  and  N2_23 
ROOT
HETATM    1  N1  UNL     1       7.591  -4.982  30.089  1.00  0.00    -0.334 N 
HETATM    2  C9  UNL     1       7.788  -4.615  31.400  1.00  0.00     0.106 A 
HETATM    3  C10 UNL     1       9.149  -4.590  31.640  1.00  0.00     0.007 A 
HETATM    4  C17 UNL     1       9.804  -4.931  30.417  1.00  0.00     0.059 A 
HETATM    5  C18 UNL     1      11.128  -5.070  29.968  1.00  0.00     0.093 A 
HETATM    6  N3  UNL     1      11.350  -5.411  28.683  1.00  0.00    -0.343 N 
ATOM      7  H3  UNL     1      12.300  -5.519  28.328  1.00  0.00     0.167 HD
HETATM    8  C19 UNL     1      10.288  -5.606  27.881  1.00  0.00     0.183 A 
HETATM    9  N4  UNL     1       8.988  -5.490  28.186  1.00  0.00    -0.338 N 
ATOM     10  H4  UNL     1       8.229  -5.636  27.520  1.00  0.00     0.168 HD
HETATM   11  C20 UNL     1       8.807  -5.157  29.476  1.00  0.00     0.123 A 
ENDROOT
BRANCH   1  12
HETATM   12  C7  UNL     1       6.273  -5.137  29.460  1.00  0.00     0.118 C 
BRANCH  12  13
HETATM   13  C6  UNL     1       5.618  -6.467  29.882  1.00  0.00     0.066 C 
BRANCH  13  14
HETATM   14  C5  UNL     1       5.892  -7.603  28.922  1.00  0.00    -0.056 A 
HETATM   15  C4  UNL     1       5.051  -7.832  27.825  1.00  0.00     0.010 A 
HETATM   16  C3  UNL     1       5.294  -8.895  26.946  1.00  0.00     0.037 A 
HETATM   17  C2  UNL     1       6.387  -9.736  27.150  1.00  0.00     0.068 A 
HETATM   18  C22 UNL     1       7.235  -9.500  28.232  1.00  0.00     0.037 A 
HETATM   19  C21 UNL     1       6.992  -8.445  29.114  1.00  0.00     0.010 A 
BRANCH  17  20
HETATM   20  O1  UNL     1       6.738 -10.803  26.369  1.00  0.00    -0.356 OA
HETATM   21  C1  UNL     1       8.087 -11.241  26.450  1.00  0.00     0.210 C 
ENDBRANCH  17  20
ENDBRANCH  13  14
ENDBRANCH  12  13
BRANCH  12  22
HETATM   22  C8  UNL     1       5.371  -3.916  29.718  1.00  0.00     0.190 C 
BRANCH  22  23
HETATM   23  O2  UNL     1       4.028  -4.311  30.013  1.00  0.00    -0.399 OA
HETATM   24  H11 UNL     1       4.037  -4.808  30.848  1.00  0.00     0.209 HD
ENDBRANCH  22  23
ENDBRANCH  12  22
ENDBRANCH   1  12
BRANCH   3  25
HETATM   25  C11 UNL     1       9.700  -4.283  32.947  1.00  0.00    -0.021 A 
HETATM   26  C12 UNL     1      10.989  -3.749  33.056  1.00  0.00     0.012 A 
HETATM   27  C13 UNL     1      11.521  -3.442  34.310  1.00  0.00     0.004 A 
HETATM   28  C14 UNL     1      10.769  -3.666  35.464  1.00  0.00     0.036 A 
HETATM   29  C15 UNL     1       9.487  -4.197  35.350  1.00  0.00     0.066 A 
HETATM   30  C16 UNL     1       8.949  -4.509  34.106  1.00  0.00     0.049 A 
BRANCH  29  31
HETATM   31  O3  UNL     1       8.716  -4.425  36.452  1.00  0.00    -0.361 OA
HETATM   32  H16 UNL     1       9.220  -4.168  37.240  1.00  0.00     0.217 HD
ENDBRANCH  29  31
ENDBRANCH   3  25
BRANCH   5  33
HETATM   33  N2  UNL     1      12.248  -4.853  30.758  1.00  0.00    -0.288 NA
HETATM   34  H18 UNL     1      13.069  -4.711  30.181  1.00  0.00     0.125 HD
HETATM   35  H19 UNL     1      12.108  -4.195  31.514  1.00  0.00     0.125 HD
ENDBRANCH   5  33
TORSDOF 9
ENDMDL
MODEL 4
REMARK minimizedAffinity -8.87836742
REMARK  9 active torsions:
REMARK  status: ('A' for Active; 'I' for Inactive)
REMARK    1  A    between atoms: O1_2  and  C2_3 
REMARK    2  A    between atoms: C5_6  and  C6_7 
REMARK    3  A    between atoms: C6_7  and  C7_8 
REMARK    4  A    between atoms: C7_8  and  C8_9 
REMARK    5  A    between atoms: C7_8  and  N1_11 
REMARK    6  A    between atoms: C8_9  and  O2_10 
REMARK    7  A    between atoms: C10_13  and  C11_14 
REMARK    8  A    between atoms: C15_18  and  O3_19 
REMARK    9  A    between atoms: C18_22  and  N2_23 
ROOT
HETATM    1  N1  UNL     1       6.847  -6.104  29.604  1.00  0.00    -0.334 N 
HETATM    2  C9  UNL     1       5.614  -6.712  29.552  1.00  0.00     0.106 A 
HETATM    3  C10 UNL     1       5.431  -7.204  28.273  1.00  0.00     0.007 A 
HETATM    4  C17 UNL     1       6.613  -6.904  27.528  1.00  0.00     0.059 A 
HETATM    5  C18 UNL     1       7.086  -7.126  26.223  1.00  0.00     0.093 A 
HETATM    6  N3  UNL     1       8.313  -6.680  25.888  1.00  0.00    -0.343 N 
ATOM      7  H3  UNL     1       8.683  -6.825  24.949  1.00  0.00     0.167 HD
HETATM    8  C19 UNL     1       9.036  -6.037  26.822  1.00  0.00     0.183 A 
HETATM    9  N4  UNL     1       8.703  -5.779  28.095  1.00  0.00    -0.338 N 
ATOM     10  H4  UNL     1       9.311  -5.299  28.759  1.00  0.00     0.168 HD
HETATM   11  C20 UNL     1       7.472  -6.232  28.389  1.00  0.00     0.123 A 
ENDROOT
BRANCH   1  12
HETATM   12  C7  UNL     1       7.395  -5.444  30.795  1.00  0.00     0.118 C 
BRANCH  12  13
HETATM   13  C6  UNL     1       8.900  -5.745  30.945  1.00  0.00     0.066 C 
BRANCH  13  14
HETATM   14  C5  UNL     1       9.511  -5.147  32.193  1.00  0.00    -0.056 A 
HETATM   15  C4  UNL     1       8.795  -5.119  33.398  1.00  0.00     0.010 A 
HETATM   16  C3  UNL     1       9.354  -4.551  34.549  1.00  0.00     0.037 A 
HETATM   17  C2  UNL     1      10.638  -4.009  34.511  1.00  0.00     0.068 A 
HETATM   18  C22 UNL     1      11.358  -4.050  33.317  1.00  0.00     0.037 A 
HETATM   19  C21 UNL     1      10.802  -4.612  32.165  1.00  0.00     0.010 A 
BRANCH  17  20
HETATM   20  O1  UNL     1      11.299  -3.428  35.558  1.00  0.00    -0.356 OA
HETATM   21  C1  UNL     1      12.488  -2.714  35.251  1.00  0.00     0.210 C 
ENDBRANCH  17  20
ENDBRANCH  13  14
ENDBRANCH  12  13
BRANCH  12  22
HETATM   22  C8  UNL     1       7.083  -3.936  30.807  1.00  0.00     0.190 C 
BRANCH  22  23
HETATM   23  O2  UNL     1       5.737  -3.677  30.397  1.00  0.00    -0.399 OA
HETATM   24  H11 UNL     1       5.141  -4.071  31.055  1.00  0.00     0.209 HD
ENDBRANCH  22  23
ENDBRANCH  12  22
ENDBRANCH   1  12
BRANCH   3  25
HETATM   25  C11 UNL     1       4.207  -7.868  27.866  1.00  0.00    -0.021 A 
HETATM   26  C12 UNL     1       4.257  -9.156  27.320  1.00  0.00     0.012 A 
HETATM   27  C13 UNL     1       3.081  -9.804  26.936  1.00  0.00     0.004 A 
HETATM   28  C14 UNL     1       1.848  -9.169  27.092  1.00  0.00     0.036 A 
HETATM   29  C15 UNL     1       1.805  -7.889  27.635  1.00  0.00     0.066 A 
HETATM   30  C16 UNL     1       2.970  -7.233  28.019  1.00  0.00     0.049 A 
BRANCH  29  31
HETATM   31  O3  UNL     1       0.620  -7.235  27.811  1.00  0.00    -0.361 OA
HETATM   32  H16 UNL     1      -0.098  -7.807  27.495  1.00  0.00     0.217 HD
ENDBRANCH  29  31
ENDBRANCH   3  25
BRANCH   5  33
HETATM   33  N2  UNL     1       6.380  -7.806  25.241  1.00  0.00    -0.288 NA
HETATM   34  H18 UNL     1       7.002  -8.111  24.502  1.00  0.00     0.125 HD
HETATM   35  H19 UNL     1       5.726  -8.494  25.593  1.00  0.00     0.125 HD
ENDBRANCH   5  33
TORSDOF 9
ENDMDL
MODEL 5
REMARK minimizedAffinity -8.82559299
REMARK  9 active torsions:
REMARK  status: ('A' for Active; 'I' for Inactive)
REMARK    1  A    between atoms: O1_2  and  C2_3 
REMARK    2  A    between atoms: C5_6  and  C6_7 
REMARK    3  A    between atoms: C6_7  and  C7_8 
REMARK    4  A    between atoms: C7_8  and  C8_9 
REMARK    5  A    between atoms: C7_8  and  N1_11 
REMARK    6  A    between atoms: C8_9  and  O2_10 
REMARK    7  A    between atoms: C10_13  and  C11_14 
REMARK    8  A    between atoms: C15_18  and  O3_19 
REMARK    9  A    between atoms: C18_22  and  N2_23 
ROOT
HETATM    1  N1  UNL     1       9.617  -6.292  27.614  1.00  0.00    -0.334 N 
HETATM    2  C9  UNL     1       8.451  -6.076  28.311  1.00  0.00     0.106 A 
HETATM    3  C10 UNL     1       7.405  -6.593  27.571  1.00  0.00     0.007 A 
HETATM    4  C17 UNL     1       7.964  -7.169  26.388  1.00  0.00     0.059 A 
HETATM    5  C18 UNL     1       7.486  -7.853  25.257  1.00  0.00     0.093 A 
HETATM    6  N3  UNL     1       8.365  -8.263  24.322  1.00  0.00    -0.343 N 
ATOM      7  H3  UNL     1       8.049  -8.761  23.490  1.00  0.00     0.167 HD
HETATM    8  C19 UNL     1       9.671  -7.999  24.513  1.00  0.00     0.183 A 
HETATM    9  N4  UNL     1      10.246  -7.373  25.549  1.00  0.00    -0.338 N 
ATOM     10  H4  UNL     1      11.251  -7.221  25.639  1.00  0.00     0.168 HD
HETATM   11  C20 UNL     1       9.338  -6.972  26.455  1.00  0.00     0.123 A 
ENDROOT
BRANCH   1  12
HETATM   12  C7  UNL     1      10.946  -5.867  28.070  1.00  0.00     0.118 C 
BRANCH  12  13
HETATM   13  C6  UNL     1      11.281  -6.489  29.440  1.00  0.00     0.066 C 
BRANCH  13  14
HETATM   14  C5  UNL     1      11.207  -5.501  30.583  1.00  0.00    -0.056 A 
HETATM   15  C4  UNL     1      10.656  -5.874  31.817  1.00  0.00     0.010 A 
HETATM   16  C3  UNL     1      10.571  -4.955  32.870  1.00  0.00     0.037 A 
HETATM   17  C2  UNL     1      11.043  -3.653  32.703  1.00  0.00     0.068 A 
HETATM   18  C22 UNL     1      11.606  -3.285  31.481  1.00  0.00     0.037 A 
HETATM   19  C21 UNL     1      11.688  -4.198  30.427  1.00  0.00     0.010 A 
BRANCH  17  20
HETATM   20  O1  UNL     1      11.022  -2.662  33.646  1.00  0.00    -0.356 OA
HETATM   21  C1  UNL     1      12.082  -2.654  34.592  1.00  0.00     0.210 C 
ENDBRANCH  17  20
ENDBRANCH  13  14
ENDBRANCH  12  13
BRANCH  12  22
HETATM   22  C8  UNL     1      12.028  -6.139  27.009  1.00  0.00     0.190 C 
BRANCH  22  23
HETATM   23  O2  UNL     1      12.330  -4.962  26.255  1.00  0.00    -0.399 OA
HETATM   24  H11 UNL     1      12.719  -4.308  26.860  1.00  0.00     0.209 HD
ENDBRANCH  22  23
ENDBRANCH  12  22
ENDBRANCH   1  12
BRANCH   3  25
HETATM   25  C11 UNL     1       6.024  -6.491  28.003  1.00  0.00    -0.021 A 
HETATM   26  C12 UNL     1       5.110  -7.499  27.676  1.00  0.00     0.012 A 
HETATM   27  C13 UNL     1       3.782  -7.411  28.098  1.00  0.00     0.004 A 
HETATM   28  C14 UNL     1       3.357  -6.315  28.849  1.00  0.00     0.036 A 
HETATM   29  C15 UNL     1       4.270  -5.315  29.173  1.00  0.00     0.066 A 
HETATM   30  C16 UNL     1       5.594  -5.391  28.755  1.00  0.00     0.049 A 
BRANCH  29  31
HETATM   31  O3  UNL     1       3.898  -4.230  29.912  1.00  0.00    -0.361 OA
HETATM   32  H16 UNL     1       2.954  -4.310  30.123  1.00  0.00     0.217 HD
ENDBRANCH  29  31
ENDBRANCH   3  25
BRANCH   5  33
HETATM   33  N2  UNL     1       6.152  -8.165  25.038  1.00  0.00    -0.288 NA
HETATM   34  H18 UNL     1       6.067  -8.899  24.345  1.00  0.00     0.125 HD
HETATM   35  H19 UNL     1       5.602  -8.273  25.881  1.00  0.00     0.125 HD
ENDBRANCH   5  33
TORSDOF 9
ENDMDL
MODEL 6
REMARK minimizedAffinity -8.58811188
REMARK  9 active torsions:
REMARK  status: ('A' for Active; 'I' for Inactive)
REMARK    1  A    between atoms: O1_2  and  C2_3 
REMARK    2  A    between atoms: C5_6  and  C6_7 
REMARK    3  A    between atoms: C6_7  and  C7_8 
REMARK    4  A    between atoms: C7_8  and  C8_9 
REMARK    5  A    between atoms: C7_8  and  N1_11 
REMARK    6  A    between atoms: C8_9  and  O2_10 
REMARK    7  A    between atoms: C10_13  and  C11_14 
REMARK    8  A    between atoms: C15_18  and  O3_19 
REMARK    9  A    between atoms: C18_22  and  N2_23 
ROOT
HETATM    1  N1  UNL     1       7.925  -6.287  29.180  1.00  0.00    -0.334 N 
HETATM    2  C9  UNL     1       8.130  -5.543  30.318  1.00  0.00     0.106 A 
HETATM    3  C10 UNL     1       9.203  -4.701  30.096  1.00  0.00     0.007 A 
HETATM    4  C17 UNL     1       9.650  -4.925  28.757  1.00  0.00     0.059 A 
HETATM    5  C18 UNL     1      10.648  -4.413  27.911  1.00  0.00     0.093 A 
HETATM    6  N3  UNL     1      10.752  -4.896  26.657  1.00  0.00    -0.343 N 
ATOM      7  H3  UNL     1      11.467  -4.544  26.019  1.00  0.00     0.167 HD
HETATM    8  C19 UNL     1       9.891  -5.853  26.267  1.00  0.00     0.183 A 
HETATM    9  N4  UNL     1       8.895  -6.407  26.971  1.00  0.00    -0.338 N 
ATOM     10  H4  UNL     1       8.264  -7.121  26.606  1.00  0.00     0.168 HD
HETATM   11  C20 UNL     1       8.828  -5.908  28.217  1.00  0.00     0.123 A 
ENDROOT
BRANCH   1  12
HETATM   12  C7  UNL     1       6.883  -7.310  29.034  1.00  0.00     0.118 C 
BRANCH  12  13
HETATM   13  C6  UNL     1       6.106  -7.118  27.716  1.00  0.00     0.066 C 
BRANCH  13  14
HETATM   14  C5  UNL     1       4.621  -7.366  27.852  1.00  0.00    -0.056 A 
HETATM   15  C4  UNL     1       3.785  -6.404  28.436  1.00  0.00     0.010 A 
HETATM   16  C3  UNL     1       2.412  -6.641  28.578  1.00  0.00     0.037 A 
HETATM   17  C2  UNL     1       1.857  -7.839  28.131  1.00  0.00     0.068 A 
HETATM   18  C22 UNL     1       2.685  -8.791  27.534  1.00  0.00     0.037 A 
HETATM   19  C21 UNL     1       4.056  -8.561  27.396  1.00  0.00     0.010 A 
BRANCH  17  20
HETATM   20  O1  UNL     1       0.539  -8.194  28.206  1.00  0.00    -0.356 OA
HETATM   21  C1  UNL     1      -0.062  -8.690  27.018  1.00  0.00     0.210 C 
ENDBRANCH  17  20
ENDBRANCH  13  14
ENDBRANCH  12  13
BRANCH  12  22
HETATM   22  C8  UNL     1       7.452  -8.732  29.191  1.00  0.00     0.190 C 
BRANCH  22  23
HETATM   23  O2  UNL     1       8.881  -8.735  29.128  1.00  0.00    -0.399 OA
HETATM   24  H11 UNL     1       9.217  -8.234  29.890  1.00  0.00     0.209 HD
ENDBRANCH  22  23
ENDBRANCH  12  22
ENDBRANCH   1  12
BRANCH   3  25
HETATM   25  C11 UNL     1       9.712  -3.808  31.119  1.00  0.00    -0.021 A 
HETATM   26  C12 UNL     1       9.123  -2.553  31.311  1.00  0.00     0.012 A 
HETATM   27  C13 UNL     1       9.603  -1.693  32.301  1.00  0.00     0.004 A 
HETATM   28  C14 UNL     1      10.675  -2.080  33.105  1.00  0.00     0.036 A 
HETATM   29  C15 UNL     1      11.257  -3.328  32.911  1.00  0.00     0.066 A 
HETATM   30  C16 UNL     1      10.789  -4.192  31.926  1.00  0.00     0.049 A 
BRANCH  29  31
HETATM   31  O3  UNL     1      12.303  -3.749  33.680  1.00  0.00    -0.361 OA
HETATM   32  H16 UNL     1      12.522  -3.047  34.313  1.00  0.00     0.217 HD
ENDBRANCH  29  31
ENDBRANCH   3  25
BRANCH   5  33
HETATM   33  N2  UNL     1      11.537  -3.410  28.269  1.00  0.00    -0.288 NA
HETATM   34  H18 UNL     1      11.952  -2.991  27.444  1.00  0.00     0.125 HD
HETATM   35  H19 UNL     1      11.189  -2.771  28.973  1.00  0.00     0.125 HD
ENDBRANCH   5  33
TORSDOF 9
ENDMDL
MODEL 7
REMARK minimizedAffinity -8.57417488
REMARK  9 active torsions:
REMARK  status: ('A' for Active; 'I' for Inactive)
REMARK    1  A    between atoms: O1_2  and  C2_3 
REMARK    2  A    between atoms: C5_6  and  C6_7 
REMARK    3  A    between atoms: C6_7  and  C7_8 
REMARK    4  A    between atoms: C7_8  and  C8_9 
REMARK    5  A    between atoms: C7_8  and  N1_11 
REMARK    6  A    between atoms: C8_9  and  O2_10 
REMARK    7  A    between atoms: C10_13  and  C11_14 
REMARK    8  A    between atoms: C15_18  and  O3_19 
REMARK    9  A    between atoms: C18_22  and  N2_23 
ROOT
HETATM    1  N1  UNL     1       7.441  -6.164  28.905  1.00  0.00    -0.334 N 
HETATM    2  C9  UNL     1       7.030  -7.279  28.212  1.00  0.00     0.106 A 
HETATM    3  C10 UNL     1       5.648  -7.316  28.235  1.00  0.00     0.007 A 
HETATM    4  C17 UNL     1       5.204  -6.160  28.948  1.00  0.00     0.059 A 
HETATM    5  C18 UNL     1       3.971  -5.592  29.310  1.00  0.00     0.093 A 
HETATM    6  N3  UNL     1       3.963  -4.437  30.005  1.00  0.00    -0.343 N 
ATOM      7  H3  UNL     1       3.084  -4.000  30.283  1.00  0.00     0.167 HD
HETATM    8  C19 UNL     1       5.142  -3.874  30.323  1.00  0.00     0.183 A 
HETATM    9  N4  UNL     1       6.375  -4.308  30.022  1.00  0.00    -0.338 N 
ATOM     10  H4  UNL     1       7.232  -3.820  30.282  1.00  0.00     0.168 HD
HETATM   11  C20 UNL     1       6.342  -5.465  29.338  1.00  0.00     0.123 A 
ENDROOT
BRANCH   1  12
HETATM   12  C7  UNL     1       8.844  -5.790  29.117  1.00  0.00     0.118 C 
BRANCH  12  13
HETATM   13  C6  UNL     1       9.339  -6.274  30.494  1.00  0.00     0.066 C 
BRANCH  13  14
HETATM   14  C5  UNL     1       9.880  -5.160  31.363  1.00  0.00    -0.056 A 
HETATM   15  C4  UNL     1       9.975  -3.851  30.873  1.00  0.00     0.010 A 
HETATM   16  C3  UNL     1      10.492  -2.823  31.672  1.00  0.00     0.037 A 
HETATM   17  C2  UNL     1      10.915  -3.092  32.973  1.00  0.00     0.068 A 
HETATM   18  C22 UNL     1      10.807  -4.392  33.468  1.00  0.00     0.037 A 
HETATM   19  C21 UNL     1      10.296  -5.420  32.673  1.00  0.00     0.010 A 
BRANCH  17  20
HETATM   20  O1  UNL     1      11.435  -2.185  33.855  1.00  0.00    -0.356 OA
HETATM   21  C1  UNL     1      12.144  -2.707  34.969  1.00  0.00     0.210 C 
ENDBRANCH  17  20
ENDBRANCH  13  14
ENDBRANCH  12  13
BRANCH  12  22
HETATM   22  C8  UNL     1       9.743  -6.262  27.958  1.00  0.00     0.190 C 
BRANCH  22  23
HETATM   23  O2  UNL     1      10.344  -5.158  27.278  1.00  0.00    -0.399 OA
HETATM   24  H11 UNL     1      10.938  -4.707  27.901  1.00  0.00     0.209 HD
ENDBRANCH  22  23
ENDBRANCH  12  22
ENDBRANCH   1  12
BRANCH   3  25
HETATM   25  C11 UNL     1       4.892  -8.396  27.630  1.00  0.00    -0.021 A 
HETATM   26  C12 UNL     1       3.495  -8.333  27.585  1.00  0.00     0.012 A 
HETATM   27  C13 UNL     1       2.761  -9.365  26.995  1.00  0.00     0.004 A 
HETATM   28  C14 UNL     1       3.418 -10.466  26.447  1.00  0.00     0.036 A 
HETATM   29  C15 UNL     1       4.808 -10.524  26.494  1.00  0.00     0.066 A 
HETATM   30  C16 UNL     1       5.548  -9.503  27.081  1.00  0.00     0.049 A 
BRANCH  29  31
HETATM   31  O3  UNL     1       5.490 -11.579  25.963  1.00  0.00    -0.361 OA
HETATM   32  H16 UNL     1       4.849 -12.210  25.598  1.00  0.00     0.217 HD
ENDBRANCH  29  31
ENDBRANCH   3  25
BRANCH   5  33
HETATM   33  N2  UNL     1       2.734  -6.129  28.980  1.00  0.00    -0.288 NA
HETATM   34  H18 UNL     1       2.007  -5.429  29.067  1.00  0.00     0.125 HD
HETATM   35  H19 UNL     1       2.730  -6.682  28.131  1.00  0.00     0.125 HD
ENDBRANCH   5  33
TORSDOF 9
ENDMDL
MODEL 8
REMARK minimizedAffinity -8.56326866
REMARK  9 active torsions:
REMARK  status: ('A' for Active; 'I' for Inactive)
REMARK    1  A    between atoms: O1_2  and  C2_3 
REMARK    2  A    between atoms: C5_6  and  C6_7 
REMARK    3  A    between atoms: C6_7  and  C7_8 
REMARK    4  A    between atoms: C7_8  and  C8_9 
REMARK    5  A    between atoms: C7_8  and  N1_11 
REMARK    6  A    between atoms: C8_9  and  O2_10 
REMARK    7  A    between atoms: C10_13  and  C11_14 
REMARK    8  A    between atoms: C15_18  and  O3_19 
REMARK    9  A    between atoms: C18_22  and  N2_23 
ROOT
HETATM    1  N1  UNL     1       8.318  -6.968  28.284  1.00  0.00    -0.334 N 
HETATM    2  C9  UNL     1       8.337  -6.634  29.618  1.00  0.00     0.106 A 
HETATM    3  C10 UNL     1       9.200  -5.567  29.782  1.00  0.00     0.007 A 
HETATM    4  C17 UNL     1       9.705  -5.223  28.491  1.00  0.00     0.059 A 
HETATM    5  C18 UNL     1      10.576  -4.261  27.953  1.00  0.00     0.093 A 
HETATM    6  N3  UNL     1      10.802  -4.253  26.625  1.00  0.00    -0.343 N 
ATOM      7  H3  UNL     1      11.429  -3.566  26.205  1.00  0.00     0.167 HD
HETATM    8  C19 UNL     1      10.180  -5.172  25.865  1.00  0.00     0.183 A 
HETATM    9  N4  UNL     1       9.321  -6.125  26.255  1.00  0.00    -0.338 N 
ATOM     10  H4  UNL     1       8.869  -6.783  25.620  1.00  0.00     0.168 HD
HETATM   11  C20 UNL     1       9.128  -6.107  27.585  1.00  0.00     0.123 A 
ENDROOT
BRANCH   1  12
HETATM   12  C7  UNL     1       7.530  -8.068  27.715  1.00  0.00     0.118 C 
BRANCH  12  13
HETATM   13  C6  UNL     1       6.034  -7.897  28.043  1.00  0.00     0.066 C 
BRANCH  13  14
HETATM   14  C5  UNL     1       5.726  -6.626  28.802  1.00  0.00    -0.056 A 
HETATM   15  C4  UNL     1       5.607  -6.636  30.199  1.00  0.00     0.010 A 
HETATM   16  C3  UNL     1       5.306  -5.463  30.900  1.00  0.00     0.037 A 
HETATM   17  C2  UNL     1       5.127  -4.262  30.214  1.00  0.00     0.068 A 
HETATM   18  C22 UNL     1       5.261  -4.246  28.825  1.00  0.00     0.037 A 
HETATM   19  C21 UNL     1       5.557  -5.416  28.122  1.00  0.00     0.010 A 
BRANCH  17  20
HETATM   20  O1  UNL     1       4.833  -3.050  30.775  1.00  0.00    -0.356 OA
HETATM   21  C1  UNL     1       5.916  -2.321  31.334  1.00  0.00     0.210 C 
ENDBRANCH  17  20
ENDBRANCH  13  14
ENDBRANCH  12  13
BRANCH  12  22
HETATM   22  C8  UNL     1       7.797  -8.243  26.209  1.00  0.00     0.190 C 
BRANCH  22  23
HETATM   23  O2  UNL     1       6.824  -7.552  25.421  1.00  0.00    -0.399 OA
HETATM   24  H11 UNL     1       6.918  -6.600  25.593  1.00  0.00     0.209 HD
ENDBRANCH  22  23
ENDBRANCH  12  22
ENDBRANCH   1  12
BRANCH   3  25
HETATM   25  C11 UNL     1       9.486  -4.994  31.085  1.00  0.00    -0.021 A 
HETATM   26  C12 UNL     1      10.038  -5.791  32.094  1.00  0.00     0.012 A 
HETATM   27  C13 UNL     1      10.324  -5.243  33.347  1.00  0.00     0.004 A 
HETATM   28  C14 UNL     1      10.059  -3.897  33.600  1.00  0.00     0.036 A 
HETATM   29  C15 UNL     1       9.509  -3.110  32.593  1.00  0.00     0.066 A 
HETATM   30  C16 UNL     1       9.218  -3.645  31.342  1.00  0.00     0.049 A 
BRANCH  29  31
HETATM   31  O3  UNL     1       9.241  -1.787  32.795  1.00  0.00    -0.361 OA
HETATM   32  H16 UNL     1       9.487  -1.559  33.706  1.00  0.00     0.217 HD
ENDBRANCH  29  31
ENDBRANCH   3  25
BRANCH   5  33
HETATM   33  N2  UNL     1      11.216  -3.282  28.700  1.00  0.00    -0.288 NA
HETATM   34  H18 UNL     1      11.539  -2.531  28.101  1.00  0.00     0.125 HD
HETATM   35  H19 UNL     1      10.725  -3.008  29.542  1.00  0.00     0.125 HD
ENDBRANCH   5  33
TORSDOF 9
ENDMDL
MODEL 9
REMARK minimizedAffinity -8.54389286
REMARK  9 active torsions:
REMARK  status: ('A' for Active; 'I' for Inactive)
REMARK    1  A    between atoms: O1_2  and  C2_3 
REMARK    2  A    between atoms: C5_6  and  C6_7 
REMARK    3  A    between atoms: C6_7  and  C7_8 
REMARK    4  A    between atoms: C7_8  and  C8_9 
REMARK    5  A    between atoms: C7_8  and  N1_11 
REMARK    6  A    between atoms: C8_9  and  O2_10 
REMARK    7  A    between atoms: C10_13  and  C11_14 
REMARK    8  A    between atoms: C15_18  and  O3_19 
REMARK    9  A    between atoms: C18_22  and  N2_23 
ROOT
HETATM    1  N1  UNL     1       8.983  -6.445  28.824  1.00  0.00    -0.334 N 
HETATM    2  C9  UNL     1       8.821  -6.319  30.184  1.00  0.00     0.106 A 
HETATM    3  C10 UNL     1       9.592  -5.255  30.614  1.00  0.00     0.007 A 
HETATM    4  C17 UNL     1      10.227  -4.697  29.462  1.00  0.00     0.059 A 
HETATM    5  C18 UNL     1      11.097  -3.628  29.188  1.00  0.00     0.093 A 
HETATM    6  N3  UNL     1      11.481  -3.406  27.916  1.00  0.00    -0.343 N 
ATOM      7  H3  UNL     1      12.112  -2.639  27.686  1.00  0.00     0.167 HD
HETATM    8  C19 UNL     1      11.012  -4.224  26.956  1.00  0.00     0.183 A 
HETATM    9  N4  UNL     1      10.171  -5.259  27.088  1.00  0.00    -0.338 N 
ATOM     10  H4  UNL     1       9.840  -5.830  26.309  1.00  0.00     0.168 HD
HETATM   11  C20 UNL     1       9.818  -5.454  28.370  1.00  0.00     0.123 A 
ENDROOT
BRANCH   1  12
HETATM   12  C7  UNL     1       8.337  -7.476  28.004  1.00  0.00     0.118 C 
BRANCH  12  13
HETATM   13  C6  UNL     1       7.311  -8.273  28.833  1.00  0.00     0.066 C 
BRANCH  13  14
HETATM   14  C5  UNL     1       5.875  -7.936  28.496  1.00  0.00    -0.056 A 
HETATM   15  C4  UNL     1       5.321  -6.706  28.876  1.00  0.00     0.010 A 
HETATM   16  C3  UNL     1       3.987  -6.400  28.580  1.00  0.00     0.037 A 
HETATM   17  C2  UNL     1       3.193  -7.319  27.894  1.00  0.00     0.068 A 
HETATM   18  C22 UNL     1       3.747  -8.538  27.501  1.00  0.00     0.037 A 
HETATM   19  C21 UNL     1       5.077  -8.848  27.799  1.00  0.00     0.010 A 
BRANCH  17  20
HETATM   20  O1  UNL     1       1.883  -7.146  27.542  1.00  0.00    -0.356 OA
HETATM   21  C1  UNL     1       1.445  -7.797  26.357  1.00  0.00     0.210 C 
ENDBRANCH  17  20
ENDBRANCH  13  14
ENDBRANCH  12  13
BRANCH  12  22
HETATM   22  C8  UNL     1       7.737  -6.887  26.713  1.00  0.00     0.190 C 
BRANCH  22  23
HETATM   23  O2  UNL     1       8.478  -7.291  25.559  1.00  0.00    -0.399 OA
HETATM   24  H11 UNL     1       8.393  -8.255  25.469  1.00  0.00     0.209 HD
ENDBRANCH  22  23
ENDBRANCH  12  22
ENDBRANCH   1  12
BRANCH   3  25
HETATM   25  C11 UNL     1       9.682  -4.878  32.012  1.00  0.00    -0.021 A 
HETATM   26  C12 UNL     1       8.567  -5.011  32.847  1.00  0.00     0.012 A 
HETATM   27  C13 UNL     1       8.651  -4.660  34.196  1.00  0.00     0.004 A 
HETATM   28  C14 UNL     1       9.849  -4.171  34.719  1.00  0.00     0.036 A 
HETATM   29  C15 UNL     1      10.954  -4.041  33.884  1.00  0.00     0.066 A 
HETATM   30  C16 UNL     1      10.881  -4.385  32.539  1.00  0.00     0.049 A 
BRANCH  29  31
HETATM   31  O3  UNL     1      12.146  -3.574  34.357  1.00  0.00    -0.361 OA
HETATM   32  H16 UNL     1      12.045  -3.370  35.301  1.00  0.00     0.217 HD
ENDBRANCH  29  31
ENDBRANCH   3  25
BRANCH   5  33
HETATM   33  N2  UNL     1      11.582  -2.750  30.148  1.00  0.00    -0.288 NA
HETATM   34  H18 UNL     1      11.929  -1.903  29.712  1.00  0.00     0.125 HD
HETATM   35  H19 UNL     1      10.977  -2.629  30.951  1.00  0.00     0.125 HD
ENDBRANCH   5  33
TORSDOF 9
ENDMDL
