MODEL 1
REMARK minimizedAffinity -7.71810055
REMARK  3 active torsions:
REMARK  status: ('A' for Active; 'I' for Inactive)
REMARK    1  A    between atoms: O1_1  and  C1_2 
REMARK    2  A    between atoms: C4_5  and  N1_6 
REMARK    3  A    between atoms: N1_6  and  C5_7 
ROOT
HETATM    1  C5  UNL     1      12.489  35.572  17.325  1.00  0.00     0.135 A 
HETATM    2  N2  UNL     1      11.876  36.049  16.207  1.00  0.00    -0.270 N 
ATOM      3  H2  UNL     1      10.858  36.098  16.197  1.00  0.00     0.190 HD
HETATM    4  N3  UNL     1      12.538  36.452  15.130  1.00  0.00    -0.240 N 
ATOM      5  H3  UNL     1      12.007  36.800  14.332  1.00  0.00     0.208 HD
HETATM    6  N4  UNL     1      13.794  36.423  15.050  1.00  0.00    -0.279 N 
ATOM      7  H4  UNL     1      14.277  36.735  14.207  1.00  0.00     0.189 HD
HETATM    8  C6  UNL     1      14.471  35.967  16.110  1.00  0.00     0.105 A 
HETATM    9  S1  UNL     1      16.186  35.882  16.105  1.00  0.00    -0.074 SA
HETATM   10  C7  UNL     1      16.172  35.268  17.658  1.00  0.00    -0.008 A 
HETATM   11  C8  UNL     1      14.919  35.121  18.194  1.00  0.00    -0.028 A 
HETATM   12  C9  UNL     1      13.893  35.523  17.292  1.00  0.00     0.052 A 
HETATM   13  C10 UNL     1      15.001  34.573  19.572  1.00  0.00     0.041 C 
HETATM   14  C11 UNL     1      16.515  34.735  19.913  1.00  0.00     0.010 C 
HETATM   15  C12 UNL     1      17.274  34.852  18.557  1.00  0.00     0.047 C 
ENDROOT
BRANCH   1  16
HETATM   16  N1  UNL     1      11.769  35.140  18.452  1.00  0.00    -0.341 N 
HETATM   17  H4  UNL     1      12.333  34.626  19.112  1.00  0.00     0.167 HD
BRANCH  16  18
HETATM   18  C4  UNL     1      10.422  35.269  18.830  1.00  0.00     0.033 A 
HETATM   19  C3  UNL     1       9.478  36.028  18.129  1.00  0.00     0.032 A 
HETATM   20  C2  UNL     1       8.147  36.113  18.558  1.00  0.00     0.039 A 
HETATM   21  C1  UNL     1       7.749  35.432  19.701  1.00  0.00     0.065 A 
HETATM   22  C14 UNL     1       8.660  34.672  20.418  1.00  0.00     0.039 A 
HETATM   23  C13 UNL     1       9.986  34.592  19.984  1.00  0.00     0.032 A 
BRANCH  21  24
HETATM   24  O1  UNL     1       6.466  35.487  20.155  1.00  0.00    -0.361 OA
HETATM   25  H1  UNL     1       5.951  36.050  19.553  1.00  0.00     0.217 HD
ENDBRANCH  21  24
ENDBRANCH  16  18
ENDBRANCH   1  16
TORSDOF 3
ENDMDL
MODEL 2
REMARK minimizedAffinity -7.55211258
REMARK  3 active torsions:
REMARK  status: ('A' for Active; 'I' for Inactive)
REMARK    1  A    between atoms: O1_1  and  C1_2 
REMARK    2  A    between atoms: C4_5  and  N1_6 
REMARK    3  A    between atoms: N1_6  and  C5_7 
ROOT
HETATM    1  C5  UNL     1      11.008  34.742  18.709  1.00  0.00     0.135 A 
HETATM    2  N2  UNL     1      11.072  35.120  17.404  1.00  0.00    -0.270 N 
ATOM      3  H2  UNL     1      11.912  34.891  16.873  1.00  0.00     0.190 HD
HETATM    4  N3  UNL     1      10.095  35.773  16.786  1.00  0.00    -0.240 N 
ATOM      5  H3  UNL     1      10.217  36.019  15.804  1.00  0.00     0.208 HD
HETATM    6  N4  UNL     1       9.024  36.102  17.360  1.00  0.00    -0.279 N 
ATOM      7  H4  UNL     1       8.291  36.608  16.863  1.00  0.00     0.189 HD
HETATM    8  C6  UNL     1       8.884  35.765  18.648  1.00  0.00     0.105 A 
HETATM    9  S1  UNL     1       7.465  36.167  19.526  1.00  0.00    -0.074 SA
HETATM   10  C7  UNL     1       8.089  35.437  20.893  1.00  0.00    -0.008 A 
HETATM   11  C8  UNL     1       9.335  34.892  20.720  1.00  0.00    -0.028 A 
HETATM   12  C9  UNL     1       9.830  35.079  19.398  1.00  0.00     0.052 A 
HETATM   13  C10 UNL     1       9.810  34.264  21.979  1.00  0.00     0.041 C 
HETATM   14  C11 UNL     1       8.512  34.213  22.844  1.00  0.00     0.010 C 
HETATM   15  C12 UNL     1       7.535  35.276  22.257  1.00  0.00     0.047 C 
ENDROOT
BRANCH   1  16
HETATM   16  N1  UNL     1      12.058  34.060  19.348  1.00  0.00    -0.341 N 
HETATM   17  H4  UNL     1      11.741  33.316  19.951  1.00  0.00     0.167 HD
BRANCH  16  18
HETATM   18  C4  UNL     1      13.454  34.222  19.324  1.00  0.00     0.033 A 
HETATM   19  C3  UNL     1      14.233  34.496  20.453  1.00  0.00     0.032 A 
HETATM   20  C2  UNL     1      15.624  34.643  20.362  1.00  0.00     0.039 A 
HETATM   21  C1  UNL     1      16.247  34.515  19.128  1.00  0.00     0.065 A 
HETATM   22  C14 UNL     1      15.504  34.244  17.990  1.00  0.00     0.039 A 
HETATM   23  C13 UNL     1      14.118  34.098  18.089  1.00  0.00     0.032 A 
BRANCH  21  24
HETATM   24  O1  UNL     1      17.596  34.650  18.993  1.00  0.00    -0.361 OA
HETATM   25  H1  UNL     1      17.976  34.833  19.868  1.00  0.00     0.217 HD
ENDBRANCH  21  24
ENDBRANCH  16  18
ENDBRANCH   1  16
TORSDOF 3
ENDMDL
MODEL 3
REMARK minimizedAffinity -7.25202179
REMARK  3 active torsions:
REMARK  status: ('A' for Active; 'I' for Inactive)
REMARK    1  A    between atoms: O1_1  and  C1_2 
REMARK    2  A    between atoms: C4_5  and  N1_6 
REMARK    3  A    between atoms: N1_6  and  C5_7 
ROOT
HETATM    1  C5  UNL     1      11.542  35.010  18.307  1.00  0.00     0.135 A 
HETATM    2  N2  UNL     1      11.026  35.418  17.116  1.00  0.00    -0.270 N 
ATOM      3  H2  UNL     1      10.034  35.260  16.937  1.00  0.00     0.190 HD
HETATM    4  N3  UNL     1      11.749  36.012  16.174  1.00  0.00    -0.240 N 
ATOM      5  H3  UNL     1      11.289  36.291  15.308  1.00  0.00     0.208 HD
HETATM    6  N4  UNL     1      12.979  36.244  16.303  1.00  0.00    -0.279 N 
ATOM      7  H4  UNL     1      13.512  36.698  15.561  1.00  0.00     0.189 HD
HETATM    8  C6  UNL     1      13.562  35.873  17.449  1.00  0.00     0.105 A 
HETATM    9  S1  UNL     1      15.235  36.140  17.727  1.00  0.00    -0.074 SA
HETATM   10  C7  UNL     1      15.107  35.444  19.240  1.00  0.00    -0.008 A 
HETATM   11  C8  UNL     1      13.845  35.013  19.556  1.00  0.00    -0.028 A 
HETATM   12  C9  UNL     1      12.912  35.251  18.507  1.00  0.00     0.052 A 
HETATM   13  C10 UNL     1      13.823  34.412  20.914  1.00  0.00     0.041 C 
HETATM   14  C11 UNL     1      15.196  34.859  21.506  1.00  0.00     0.010 C 
HETATM   15  C12 UNL     1      16.116  35.209  20.298  1.00  0.00     0.047 C 
ENDROOT
BRANCH   1  16
HETATM   16  N1  UNL     1      10.761  34.374  19.287  1.00  0.00    -0.341 N 
HETATM   17  H4  UNL     1      11.001  33.403  19.419  1.00  0.00     0.167 HD
BRANCH  16  18
HETATM   18  C4  UNL     1       9.708  34.819  20.104  1.00  0.00     0.033 A 
HETATM   19  C3  UNL     1       9.621  34.573  21.478  1.00  0.00     0.032 A 
HETATM   20  C2  UNL     1       8.543  35.048  22.238  1.00  0.00     0.039 A 
HETATM   21  C1  UNL     1       7.538  35.778  21.619  1.00  0.00     0.065 A 
HETATM   22  C14 UNL     1       7.594  36.039  20.259  1.00  0.00     0.039 A 
HETATM   23  C13 UNL     1       8.672  35.562  19.509  1.00  0.00     0.032 A 
BRANCH  21  24
HETATM   24  O1  UNL     1       6.472  36.259  22.318  1.00  0.00    -0.361 OA
HETATM   25  H1  UNL     1       6.573  36.001  23.250  1.00  0.00     0.217 HD
ENDBRANCH  21  24
ENDBRANCH  16  18
ENDBRANCH   1  16
TORSDOF 3
ENDMDL
MODEL 4
REMARK minimizedAffinity -7.13968563
REMARK  3 active torsions:
REMARK  status: ('A' for Active; 'I' for Inactive)
REMARK    1  A    between atoms: O1_1  and  C1_2 
REMARK    2  A    between atoms: C4_5  and  N1_6 
REMARK    3  A    between atoms: N1_6  and  C5_7 
ROOT
HETATM    1  C5  UNL     1       7.921  30.133  -4.593  1.00  0.00     0.135 A 
HETATM    2  N2  UNL     1       8.457  31.314  -4.179  1.00  0.00    -0.270 N 
ATOM      3  H2  UNL     1       8.979  31.328  -3.303  1.00  0.00     0.190 HD
HETATM    4  N3  UNL     1       8.333  32.447  -4.859  1.00  0.00    -0.240 N 
ATOM      5  H3  UNL     1       8.768  33.290  -4.484  1.00  0.00     0.208 HD
HETATM    6  N4  UNL     1       7.704  32.527  -5.945  1.00  0.00    -0.279 N 
ATOM      7  H4  UNL     1       7.621  33.412  -6.445  1.00  0.00     0.189 HD
HETATM    8  C6  UNL     1       7.146  31.407  -6.420  1.00  0.00     0.105 A 
HETATM    9  S1  UNL     1       6.263  31.405  -7.892  1.00  0.00    -0.074 SA
HETATM   10  C7  UNL     1       5.967  29.769  -7.727  1.00  0.00    -0.008 A 
HETATM   11  C8  UNL     1       6.511  29.211  -6.600  1.00  0.00    -0.028 A 
HETATM   12  C9  UNL     1       7.211  30.163  -5.806  1.00  0.00     0.052 A 
HETATM   13  C10 UNL     1       6.203  27.759  -6.534  1.00  0.00     0.041 C 
HETATM   14  C11 UNL     1       5.680  27.458  -7.974  1.00  0.00     0.010 C 
HETATM   15  C12 UNL     1       5.221  28.817  -8.582  1.00  0.00     0.047 C 
ENDROOT
BRANCH   1  16
HETATM   16  N1  UNL     1       8.054  28.946  -3.853  1.00  0.00    -0.341 N 
HETATM   17  H4  UNL     1       7.335  28.267  -4.057  1.00  0.00     0.167 HD
BRANCH  16  18
HETATM   18  C4  UNL     1       8.977  28.526  -2.881  1.00  0.00     0.033 A 
HETATM   19  C3  UNL     1      10.101  27.738  -3.152  1.00  0.00     0.032 A 
HETATM   20  C2  UNL     1      10.986  27.356  -2.135  1.00  0.00     0.039 A 
HETATM   21  C1  UNL     1      10.750  27.765  -0.830  1.00  0.00     0.065 A 
HETATM   22  C14 UNL     1       9.645  28.546  -0.528  1.00  0.00     0.039 A 
HETATM   23  C13 UNL     1       8.767  28.924  -1.548  1.00  0.00     0.032 A 
BRANCH  21  24
HETATM   24  O1  UNL     1      11.583  27.417   0.189  1.00  0.00    -0.361 OA
HETATM   25  H1  UNL     1      12.305  26.877  -0.175  1.00  0.00     0.217 HD
ENDBRANCH  21  24
ENDBRANCH  16  18
ENDBRANCH   1  16
TORSDOF 3
ENDMDL
MODEL 5
REMARK minimizedAffinity -6.86799192
REMARK  3 active torsions:
REMARK  status: ('A' for Active; 'I' for Inactive)
REMARK    1  A    between atoms: O1_1  and  C1_2 
REMARK    2  A    between atoms: C4_5  and  N1_6 
REMARK    3  A    between atoms: N1_6  and  C5_7 
ROOT
HETATM    1  C5  UNL     1      11.708  35.746  18.340  1.00  0.00     0.135 A 
HETATM    2  N2  UNL     1      12.011  35.162  17.149  1.00  0.00    -0.270 N 
ATOM      3  H2  UNL     1      11.314  35.189  16.405  1.00  0.00     0.190 HD
HETATM    4  N3  UNL     1      13.168  34.556  16.908  1.00  0.00    -0.240 N 
ATOM      5  H3  UNL     1      13.320  34.144  15.988  1.00  0.00     0.208 HD
HETATM    6  N4  UNL     1      14.084  34.469  17.767  1.00  0.00    -0.279 N 
ATOM      7  H4  UNL     1      14.962  33.994  17.556  1.00  0.00     0.189 HD
HETATM    8  C6  UNL     1      13.863  35.021  18.966  1.00  0.00     0.105 A 
HETATM    9  S1  UNL     1      15.045  34.955  20.209  1.00  0.00    -0.074 SA
HETATM   10  C7  UNL     1      14.032  35.802  21.233  1.00  0.00    -0.008 A 
HETATM   11  C8  UNL     1      12.826  36.141  20.677  1.00  0.00    -0.028 A 
HETATM   12  C9  UNL     1      12.700  35.683  19.335  1.00  0.00     0.052 A 
HETATM   13  C10 UNL     1      11.993  36.890  21.652  1.00  0.00     0.041 C 
HETATM   14  C11 UNL     1      13.021  37.250  22.770  1.00  0.00     0.010 C 
HETATM   15  C12 UNL     1      14.206  36.249  22.634  1.00  0.00     0.047 C 
ENDROOT
BRANCH   1  16
HETATM   16  N1  UNL     1      10.473  36.373  18.579  1.00  0.00    -0.341 N 
HETATM   17  H4  UNL     1      10.476  37.357  18.354  1.00  0.00     0.167 HD
BRANCH  16  18
HETATM   18  C4  UNL     1       9.247  35.905  19.080  1.00  0.00     0.033 A 
HETATM   19  C3  UNL     1       9.126  34.909  20.056  1.00  0.00     0.032 A 
HETATM   20  C2  UNL     1       7.871  34.488  20.516  1.00  0.00     0.039 A 
HETATM   21  C1  UNL     1       6.721  35.068  19.999  1.00  0.00     0.065 A 
HETATM   22  C14 UNL     1       6.807  36.057  19.032  1.00  0.00     0.039 A 
HETATM   23  C13 UNL     1       8.062  36.471  18.578  1.00  0.00     0.032 A 
BRANCH  21  24
HETATM   24  O1  UNL     1       5.481  34.689  20.417  1.00  0.00    -0.361 OA
HETATM   25  H1  UNL     1       5.582  33.997  21.092  1.00  0.00     0.217 HD
ENDBRANCH  21  24
ENDBRANCH  16  18
ENDBRANCH   1  16
TORSDOF 3
ENDMDL
MODEL 6
REMARK minimizedAffinity -6.84816074
REMARK  3 active torsions:
REMARK  status: ('A' for Active; 'I' for Inactive)
REMARK    1  A    between atoms: O1_1  and  C1_2 
REMARK    2  A    between atoms: C4_5  and  N1_6 
REMARK    3  A    between atoms: N1_6  and  C5_7 
ROOT
HETATM    1  C5  UNL     1       7.696  29.678  -4.714  1.00  0.00     0.135 A 
HETATM    2  N2  UNL     1       7.078  28.643  -5.346  1.00  0.00    -0.270 N 
ATOM      3  H2  UNL     1       6.820  27.824  -4.796  1.00  0.00     0.190 HD
HETATM    4  N3  UNL     1       6.793  28.647  -6.643  1.00  0.00    -0.240 N 
ATOM      5  H3  UNL     1       6.325  27.834  -7.042  1.00  0.00     0.208 HD
HETATM    6  N4  UNL     1       7.076  29.611  -7.401  1.00  0.00    -0.279 N 
ATOM      7  H4  UNL     1       6.850  29.586  -8.395  1.00  0.00     0.189 HD
HETATM    8  C6  UNL     1       7.686  30.669  -6.854  1.00  0.00     0.105 A 
HETATM    9  S1  UNL     1       8.119  32.036  -7.799  1.00  0.00    -0.074 SA
HETATM   10  C7  UNL     1       8.754  32.784  -6.447  1.00  0.00    -0.008 A 
HETATM   11  C8  UNL     1       8.654  32.046  -5.297  1.00  0.00    -0.028 A 
HETATM   12  C9  UNL     1       8.030  30.785  -5.514  1.00  0.00     0.052 A 
HETATM   13  C10 UNL     1       9.239  32.785  -4.149  1.00  0.00     0.041 C 
HETATM   14  C11 UNL     1       9.398  34.229  -4.720  1.00  0.00     0.010 C 
HETATM   15  C12 UNL     1       9.407  34.102  -6.273  1.00  0.00     0.047 C 
ENDROOT
BRANCH   1  16
HETATM   16  N1  UNL     1       7.998  29.650  -3.342  1.00  0.00    -0.341 N 
HETATM   17  H4  UNL     1       7.398  30.246  -2.790  1.00  0.00     0.167 HD
BRANCH  16  18
HETATM   18  C4  UNL     1       8.975  28.971  -2.594  1.00  0.00     0.033 A 
HETATM   19  C3  UNL     1       9.912  28.090  -3.143  1.00  0.00     0.032 A 
HETATM   20  C2  UNL     1      10.865  27.446  -2.341  1.00  0.00     0.039 A 
HETATM   21  C1  UNL     1      10.883  27.684  -0.973  1.00  0.00     0.065 A 
HETATM   22  C14 UNL     1       9.968  28.552  -0.399  1.00  0.00     0.039 A 
HETATM   23  C13 UNL     1       9.022  29.191  -1.205  1.00  0.00     0.032 A 
BRANCH  21  24
HETATM   24  O1  UNL     1      11.791  27.080  -0.156  1.00  0.00    -0.361 OA
HETATM   25  H1  UNL     1      12.361  26.510  -0.698  1.00  0.00     0.217 HD
ENDBRANCH  21  24
ENDBRANCH  16  18
ENDBRANCH   1  16
TORSDOF 3
ENDMDL
MODEL 7
REMARK minimizedAffinity -6.80508327
REMARK  3 active torsions:
REMARK  status: ('A' for Active; 'I' for Inactive)
REMARK    1  A    between atoms: O1_1  and  C1_2 
REMARK    2  A    between atoms: C4_5  and  N1_6 
REMARK    3  A    between atoms: N1_6  and  C5_7 
ROOT
HETATM    1  C5  UNL     1      10.562  50.438  -2.054  1.00  0.00     0.135 A 
HETATM    2  N2  UNL     1      11.376  51.510  -1.855  1.00  0.00    -0.270 N 
ATOM      3  H2  UNL     1      11.727  51.685  -0.914  1.00  0.00     0.190 HD
HETATM    4  N3  UNL     1      11.737  52.341  -2.826  1.00  0.00    -0.240 N 
ATOM      5  H3  UNL     1      12.353  53.120  -2.598  1.00  0.00     0.208 HD
HETATM    6  N4  UNL     1      11.350  52.208  -4.017  1.00  0.00    -0.279 N 
ATOM      7  H4  UNL     1      11.639  52.864  -4.743  1.00  0.00     0.189 HD
HETATM    8  C6  UNL     1      10.546  51.175  -4.294  1.00  0.00     0.105 A 
HETATM    9  S1  UNL     1       9.958  50.904  -5.884  1.00  0.00    -0.074 SA
HETATM   10  C7  UNL     1       9.128  49.552  -5.360  1.00  0.00    -0.008 A 
HETATM   11  C8  UNL     1       9.274  49.286  -4.023  1.00  0.00    -0.028 A 
HETATM   12  C9  UNL     1      10.105  50.239  -3.368  1.00  0.00     0.052 A 
HETATM   13  C10 UNL     1       8.507  48.072  -3.645  1.00  0.00     0.041 C 
HETATM   14  C11 UNL     1       8.154  47.448  -5.032  1.00  0.00     0.010 C 
HETATM   15  C12 UNL     1       8.263  48.592  -6.083  1.00  0.00     0.047 C 
ENDROOT
BRANCH   1  16
HETATM   16  N1  UNL     1      10.184  49.577  -1.010  1.00  0.00    -0.341 N 
HETATM   17  H4  UNL     1       9.725  50.053  -0.247  1.00  0.00     0.167 HD
BRANCH  16  18
HETATM   18  C4  UNL     1      10.332  48.194  -0.814  1.00  0.00     0.033 A 
HETATM   19  C3  UNL     1       9.406  47.391  -0.140  1.00  0.00     0.032 A 
HETATM   20  C2  UNL     1       9.612  46.014   0.019  1.00  0.00     0.039 A 
HETATM   21  C1  UNL     1      10.758  45.428  -0.502  1.00  0.00     0.065 A 
HETATM   22  C14 UNL     1      11.695  46.195  -1.176  1.00  0.00     0.039 A 
HETATM   23  C13 UNL     1      11.482  47.568  -1.330  1.00  0.00     0.032 A 
BRANCH  21  24
HETATM   24  O1  UNL     1      10.999  44.094  -0.371  1.00  0.00    -0.361 OA
HETATM   25  H1  UNL     1      10.260  43.694   0.116  1.00  0.00     0.217 HD
ENDBRANCH  21  24
ENDBRANCH  16  18
ENDBRANCH   1  16
TORSDOF 3
ENDMDL
MODEL 8
REMARK minimizedAffinity -6.78985643
REMARK  3 active torsions:
REMARK  status: ('A' for Active; 'I' for Inactive)
REMARK    1  A    between atoms: O1_1  and  C1_2 
REMARK    2  A    between atoms: C4_5  and  N1_6 
REMARK    3  A    between atoms: N1_6  and  C5_7 
ROOT
HETATM    1  C5  UNL     1      14.699  35.851  15.878  1.00  0.00     0.135 A 
HETATM    2  N2  UNL     1      13.864  36.324  14.913  1.00  0.00    -0.270 N 
ATOM      3  H2  UNL     1      14.260  36.561  14.003  1.00  0.00     0.190 HD
HETATM    4  N3  UNL     1      12.560  36.492  15.096  1.00  0.00    -0.240 N 
ATOM      5  H3  UNL     1      12.001  36.849  14.321  1.00  0.00     0.208 HD
HETATM    6  N4  UNL     1      11.984  36.232  16.184  1.00  0.00    -0.279 N 
ATOM      7  H4  UNL     1      10.981  36.374  16.298  1.00  0.00     0.189 HD
HETATM    8  C6  UNL     1      12.737  35.760  17.185  1.00  0.00     0.105 A 
HETATM    9  S1  UNL     1      12.053  35.375  18.711  1.00  0.00    -0.074 SA
HETATM   10  C7  UNL     1      13.553  34.910  19.280  1.00  0.00    -0.008 A 
HETATM   11  C8  UNL     1      14.564  35.029  18.363  1.00  0.00    -0.028 A 
HETATM   12  C9  UNL     1      14.106  35.537  17.114  1.00  0.00     0.052 A 
HETATM   13  C10 UNL     1      15.857  34.594  18.950  1.00  0.00     0.041 C 
HETATM   14  C11 UNL     1      15.408  33.868  20.257  1.00  0.00     0.010 C 
HETATM   15  C12 UNL     1      13.983  34.394  20.600  1.00  0.00     0.047 C 
ENDROOT
BRANCH   1  16
HETATM   16  N1  UNL     1      16.078  35.690  15.668  1.00  0.00    -0.341 N 
HETATM   17  H4  UNL     1      16.644  36.161  16.359  1.00  0.00     0.167 HD
BRANCH  16  18
HETATM   18  C4  UNL     1      16.821  35.019  14.682  1.00  0.00     0.033 A 
HETATM   19  C3  UNL     1      18.036  34.369  14.919  1.00  0.00     0.032 A 
HETATM   20  C2  UNL     1      18.726  33.714  13.890  1.00  0.00     0.039 A 
HETATM   21  C1  UNL     1      18.198  33.707  12.606  1.00  0.00     0.065 A 
HETATM   22  C14 UNL     1      16.996  34.342  12.338  1.00  0.00     0.039 A 
HETATM   23  C13 UNL     1      16.313  34.993  13.369  1.00  0.00     0.032 A 
BRANCH  21  24
HETATM   24  O1  UNL     1      18.835  33.084  11.576  1.00  0.00    -0.361 OA
HETATM   25  H1  UNL     1      19.654  32.686  11.916  1.00  0.00     0.217 HD
ENDBRANCH  21  24
ENDBRANCH  16  18
ENDBRANCH   1  16
TORSDOF 3
ENDMDL
MODEL 9
REMARK minimizedAffinity -6.63360882
REMARK  3 active torsions:
REMARK  status: ('A' for Active; 'I' for Inactive)
REMARK    1  A    between atoms: O1_1  and  C1_2 
REMARK    2  A    between atoms: C4_5  and  N1_6 
REMARK    3  A    between atoms: N1_6  and  C5_7 
ROOT
HETATM    1  C5  UNL     1      17.171  51.526   5.613  1.00  0.00     0.135 A 
HETATM    2  N2  UNL     1      16.558  50.829   4.618  1.00  0.00    -0.270 N 
ATOM      3  H2  UNL     1      15.908  51.326   4.008  1.00  0.00     0.190 HD
HETATM    4  N3  UNL     1      16.762  49.536   4.402  1.00  0.00    -0.240 N 
ATOM      5  H3  UNL     1      16.267  49.085   3.633  1.00  0.00     0.208 HD
HETATM    6  N4  UNL     1      17.541  48.841   5.105  1.00  0.00    -0.279 N 
ATOM      7  H4  UNL     1      17.677  47.847   4.919  1.00  0.00     0.189 HD
HETATM    8  C6  UNL     1      18.185  49.455   6.105  1.00  0.00     0.105 A 
HETATM    9  S1  UNL     1      19.268  48.600   7.126  1.00  0.00    -0.074 SA
HETATM   10  C7  UNL     1      19.576  49.996   7.989  1.00  0.00    -0.008 A 
HETATM   11  C8  UNL     1      18.895  51.097   7.539  1.00  0.00    -0.028 A 
HETATM   12  C9  UNL     1      18.058  50.799   6.426  1.00  0.00     0.052 A 
HETATM   13  C10 UNL     1      19.228  52.290   8.359  1.00  0.00     0.041 C 
HETATM   14  C11 UNL     1      20.481  51.812   9.158  1.00  0.00     0.010 C 
HETATM   15  C12 UNL     1      20.453  50.255   9.154  1.00  0.00     0.047 C 
ENDROOT
BRANCH   1  16
HETATM   16  N1  UNL     1      16.933  52.894   5.832  1.00  0.00    -0.341 N 
HETATM   17  H4  UNL     1      17.407  53.255   6.646  1.00  0.00     0.167 HD
BRANCH  16  18
HETATM   18  C4  UNL     1      16.155  53.847   5.153  1.00  0.00     0.033 A 
HETATM   19  C3  UNL     1      16.681  54.840   4.319  1.00  0.00     0.032 A 
HETATM   20  C2  UNL     1      15.849  55.760   3.666  1.00  0.00     0.039 A 
HETATM   21  C1  UNL     1      14.475  55.690   3.847  1.00  0.00     0.065 A 
HETATM   22  C14 UNL     1      13.922  54.719   4.667  1.00  0.00     0.039 A 
HETATM   23  C13 UNL     1      14.758  53.804   5.314  1.00  0.00     0.032 A 
BRANCH  21  24
HETATM   24  O1  UNL     1      13.629  56.564   3.233  1.00  0.00    -0.361 OA
HETATM   25  H1  UNL     1      14.158  57.177   2.695  1.00  0.00     0.217 HD
ENDBRANCH  21  24
ENDBRANCH  16  18
ENDBRANCH   1  16
TORSDOF 3
ENDMDL
