MODEL 1
REMARK minimizedAffinity -10.5808516
REMARK  3 active torsions:
REMARK  status: ('A' for Active; 'I' for Inactive)
REMARK    1  A    between atoms: C3_5  and  C4_6 
REMARK    2  A    between atoms: C13_19  and  N3_20 
REMARK    3  A    between atoms: N3_20  and  C14_21 
ROOT
HETATM    1  C1  UNL     1       8.278  -7.228  29.420  1.00  0.00     0.161 C 
HETATM    2  N1  UNL     1       8.063  -6.042  30.230  1.00  0.00    -0.303 N 
HETATM    3  C2  UNL     1       9.073  -5.576  31.055  1.00  0.00     0.260 A 
HETATM    4  O1  UNL     1      10.175  -6.113  31.155  1.00  0.00    -0.267 OA
HETATM    5  C3  UNL     1       8.781  -4.344  31.865  1.00  0.00     0.047 A 
HETATM    6  C10 UNL     1       7.588  -3.733  31.780  1.00  0.00     0.034 A 
HETATM    7  C11 UNL     1       6.571  -4.273  30.894  1.00  0.00     0.026 A 
HETATM    8  C12 UNL     1       5.324  -3.714  30.746  1.00  0.00     0.121 A 
HETATM    9  N2  UNL     1       4.376  -4.208  29.926  1.00  0.00    -0.201 N 
ATOM     10  H2  UNL     1       3.463  -3.763  29.843  1.00  0.00     0.183 HD
HETATM   11  C13 UNL     1       4.683  -5.311  29.224  1.00  0.00     0.684 A 
HETATM   12  N4  UNL     1       5.870  -5.923  29.305  1.00  0.00    -0.175 N 
ATOM     13  H4  UNL     1       6.068  -6.759  28.755  1.00  0.00     0.186 HD
HETATM   14  C20 UNL     1       6.800  -5.403  30.134  1.00  0.00     0.137 A 
ENDROOT
BRANCH  11  15
HETATM   15  N3  UNL     1       3.664  -5.773  28.396  1.00  0.00    -0.192 N 
HETATM   16  H9  UNL     1       3.159  -4.979  28.030  1.00  0.00     0.184 HD
BRANCH  15  17
HETATM   17  C14 UNL     1       3.229  -7.041  27.997  1.00  0.00     0.050 A 
HETATM   18  C15 UNL     1       4.090  -8.078  27.615  1.00  0.00     0.030 A 
HETATM   19  C16 UNL     1       3.597  -9.328  27.224  1.00  0.00     0.004 A 
HETATM   20  C17 UNL     1       2.226  -9.566  27.207  1.00  0.00     0.019 A 
HETATM   21  C18 UNL     1       1.356  -8.548  27.584  1.00  0.00     0.013 A 
HETATM   22 BR1  UNL     1      -0.510  -8.856  27.566  1.00  0.00    -0.051 Br
HETATM   23  C19 UNL     1       1.849  -7.300  27.974  1.00  0.00     0.049 A 
ENDBRANCH  15  17
ENDBRANCH  11  15
BRANCH   5  24
HETATM   24  C4  UNL     1       9.819  -3.801  32.762  1.00  0.00     0.023 A 
HETATM   25  C5  UNL     1      10.811  -2.928  32.277  1.00  0.00     0.046 A 
HETATM   26 CL1  UNL     1      10.848  -2.417  30.623  1.00  0.00    -0.083 Cl
HETATM   27  C6  UNL     1      11.803  -2.428  33.126  1.00  0.00     0.025 A 
HETATM   28  C7  UNL     1      11.826  -2.791  34.471  1.00  0.00     0.003 A 
HETATM   29  C8  UNL     1      10.852  -3.654  34.970  1.00  0.00     0.025 A 
HETATM   30  C9  UNL     1       9.857  -4.157  34.123  1.00  0.00     0.046 A 
HETATM   31 CL2  UNL     1       8.678  -5.215  34.825  1.00  0.00    -0.083 Cl
ENDBRANCH   5  24
TORSDOF 3
ENDMDL
MODEL 2
REMARK minimizedAffinity -10.5374098
REMARK  3 active torsions:
REMARK  status: ('A' for Active; 'I' for Inactive)
REMARK    1  A    between atoms: C3_5  and  C4_6 
REMARK    2  A    between atoms: C13_19  and  N3_20 
REMARK    3  A    between atoms: N3_20  and  C14_21 
ROOT
HETATM    1  C1  UNL     1       8.227  -7.256  29.331  1.00  0.00     0.161 C 
HETATM    2  N1  UNL     1       8.021  -6.079  30.157  1.00  0.00    -0.303 N 
HETATM    3  C2  UNL     1       9.042  -5.620  30.973  1.00  0.00     0.260 A 
HETATM    4  O1  UNL     1      10.147  -6.156  31.051  1.00  0.00    -0.267 OA
HETATM    5  C3  UNL     1       8.760  -4.398  31.800  1.00  0.00     0.047 A 
HETATM    6  C10 UNL     1       7.564  -3.789  31.739  1.00  0.00     0.034 A 
HETATM    7  C11 UNL     1       6.535  -4.322  30.863  1.00  0.00     0.026 A 
HETATM    8  C12 UNL     1       5.285  -3.764  30.739  1.00  0.00     0.121 A 
HETATM    9  N2  UNL     1       4.327  -4.251  29.928  1.00  0.00    -0.201 N 
ATOM     10  H2  UNL     1       3.411  -3.807  29.863  1.00  0.00     0.183 HD
HETATM   11  C13 UNL     1       4.625  -5.345  29.209  1.00  0.00     0.684 A 
HETATM   12  N4  UNL     1       5.815  -5.955  29.266  1.00  0.00    -0.175 N 
ATOM     13  H4  UNL     1       6.007  -6.784  28.704  1.00  0.00     0.186 HD
HETATM   14  C20 UNL     1       6.756  -5.443  30.087  1.00  0.00     0.137 A 
ENDROOT
BRANCH  11  15
HETATM   15  N3  UNL     1       3.596  -5.801  28.391  1.00  0.00    -0.192 N 
HETATM   16  H9  UNL     1       3.090  -5.003  28.033  1.00  0.00     0.184 HD
BRANCH  15  17
HETATM   17  C14 UNL     1       3.150  -7.066  27.994  1.00  0.00     0.050 A 
HETATM   18  C15 UNL     1       4.003  -8.117  27.635  1.00  0.00     0.030 A 
HETATM   19  C16 UNL     1       3.500  -9.363  27.245  1.00  0.00     0.004 A 
HETATM   20  C17 UNL     1       2.126  -9.583  27.206  1.00  0.00     0.019 A 
HETATM   21  C18 UNL     1       1.264  -8.550  27.559  1.00  0.00     0.013 A 
HETATM   22 BR1  UNL     1      -0.605  -8.833  27.512  1.00  0.00    -0.051 Br
HETATM   23  C19 UNL     1       1.767  -7.306  27.949  1.00  0.00     0.049 A 
ENDBRANCH  15  17
ENDBRANCH  11  15
BRANCH   5  24
HETATM   24  C4  UNL     1       9.810  -3.863  32.688  1.00  0.00     0.023 A 
HETATM   25  C5  UNL     1       9.841  -4.197  34.054  1.00  0.00     0.046 A 
HETATM   26 CL1  UNL     1       8.682  -5.274  34.759  1.00  0.00    -0.083 Cl
HETATM   27  C6  UNL     1      10.829  -3.676  34.898  1.00  0.00     0.025 A 
HETATM   28  C7  UNL     1      11.797  -2.811  34.394  1.00  0.00     0.003 A 
HETATM   29  C8  UNL     1      11.782  -2.468  33.043  1.00  0.00     0.025 A 
HETATM   30  C9  UNL     1      10.796  -2.988  32.196  1.00  0.00     0.046 A 
HETATM   31 CL2  UNL     1      10.856  -2.521  30.529  1.00  0.00    -0.083 Cl
ENDBRANCH   5  24
TORSDOF 3
ENDMDL
MODEL 3
REMARK minimizedAffinity -10.4511251
REMARK  3 active torsions:
REMARK  status: ('A' for Active; 'I' for Inactive)
REMARK    1  A    between atoms: C3_5  and  C4_6 
REMARK    2  A    between atoms: C13_19  and  N3_20 
REMARK    3  A    between atoms: N3_20  and  C14_21 
ROOT
HETATM    1  C1  UNL     1       8.318  -7.067  29.553  1.00  0.00     0.161 C 
HETATM    2  N1  UNL     1       8.136  -5.877  30.363  1.00  0.00    -0.303 N 
HETATM    3  C2  UNL     1       9.158  -5.442  31.191  1.00  0.00     0.260 A 
HETATM    4  O1  UNL     1      10.244  -6.012  31.293  1.00  0.00    -0.267 OA
HETATM    5  C3  UNL     1       8.902  -4.203  32.002  1.00  0.00     0.047 A 
HETATM    6  C10 UNL     1       7.728  -3.557  31.915  1.00  0.00     0.034 A 
HETATM    7  C11 UNL     1       6.697  -4.065  31.027  1.00  0.00     0.026 A 
HETATM    8  C12 UNL     1       5.467  -3.469  30.877  1.00  0.00     0.121 A 
HETATM    9  N2  UNL     1       4.507  -3.934  30.055  1.00  0.00    -0.201 N 
ATOM     10  H2  UNL     1       3.607  -3.462  29.971  1.00  0.00     0.183 HD
HETATM   11  C13 UNL     1       4.782  -5.044  29.352  1.00  0.00     0.684 A 
HETATM   12  N4  UNL     1       5.951  -5.691  29.434  1.00  0.00    -0.175 N 
ATOM     13  H4  UNL     1       6.125  -6.532  28.884  1.00  0.00     0.186 HD
HETATM   14  C20 UNL     1       6.893  -5.201  30.266  1.00  0.00     0.137 A 
ENDROOT
BRANCH  11  15
HETATM   15  N3  UNL     1       3.752  -5.475  28.522  1.00  0.00    -0.192 N 
HETATM   16  H9  UNL     1       3.280  -4.665  28.144  1.00  0.00     0.184 HD
BRANCH  15  17
HETATM   17  C14 UNL     1       3.270  -6.729  28.133  1.00  0.00     0.050 A 
HETATM   18  C15 UNL     1       1.920  -7.096  28.179  1.00  0.00     0.030 A 
HETATM   19  C16 UNL     1       1.495  -8.368  27.776  1.00  0.00     0.004 A 
HETATM   20  C17 UNL     1       2.419  -9.301  27.317  1.00  0.00     0.019 A 
HETATM   21  C18 UNL     1       3.765  -8.954  27.264  1.00  0.00     0.013 A 
HETATM   22 BR1  UNL     1       5.033 -10.213  26.642  1.00  0.00    -0.051 Br
HETATM   23  C19 UNL     1       4.188  -7.685  27.666  1.00  0.00     0.049 A 
ENDBRANCH  15  17
ENDBRANCH  11  15
BRANCH   5  24
HETATM   24  C4  UNL     1       9.954  -3.692  32.902  1.00  0.00     0.023 A 
HETATM   25  C5  UNL     1       9.994  -4.072  34.256  1.00  0.00     0.046 A 
HETATM   26 CL1  UNL     1       8.844  -5.177  34.930  1.00  0.00    -0.083 Cl
HETATM   27  C6  UNL     1      10.983  -3.573  35.112  1.00  0.00     0.025 A 
HETATM   28  C7  UNL     1      11.945  -2.688  34.632  1.00  0.00     0.003 A 
HETATM   29  C8  UNL     1      11.922  -2.301  33.293  1.00  0.00     0.025 A 
HETATM   30  C9  UNL     1      10.934  -2.797  32.434  1.00  0.00     0.046 A 
HETATM   31 CL2  UNL     1      10.983  -2.275  30.783  1.00  0.00    -0.083 Cl
ENDBRANCH   5  24
TORSDOF 3
ENDMDL
MODEL 4
REMARK minimizedAffinity -10.1880827
REMARK  3 active torsions:
REMARK  status: ('A' for Active; 'I' for Inactive)
REMARK    1  A    between atoms: C3_5  and  C4_6 
REMARK    2  A    between atoms: C13_19  and  N3_20 
REMARK    3  A    between atoms: N3_20  and  C14_21 
ROOT
HETATM    1  C1  UNL     1       5.444  -3.566  30.497  1.00  0.00     0.161 C 
HETATM    2  N1  UNL     1       6.721  -4.211  30.743  1.00  0.00    -0.303 N 
HETATM    3  C2  UNL     1       7.613  -3.658  31.647  1.00  0.00     0.260 A 
HETATM    4  O1  UNL     1       7.393  -2.623  32.277  1.00  0.00    -0.267 OA
HETATM    5  C3  UNL     1       8.915  -4.378  31.854  1.00  0.00     0.047 A 
HETATM    6  C10 UNL     1       9.187  -5.509  31.183  1.00  0.00     0.034 A 
HETATM    7  C11 UNL     1       8.209  -6.038  30.248  1.00  0.00     0.026 A 
HETATM    8  C12 UNL     1       8.404  -7.187  29.520  1.00  0.00     0.121 A 
HETATM    9  N2  UNL     1       7.502  -7.684  28.652  1.00  0.00    -0.201 N 
ATOM     10  H2  UNL     1       7.684  -8.541  28.131  1.00  0.00     0.183 HD
HETATM   11  C13 UNL     1       6.353  -7.005  28.501  1.00  0.00     0.684 A 
HETATM   12  N4  UNL     1       6.077  -5.878  29.168  1.00  0.00    -0.175 N 
ATOM     13  H4  UNL     1       5.193  -5.389  29.028  1.00  0.00     0.186 HD
HETATM   14  C20 UNL     1       7.000  -5.405  30.030  1.00  0.00     0.137 A 
ENDROOT
BRANCH  11  15
HETATM   15  N3  UNL     1       5.462  -7.567  27.592  1.00  0.00    -0.192 N 
HETATM   16  H9  UNL     1       5.957  -7.763  26.733  1.00  0.00     0.184 HD
BRANCH  15  17
HETATM   17  C14 UNL     1       4.103  -7.893  27.630  1.00  0.00     0.050 A 
HETATM   18  C15 UNL     1       3.099  -7.012  28.049  1.00  0.00     0.030 A 
HETATM   19  C16 UNL     1       1.753  -7.394  28.067  1.00  0.00     0.004 A 
HETATM   20  C17 UNL     1       1.383  -8.674  27.664  1.00  0.00     0.019 A 
HETATM   21  C18 UNL     1       2.367  -9.563  27.244  1.00  0.00     0.013 A 
HETATM   22 BR1  UNL     1       1.880 -11.306  26.693  1.00  0.00    -0.051 Br
HETATM   23  C19 UNL     1       3.710  -9.181  27.226  1.00  0.00     0.049 A 
ENDBRANCH  15  17
ENDBRANCH  11  15
BRANCH   5  24
HETATM   24  C4  UNL     1       9.904  -3.835  32.805  1.00  0.00     0.023 A 
HETATM   25  C5  UNL     1      10.902  -2.940  32.378  1.00  0.00     0.046 A 
HETATM   26 CL1  UNL     1      11.006  -2.402  30.735  1.00  0.00    -0.083 Cl
HETATM   27  C6  UNL     1      11.849  -2.439  33.278  1.00  0.00     0.025 A 
HETATM   28  C7  UNL     1      11.817  -2.823  34.617  1.00  0.00     0.003 A 
HETATM   29  C8  UNL     1      10.835  -3.708  35.058  1.00  0.00     0.025 A 
HETATM   30  C9  UNL     1       9.886  -4.212  34.160  1.00  0.00     0.046 A 
HETATM   31 CL2  UNL     1       8.693  -5.297  34.793  1.00  0.00    -0.083 Cl
ENDBRANCH   5  24
TORSDOF 3
ENDMDL
MODEL 5
REMARK minimizedAffinity -10.1564083
REMARK  3 active torsions:
REMARK  status: ('A' for Active; 'I' for Inactive)
REMARK    1  A    between atoms: C3_5  and  C4_6 
REMARK    2  A    between atoms: C13_19  and  N3_20 
REMARK    3  A    between atoms: N3_20  and  C14_21 
ROOT
HETATM    1  C1  UNL     1       5.428  -3.580  30.486  1.00  0.00     0.161 C 
HETATM    2  N1  UNL     1       6.703  -4.233  30.719  1.00  0.00    -0.303 N 
HETATM    3  C2  UNL     1       7.602  -3.692  31.625  1.00  0.00     0.260 A 
HETATM    4  O1  UNL     1       7.389  -2.663  32.266  1.00  0.00    -0.267 OA
HETATM    5  C3  UNL     1       8.902  -4.420  31.817  1.00  0.00     0.047 A 
HETATM    6  C10 UNL     1       9.166  -5.545  31.133  1.00  0.00     0.034 A 
HETATM    7  C11 UNL     1       8.181  -6.061  30.198  1.00  0.00     0.026 A 
HETATM    8  C12 UNL     1       8.368  -7.203  29.457  1.00  0.00     0.121 A 
HETATM    9  N2  UNL     1       7.459  -7.687  28.588  1.00  0.00    -0.201 N 
ATOM     10  H2  UNL     1       7.635  -8.540  28.057  1.00  0.00     0.183 HD
HETATM   11  C13 UNL     1       6.313  -7.002  28.450  1.00  0.00     0.684 A 
HETATM   12  N4  UNL     1       6.045  -5.881  29.130  1.00  0.00    -0.175 N 
ATOM     13  H4  UNL     1       5.161  -5.387  28.999  1.00  0.00     0.186 HD
HETATM   14  C20 UNL     1       6.974  -5.421  29.993  1.00  0.00     0.137 A 
ENDROOT
BRANCH  11  15
HETATM   15  N3  UNL     1       5.415  -7.551  27.540  1.00  0.00    -0.192 N 
HETATM   16  H9  UNL     1       5.896  -7.705  26.664  1.00  0.00     0.184 HD
BRANCH  15  17
HETATM   17  C14 UNL     1       4.064  -7.908  27.594  1.00  0.00     0.050 A 
HETATM   18  C15 UNL     1       3.046  -7.050  28.025  1.00  0.00     0.030 A 
HETATM   19  C16 UNL     1       1.709  -7.463  28.058  1.00  0.00     0.004 A 
HETATM   20  C17 UNL     1       1.364  -8.751  27.659  1.00  0.00     0.019 A 
HETATM   21  C18 UNL     1       2.362  -9.617  27.228  1.00  0.00     0.013 A 
HETATM   22 BR1  UNL     1       1.909 -11.370  26.682  1.00  0.00    -0.051 Br
HETATM   23  C19 UNL     1       3.697  -9.204  27.194  1.00  0.00     0.049 A 
ENDBRANCH  15  17
ENDBRANCH  11  15
BRANCH   5  24
HETATM   24  C4  UNL     1       9.898  -3.890  32.768  1.00  0.00     0.023 A 
HETATM   25  C5  UNL     1       9.845  -4.229  34.133  1.00  0.00     0.046 A 
HETATM   26 CL1  UNL     1       8.643  -5.305  34.762  1.00  0.00    -0.083 Cl
HETATM   27  C6  UNL     1      10.781  -3.713  35.036  1.00  0.00     0.025 A 
HETATM   28  C7  UNL     1      11.781  -2.850  34.595  1.00  0.00     0.003 A 
HETATM   29  C8  UNL     1      11.848  -2.502  33.247  1.00  0.00     0.025 A 
HETATM   30  C9  UNL     1      10.914  -3.017  32.340  1.00  0.00     0.046 A 
HETATM   31 CL2  UNL     1      11.076  -2.545  30.681  1.00  0.00    -0.083 Cl
ENDBRANCH   5  24
TORSDOF 3
ENDMDL
MODEL 6
REMARK minimizedAffinity -9.85951614
REMARK  3 active torsions:
REMARK  status: ('A' for Active; 'I' for Inactive)
REMARK    1  A    between atoms: C3_5  and  C4_6 
REMARK    2  A    between atoms: C13_19  and  N3_20 
REMARK    3  A    between atoms: N3_20  and  C14_21 
ROOT
HETATM    1  C1  UNL     1       5.426  -3.647  30.411  1.00  0.00     0.161 C 
HETATM    2  N1  UNL     1       6.721  -4.270  30.625  1.00  0.00    -0.303 N 
HETATM    3  C2  UNL     1       7.575  -3.772  31.594  1.00  0.00     0.260 A 
HETATM    4  O1  UNL     1       7.307  -2.807  32.310  1.00  0.00    -0.267 OA
HETATM    5  C3  UNL     1       8.898  -4.464  31.762  1.00  0.00     0.047 A 
HETATM    6  C10 UNL     1       9.222  -5.519  30.997  1.00  0.00     0.034 A 
HETATM    7  C11 UNL     1       8.280  -5.993  29.997  1.00  0.00     0.026 A 
HETATM    8  C12 UNL     1       8.529  -7.063  29.172  1.00  0.00     0.121 A 
HETATM    9  N2  UNL     1       7.661  -7.508  28.243  1.00  0.00    -0.201 N 
ATOM     10  H2  UNL     1       7.882  -8.308  27.650  1.00  0.00     0.183 HD
HETATM   11  C13 UNL     1       6.492  -6.857  28.130  1.00  0.00     0.684 A 
HETATM   12  N4  UNL     1       6.164  -5.805  28.890  1.00  0.00    -0.175 N 
ATOM     13  H4  UNL     1       5.266  -5.336  28.777  1.00  0.00     0.186 HD
HETATM   14  C20 UNL     1       7.055  -5.383  29.812  1.00  0.00     0.137 A 
ENDROOT
BRANCH  11  15
HETATM   15  N3  UNL     1       5.638  -7.363  27.155  1.00  0.00    -0.192 N 
HETATM   16  H9  UNL     1       5.767  -6.832  26.305  1.00  0.00     0.184 HD
BRANCH  15  17
HETATM   17  C14 UNL     1       4.696  -8.395  27.121  1.00  0.00     0.050 A 
HETATM   18  C15 UNL     1       5.009  -9.730  26.834  1.00  0.00     0.030 A 
HETATM   19  C16 UNL     1       4.022 -10.722  26.815  1.00  0.00     0.004 A 
HETATM   20  C17 UNL     1       2.696 -10.397  27.083  1.00  0.00     0.019 A 
HETATM   21  C18 UNL     1       2.367  -9.077  27.370  1.00  0.00     0.013 A 
HETATM   22 BR1  UNL     1       0.569  -8.619  27.737  1.00  0.00    -0.051 Br
HETATM   23  C19 UNL     1       3.352  -8.086  27.390  1.00  0.00     0.049 A 
ENDBRANCH  15  17
ENDBRANCH  11  15
BRANCH   5  24
HETATM   24  C4  UNL     1       9.849  -3.978  32.780  1.00  0.00     0.023 A 
HETATM   25  C5  UNL     1       9.747  -4.389  34.121  1.00  0.00     0.046 A 
HETATM   26 CL1  UNL     1       8.531  -5.507  34.644  1.00  0.00    -0.083 Cl
HETATM   27  C6  UNL     1      10.640  -3.914  35.088  1.00  0.00     0.025 A 
HETATM   28  C7  UNL     1      11.648  -3.020  34.733  1.00  0.00     0.003 A 
HETATM   29  C8  UNL     1      11.765  -2.601  33.409  1.00  0.00     0.025 A 
HETATM   30  C9  UNL     1      10.873  -3.074  32.439  1.00  0.00     0.046 A 
HETATM   31 CL2  UNL     1      11.096  -2.514  30.815  1.00  0.00    -0.083 Cl
ENDBRANCH   5  24
TORSDOF 3
ENDMDL
MODEL 7
REMARK minimizedAffinity -9.67303276
REMARK  3 active torsions:
REMARK  status: ('A' for Active; 'I' for Inactive)
REMARK    1  A    between atoms: C3_5  and  C4_6 
REMARK    2  A    between atoms: C13_19  and  N3_20 
REMARK    3  A    between atoms: N3_20  and  C14_21 
ROOT
HETATM    1  C1  UNL     1       5.537  -3.963  30.228  1.00  0.00     0.161 C 
HETATM    2  N1  UNL     1       6.854  -4.512  30.502  1.00  0.00    -0.303 N 
HETATM    3  C2  UNL     1       7.645  -3.949  31.490  1.00  0.00     0.260 A 
HETATM    4  O1  UNL     1       7.301  -2.985  32.174  1.00  0.00    -0.267 OA
HETATM    5  C3  UNL     1       8.995  -4.567  31.721  1.00  0.00     0.047 A 
HETATM    6  C10 UNL     1       9.401  -5.619  30.992  1.00  0.00     0.034 A 
HETATM    7  C11 UNL     1       8.523  -6.163  29.971  1.00  0.00     0.026 A 
HETATM    8  C12 UNL     1       8.857  -7.236  29.179  1.00  0.00     0.121 A 
HETATM    9  N2  UNL     1       8.048  -7.746  28.231  1.00  0.00    -0.201 N 
ATOM     10  H2  UNL     1       8.332  -8.544  27.665  1.00  0.00     0.183 HD
HETATM   11  C13 UNL     1       6.851  -7.159  28.061  1.00  0.00     0.684 A 
HETATM   12  N4  UNL     1       6.442  -6.111  28.785  1.00  0.00    -0.175 N 
ATOM     13  H4  UNL     1       5.525  -5.692  28.629  1.00  0.00     0.186 HD
HETATM   14  C20 UNL     1       7.275  -5.623  29.728  1.00  0.00     0.137 A 
ENDROOT
BRANCH  11  15
HETATM   15  N3  UNL     1       6.061  -7.730  27.068  1.00  0.00    -0.192 N 
HETATM   16  H9  UNL     1       6.392  -7.410  26.168  1.00  0.00     0.184 HD
BRANCH  15  17
HETATM   17  C14 UNL     1       4.969  -8.603  27.070  1.00  0.00     0.050 A 
HETATM   18  C15 UNL     1       5.058  -9.966  26.766  1.00  0.00     0.030 A 
HETATM   19  C16 UNL     1       3.929 -10.793  26.783  1.00  0.00     0.004 A 
HETATM   20  C17 UNL     1       2.682 -10.268  27.106  1.00  0.00     0.019 A 
HETATM   21  C18 UNL     1       2.574  -8.915  27.411  1.00  0.00     0.013 A 
HETATM   22 BR1  UNL     1       0.885  -8.186  27.852  1.00  0.00    -0.051 Br
HETATM   23  C19 UNL     1       3.701  -8.090  27.394  1.00  0.00     0.049 A 
ENDBRANCH  15  17
ENDBRANCH  11  15
BRANCH   5  24
HETATM   24  C4  UNL     1       9.882  -4.010  32.760  1.00  0.00     0.023 A 
HETATM   25  C5  UNL     1      10.876  -3.069  32.434  1.00  0.00     0.046 A 
HETATM   26 CL1  UNL     1      11.092  -2.490  30.816  1.00  0.00    -0.083 Cl
HETATM   27  C6  UNL     1      11.727  -2.554  33.419  1.00  0.00     0.025 A 
HETATM   28  C7  UNL     1      11.602  -2.970  34.742  1.00  0.00     0.003 A 
HETATM   29  C8  UNL     1      10.623  -3.901  35.084  1.00  0.00     0.025 A 
HETATM   30  C9  UNL     1       9.770  -4.418  34.102  1.00  0.00     0.046 A 
HETATM   31 CL2  UNL     1       8.572  -5.561  34.613  1.00  0.00    -0.083 Cl
ENDBRANCH   5  24
TORSDOF 3
ENDMDL
MODEL 8
REMARK minimizedAffinity -9.2580204
REMARK  3 active torsions:
REMARK  status: ('A' for Active; 'I' for Inactive)
REMARK    1  A    between atoms: C3_5  and  C4_6 
REMARK    2  A    between atoms: C13_19  and  N3_20 
REMARK    3  A    between atoms: N3_20  and  C14_21 
ROOT
HETATM    1  C1  UNL     1       5.266  -3.686  30.334  1.00  0.00     0.161 C 
HETATM    2  N1  UNL     1       6.550  -4.323  30.566  1.00  0.00    -0.303 N 
HETATM    3  C2  UNL     1       7.437  -3.779  31.480  1.00  0.00     0.260 A 
HETATM    4  O1  UNL     1       7.207  -2.760  32.131  1.00  0.00    -0.267 OA
HETATM    5  C3  UNL     1       8.747  -4.490  31.670  1.00  0.00     0.047 A 
HETATM    6  C10 UNL     1       9.029  -5.604  30.976  1.00  0.00     0.034 A 
HETATM    7  C11 UNL     1       8.055  -6.124  30.031  1.00  0.00     0.026 A 
HETATM    8  C12 UNL     1       8.261  -7.256  29.279  1.00  0.00     0.121 A 
HETATM    9  N2  UNL     1       7.362  -7.744  28.403  1.00  0.00    -0.201 N 
ATOM     10  H2  UNL     1       7.552  -8.589  27.864  1.00  0.00     0.183 HD
HETATM   11  C13 UNL     1       6.206  -7.074  28.267  1.00  0.00     0.684 A 
HETATM   12  N4  UNL     1       5.920  -5.963  28.957  1.00  0.00    -0.175 N 
ATOM     13  H4  UNL     1       5.031  -5.481  28.828  1.00  0.00     0.186 HD
HETATM   14  C20 UNL     1       6.840  -5.499  29.828  1.00  0.00     0.137 A 
ENDROOT
BRANCH  11  15
HETATM   15  N3  UNL     1       5.320  -7.626  27.348  1.00  0.00    -0.192 N 
HETATM   16  H9  UNL     1       4.671  -6.910  27.054  1.00  0.00     0.184 HD
BRANCH  15  17
HETATM   17  C14 UNL     1       5.160  -8.897  26.786  1.00  0.00     0.050 A 
HETATM   18  C15 UNL     1       6.093  -9.495  25.930  1.00  0.00     0.030 A 
HETATM   19  C16 UNL     1       5.879 -10.772  25.397  1.00  0.00     0.004 A 
HETATM   20  C17 UNL     1       4.722 -11.477  25.712  1.00  0.00     0.019 A 
HETATM   21  C18 UNL     1       3.784 -10.898  26.561  1.00  0.00     0.013 A 
HETATM   22 BR1  UNL     1       2.206 -11.845  26.998  1.00  0.00    -0.051 Br
HETATM   23  C19 UNL     1       3.998  -9.624  27.093  1.00  0.00     0.049 A 
ENDBRANCH  15  17
ENDBRANCH  11  15
BRANCH   5  24
HETATM   24  C4  UNL     1       9.731  -3.957  32.631  1.00  0.00     0.023 A 
HETATM   25  C5  UNL     1      10.728  -3.054  32.218  1.00  0.00     0.046 A 
HETATM   26 CL1  UNL     1      10.835  -2.494  30.583  1.00  0.00    -0.083 Cl
HETATM   27  C6  UNL     1      11.671  -2.562  33.128  1.00  0.00     0.025 A 
HETATM   28  C7  UNL     1      11.636  -2.963  34.461  1.00  0.00     0.003 A 
HETATM   29  C8  UNL     1      10.656  -3.857  34.888  1.00  0.00     0.025 A 
HETATM   30  C9  UNL     1       9.711  -4.351  33.981  1.00  0.00     0.046 A 
HETATM   31 CL2  UNL     1       8.520  -5.448  34.596  1.00  0.00    -0.083 Cl
ENDBRANCH   5  24
TORSDOF 3
ENDMDL
MODEL 9
REMARK minimizedAffinity -9.02845478
REMARK  3 active torsions:
REMARK  status: ('A' for Active; 'I' for Inactive)
REMARK    1  A    between atoms: C3_5  and  C4_6 
REMARK    2  A    between atoms: C13_19  and  N3_20 
REMARK    3  A    between atoms: N3_20  and  C14_21 
ROOT
HETATM    1  C1  UNL     1       5.242  -3.693  30.467  1.00  0.00     0.161 C 
HETATM    2  N1  UNL     1       6.528  -4.339  30.663  1.00  0.00    -0.303 N 
HETATM    3  C2  UNL     1       7.457  -3.784  31.526  1.00  0.00     0.260 A 
HETATM    4  O1  UNL     1       7.265  -2.746  32.161  1.00  0.00    -0.267 OA
HETATM    5  C3  UNL     1       8.766  -4.505  31.681  1.00  0.00     0.047 A 
HETATM    6  C10 UNL     1       9.008  -5.639  31.003  1.00  0.00     0.034 A 
HETATM    7  C11 UNL     1       7.991  -6.170  30.112  1.00  0.00     0.026 A 
HETATM    8  C12 UNL     1       8.154  -7.322  29.381  1.00  0.00     0.121 A 
HETATM    9  N2  UNL     1       7.215  -7.821  28.553  1.00  0.00    -0.201 N 
ATOM     10  H2  UNL     1       7.374  -8.680  28.028  1.00  0.00     0.183 HD
HETATM   11  C13 UNL     1       6.062  -7.141  28.448  1.00  0.00     0.684 A 
HETATM   12  N4  UNL     1       5.816  -6.011  29.121  1.00  0.00    -0.175 N 
ATOM     13  H4  UNL     1       4.927  -5.521  29.017  1.00  0.00     0.186 HD
HETATM   14  C20 UNL     1       6.775  -5.536  29.943  1.00  0.00     0.137 A 
ENDROOT
BRANCH  11  15
HETATM   15  N3  UNL     1       5.133  -7.705  27.579  1.00  0.00    -0.192 N 
HETATM   16  H9  UNL     1       4.279  -7.167  27.625  1.00  0.00     0.184 HD
BRANCH  15  17
HETATM   17  C14 UNL     1       5.148  -8.801  26.710  1.00  0.00     0.050 A 
HETATM   18  C15 UNL     1       4.095  -9.126  25.846  1.00  0.00     0.030 A 
HETATM   19  C16 UNL     1       4.165 -10.237  24.997  1.00  0.00     0.004 A 
HETATM   20  C17 UNL     1       5.296 -11.048  24.998  1.00  0.00     0.019 A 
HETATM   21  C18 UNL     1       6.351 -10.740  25.850  1.00  0.00     0.013 A 
HETATM   22 BR1  UNL     1       7.895 -11.833  25.863  1.00  0.00    -0.051 Br
HETATM   23  C19 UNL     1       6.281  -9.631  26.697  1.00  0.00     0.049 A 
ENDBRANCH  15  17
ENDBRANCH  11  15
BRANCH   5  24
HETATM   24  C4  UNL     1       9.794  -3.960  32.588  1.00  0.00     0.023 A 
HETATM   25  C5  UNL     1       9.799  -4.287  33.956  1.00  0.00     0.046 A 
HETATM   26 CL1  UNL     1       8.631  -5.367  34.642  1.00  0.00    -0.083 Cl
HETATM   27  C6  UNL     1      10.766  -3.756  34.817  1.00  0.00     0.025 A 
HETATM   28  C7  UNL     1      11.741  -2.889  34.329  1.00  0.00     0.003 A 
HETATM   29  C8  UNL     1      11.752  -2.553  32.976  1.00  0.00     0.025 A 
HETATM   30  C9  UNL     1      10.786  -3.083  32.112  1.00  0.00     0.046 A 
HETATM   31 CL2  UNL     1      10.878  -2.624  30.444  1.00  0.00    -0.083 Cl
ENDBRANCH   5  24
TORSDOF 3
ENDMDL
