MODEL 1
REMARK minimizedAffinity -9.18334961
REMARK  12 active torsions:
REMARK  status: ('A' for Active; 'I' for Inactive)
REMARK    1  A    between atoms: C6_6  and  C8_8 
REMARK    2  A    between atoms: C8_8  and  C9_9 
REMARK    3  A    between atoms: C9_9  and  C10_10 
REMARK    4  A    between atoms: C12_12  and  C13_13 
REMARK    5  A    between atoms: C13_13  and  C14_14 
REMARK    6  A    between atoms: C15_15  and  O1_16 
REMARK    7  A    between atoms: C18_20  and  N1_21 
REMARK    8  A    between atoms: N1_21  and  C19_22 
REMARK    9  A    between atoms: C19_22  and  C20_23 
REMARK   10  A    between atoms: C19_22  and  C21_26 
REMARK   11  A    between atoms: C20_23  and  O4_25 
REMARK   12  A    between atoms: C21_26  and  O5_28 
ROOT
HETATM    1  C14 UNL     1      -2.834   3.809  11.377  1.00  0.00     0.035 A 
HETATM    2  C15 UNL     1      -1.802   3.054  10.976  1.00  0.00     0.126 A 
HETATM    3  C16 UNL     1      -0.457   3.189  11.585  1.00  0.00     0.207 A 
HETATM    4  O2  UNL     1       0.460   2.473  11.189  1.00  0.00    -0.285 OA
HETATM    5  C17 UNL     1      -0.262   4.200  12.628  1.00  0.00     0.091 A 
HETATM    6  C18 UNL     1      -1.260   4.968  13.079  1.00  0.00     0.084 A 
HETATM    7  C23 UNL     1      -2.645   4.762  12.503  1.00  0.00     0.207 A 
HETATM    8  O6  UNL     1      -3.591   5.384  12.986  1.00  0.00    -0.285 OA
ENDROOT
BRANCH   1   9
HETATM    9  C13 UNL     1      -4.215   3.725  10.786  1.00  0.00     0.073 C 
BRANCH   9  10
HETATM   10  C12 UNL     1      -5.289   3.804  11.843  1.00  0.00    -0.020 C 
HETATM   11  C10 UNL     1      -6.192   2.862  12.187  1.00  0.00    -0.087 C 
HETATM   12  C11 UNL     1      -6.327   1.524  11.510  1.00  0.00     0.043 C 
BRANCH  11  13
HETATM   13  C9  UNL     1      -7.200   3.138  13.292  1.00  0.00     0.034 C 
BRANCH  13  14
HETATM   14  C8  UNL     1      -7.990   4.437  13.056  1.00  0.00     0.014 C 
BRANCH  14  15
HETATM   15  C6  UNL     1      -7.723   5.635  14.029  1.00  0.00    -0.036 C 
HETATM   16  C5  UNL     1      -6.694   6.635  13.446  1.00  0.00     0.013 C 
HETATM   17  C4  UNL     1      -6.363   7.791  14.393  1.00  0.00     0.028 C 
HETATM   18  C3  UNL     1      -7.538   8.295  15.174  1.00  0.00    -0.024 C 
HETATM   19  C2  UNL     1      -8.742   7.693  15.208  1.00  0.00    -0.083 C 
HETATM   20  C1  UNL     1      -9.852   8.233  16.071  1.00  0.00     0.043 C 
HETATM   21  C24 UNL     1      -9.038   6.415  14.423  1.00  0.00     0.018 C 
HETATM   22  C25 UNL     1      -9.949   6.770  13.240  1.00  0.00     0.015 C 
HETATM   23  C7  UNL     1      -7.140   4.991  15.324  1.00  0.00     0.016 C 
ENDBRANCH  14  15
ENDBRANCH  13  14
ENDBRANCH  11  13
ENDBRANCH   9  10
ENDBRANCH   1   9
BRANCH   2  24
HETATM   24  O1  UNL     1      -1.928   2.113   9.967  1.00  0.00    -0.356 OA
HETATM   25  H22 UNL     1      -1.037   1.707   9.882  1.00  0.00     0.218 HD
ENDBRANCH   2  24
BRANCH   6  26
HETATM   26  N1  UNL     1      -1.194   5.958  14.059  1.00  0.00    -0.370 N 
HETATM   27  H24 UNL     1      -1.411   5.542  14.974  1.00  0.00     0.160 HD
BRANCH  26  28
HETATM   28  C19 UNL     1      -0.296   7.134  14.155  1.00  0.00     0.208 C 
BRANCH  28  29
HETATM   29  C20 UNL     1      -0.195   7.700  15.576  1.00  0.00     0.166 C 
HETATM   30  O3  UNL     1      -0.490   8.823  15.959  1.00  0.00    -0.648 OA
BRANCH  29  31
HETATM   31  O4  UNL     1       0.361   6.835  16.455  1.00  0.00    -0.775 OA
HETATM   32  H26 UNL     1       0.343   7.333  17.300  1.00  0.00     0.167 HD
ENDBRANCH  29  31
ENDBRANCH  28  29
BRANCH  28  33
HETATM   33  C21 UNL     1       1.072   6.857  13.479  1.00  0.00     0.147 C 
HETATM   34  C22 UNL     1       1.669   8.105  12.833  1.00  0.00     0.042 C 
BRANCH  33  35
HETATM   35  O5  UNL     1       2.034   6.315  14.387  1.00  0.00    -0.393 OA
HETATM   36  H31 UNL     1       2.824   6.081  13.868  1.00  0.00     0.210 HD
ENDBRANCH  33  35
ENDBRANCH  28  33
ENDBRANCH  26  28
ENDBRANCH   6  26
TORSDOF 12
ENDMDL
MODEL 2
REMARK minimizedAffinity -9.10191059
REMARK  12 active torsions:
REMARK  status: ('A' for Active; 'I' for Inactive)
REMARK    1  A    between atoms: C6_6  and  C8_8 
REMARK    2  A    between atoms: C8_8  and  C9_9 
REMARK    3  A    between atoms: C9_9  and  C10_10 
REMARK    4  A    between atoms: C12_12  and  C13_13 
REMARK    5  A    between atoms: C13_13  and  C14_14 
REMARK    6  A    between atoms: C15_15  and  O1_16 
REMARK    7  A    between atoms: C18_20  and  N1_21 
REMARK    8  A    between atoms: N1_21  and  C19_22 
REMARK    9  A    between atoms: C19_22  and  C20_23 
REMARK   10  A    between atoms: C19_22  and  C21_26 
REMARK   11  A    between atoms: C20_23  and  O4_25 
REMARK   12  A    between atoms: C21_26  and  O5_28 
ROOT
HETATM    1  C14 UNL     1      -0.830   5.198  12.116  1.00  0.00     0.035 A 
HETATM    2  C15 UNL     1      -1.189   6.467  12.351  1.00  0.00     0.126 A 
HETATM    3  C16 UNL     1      -0.258   7.596  12.113  1.00  0.00     0.207 A 
HETATM    4  O2  UNL     1      -0.631   8.744  12.338  1.00  0.00    -0.285 OA
HETATM    5  C17 UNL     1       1.097   7.294  11.642  1.00  0.00     0.091 A 
HETATM    6  C18 UNL     1       1.503   6.048  11.375  1.00  0.00     0.084 A 
HETATM    7  C23 UNL     1       0.514   4.915  11.545  1.00  0.00     0.207 A 
HETATM    8  O6  UNL     1       0.840   3.780  11.198  1.00  0.00    -0.285 OA
ENDROOT
BRANCH   1   9
HETATM    9  C13 UNL     1      -1.729   4.014  12.351  1.00  0.00     0.073 C 
BRANCH   9  10
HETATM   10  C12 UNL     1      -3.188   4.374  12.215  1.00  0.00    -0.020 C 
HETATM   11  C10 UNL     1      -4.227   3.558  11.943  1.00  0.00    -0.087 C 
HETATM   12  C11 UNL     1      -4.101   2.084  11.662  1.00  0.00     0.043 C 
BRANCH  11  13
HETATM   13  C9  UNL     1      -5.637   4.121  11.849  1.00  0.00     0.034 C 
BRANCH  13  14
HETATM   14  C8  UNL     1      -6.500   3.751  13.067  1.00  0.00     0.014 C 
BRANCH  14  15
HETATM   15  C6  UNL     1      -7.105   4.925  13.910  1.00  0.00    -0.036 C 
HETATM   16  C5  UNL     1      -6.141   6.135  13.991  1.00  0.00     0.013 C 
HETATM   17  C4  UNL     1      -6.672   7.281  14.855  1.00  0.00     0.028 C 
HETATM   18  C3  UNL     1      -8.149   7.506  14.728  1.00  0.00    -0.024 C 
HETATM   19  C2  UNL     1      -8.989   6.682  14.075  1.00  0.00    -0.083 C 
HETATM   20  C1  UNL     1     -10.471   6.950  14.049  1.00  0.00     0.043 C 
HETATM   21  C24 UNL     1      -8.505   5.413  13.370  1.00  0.00     0.018 C 
HETATM   22  C25 UNL     1      -8.560   5.648  11.854  1.00  0.00     0.015 C 
HETATM   23  C7  UNL     1      -7.318   4.339  15.339  1.00  0.00     0.016 C 
ENDBRANCH  14  15
ENDBRANCH  13  14
ENDBRANCH  11  13
ENDBRANCH   9  10
ENDBRANCH   1   9
BRANCH   2  24
HETATM   24  O1  UNL     1      -2.446   6.799  12.834  1.00  0.00    -0.356 OA
HETATM   25  H22 UNL     1      -2.442   7.779  12.906  1.00  0.00     0.218 HD
ENDBRANCH   2  24
BRANCH   6  26
HETATM   26  N1  UNL     1       2.760   5.642  10.926  1.00  0.00    -0.370 N 
HETATM   27  H24 UNL     1       3.083   4.851  11.497  1.00  0.00     0.160 HD
BRANCH  26  28
HETATM   28  C19 UNL     1       3.313   5.630   9.551  1.00  0.00     0.208 C 
BRANCH  28  29
HETATM   29  C20 UNL     1       3.617   4.217   9.037  1.00  0.00     0.166 C 
HETATM   30  O3  UNL     1       4.034   3.894   7.934  1.00  0.00    -0.648 OA
BRANCH  29  31
HETATM   31  O4  UNL     1       3.299   3.248   9.926  1.00  0.00    -0.775 OA
HETATM   32  H26 UNL     1       3.558   2.425   9.460  1.00  0.00     0.167 HD
ENDBRANCH  29  31
ENDBRANCH  28  29
BRANCH  28  33
HETATM   33  C21 UNL     1       2.453   6.488   8.588  1.00  0.00     0.147 C 
HETATM   34  C22 UNL     1       2.987   7.910   8.436  1.00  0.00     0.042 C 
BRANCH  33  35
HETATM   35  O5  UNL     1       2.338   5.907   7.287  1.00  0.00    -0.393 OA
HETATM   36  H31 UNL     1       1.710   6.452   6.779  1.00  0.00     0.210 HD
ENDBRANCH  33  35
ENDBRANCH  28  33
ENDBRANCH  26  28
ENDBRANCH   6  26
TORSDOF 12
ENDMDL
MODEL 3
REMARK minimizedAffinity -8.84240627
REMARK  12 active torsions:
REMARK  status: ('A' for Active; 'I' for Inactive)
REMARK    1  A    between atoms: C6_6  and  C8_8 
REMARK    2  A    between atoms: C8_8  and  C9_9 
REMARK    3  A    between atoms: C9_9  and  C10_10 
REMARK    4  A    between atoms: C12_12  and  C13_13 
REMARK    5  A    between atoms: C13_13  and  C14_14 
REMARK    6  A    between atoms: C15_15  and  O1_16 
REMARK    7  A    between atoms: C18_20  and  N1_21 
REMARK    8  A    between atoms: N1_21  and  C19_22 
REMARK    9  A    between atoms: C19_22  and  C20_23 
REMARK   10  A    between atoms: C19_22  and  C21_26 
REMARK   11  A    between atoms: C20_23  and  O4_25 
REMARK   12  A    between atoms: C21_26  and  O5_28 
ROOT
HETATM    1  C14 UNL     1      -1.446   6.204  14.555  1.00  0.00     0.035 A 
HETATM    2  C15 UNL     1      -2.671   6.353  15.078  1.00  0.00     0.126 A 
HETATM    3  C16 UNL     1      -3.881   5.859  14.377  1.00  0.00     0.207 A 
HETATM    4  O2  UNL     1      -4.984   6.013  14.897  1.00  0.00    -0.285 OA
HETATM    5  C17 UNL     1      -3.717   5.224  13.066  1.00  0.00     0.091 A 
HETATM    6  C18 UNL     1      -2.518   5.034  12.506  1.00  0.00     0.084 A 
HETATM    7  C23 UNL     1      -1.286   5.472  13.270  1.00  0.00     0.207 A 
HETATM    8  O6  UNL     1      -0.175   5.204  12.816  1.00  0.00    -0.285 OA
ENDROOT
BRANCH   1   9
HETATM    9  C13 UNL     1      -0.187   6.698  15.213  1.00  0.00     0.073 C 
BRANCH   9  10
HETATM   10  C12 UNL     1       0.893   7.011  14.207  1.00  0.00    -0.020 C 
HETATM   11  C10 UNL     1       2.034   7.706  14.397  1.00  0.00    -0.087 C 
HETATM   12  C11 UNL     1       2.424   8.367  15.692  1.00  0.00     0.043 C 
BRANCH  11  13
HETATM   13  C9  UNL     1       3.004   7.911  13.243  1.00  0.00     0.034 C 
BRANCH  13  14
HETATM   14  C8  UNL     1       2.287   8.237  11.922  1.00  0.00     0.014 C 
BRANCH  14  15
HETATM   15  C6  UNL     1       2.772   7.493  10.631  1.00  0.00    -0.036 C 
HETATM   16  C5  UNL     1       2.874   5.963  10.849  1.00  0.00     0.013 C 
HETATM   17  C4  UNL     1       3.401   5.207   9.627  1.00  0.00     0.028 C 
HETATM   18  C3  UNL     1       2.909   5.746   8.319  1.00  0.00    -0.024 C 
HETATM   19  C2  UNL     1       2.224   6.896   8.180  1.00  0.00    -0.083 C 
HETATM   20  C1  UNL     1       1.821   7.397   6.819  1.00  0.00     0.043 C 
HETATM   21  C24 UNL     1       1.859   7.778   9.376  1.00  0.00     0.018 C 
HETATM   22  C25 UNL     1       0.352   7.643   9.638  1.00  0.00     0.015 C 
HETATM   23  C7  UNL     1       4.190   8.068  10.334  1.00  0.00     0.016 C 
ENDBRANCH  14  15
ENDBRANCH  13  14
ENDBRANCH  11  13
ENDBRANCH   9  10
ENDBRANCH   1   9
BRANCH   2  24
HETATM   24  O1  UNL     1      -2.880   6.981  16.295  1.00  0.00    -0.356 OA
HETATM   25  H22 UNL     1      -3.851   6.946  16.439  1.00  0.00     0.218 HD
ENDBRANCH   2  24
BRANCH   6  26
HETATM   26  N1  UNL     1      -2.241   4.448  11.271  1.00  0.00    -0.370 N 
HETATM   27  H24 UNL     1      -1.375   4.851  10.892  1.00  0.00     0.160 HD
BRANCH  26  28
HETATM   28  C19 UNL     1      -2.486   3.061  10.808  1.00  0.00     0.208 C 
BRANCH  28  29
HETATM   29  C20 UNL     1      -1.214   2.205  10.768  1.00  0.00     0.166 C 
HETATM   30  O3  UNL     1      -0.198   2.340  11.433  1.00  0.00    -0.648 OA
BRANCH  29  31
HETATM   31  O4  UNL     1      -1.249   1.247   9.813  1.00  0.00    -0.775 OA
HETATM   32  H26 UNL     1      -0.387   0.792   9.924  1.00  0.00     0.167 HD
ENDBRANCH  29  31
ENDBRANCH  28  29
BRANCH  28  33
HETATM   33  C21 UNL     1      -3.669   2.411  11.571  1.00  0.00     0.147 C 
HETATM   34  C22 UNL     1      -5.023   2.746  10.949  1.00  0.00     0.042 C 
BRANCH  33  35
HETATM   35  O5  UNL     1      -3.552   0.989  11.659  1.00  0.00    -0.393 OA
HETATM   36  H31 UNL     1      -4.275   0.672  12.231  1.00  0.00     0.210 HD
ENDBRANCH  33  35
ENDBRANCH  28  33
ENDBRANCH  26  28
ENDBRANCH   6  26
TORSDOF 12
ENDMDL
MODEL 4
REMARK minimizedAffinity -8.79552555
REMARK  12 active torsions:
REMARK  status: ('A' for Active; 'I' for Inactive)
REMARK    1  A    between atoms: C6_6  and  C8_8 
REMARK    2  A    between atoms: C8_8  and  C9_9 
REMARK    3  A    between atoms: C9_9  and  C10_10 
REMARK    4  A    between atoms: C12_12  and  C13_13 
REMARK    5  A    between atoms: C13_13  and  C14_14 
REMARK    6  A    between atoms: C15_15  and  O1_16 
REMARK    7  A    between atoms: C18_20  and  N1_21 
REMARK    8  A    between atoms: N1_21  and  C19_22 
REMARK    9  A    between atoms: C19_22  and  C20_23 
REMARK   10  A    between atoms: C19_22  and  C21_26 
REMARK   11  A    between atoms: C20_23  and  O4_25 
REMARK   12  A    between atoms: C21_26  and  O5_28 
ROOT
HETATM    1  C14 UNL     1      -0.194   7.598  12.726  1.00  0.00     0.035 A 
HETATM    2  C15 UNL     1      -0.626   8.445  11.782  1.00  0.00     0.126 A 
HETATM    3  C16 UNL     1      -0.221   8.300  10.363  1.00  0.00     0.207 A 
HETATM    4  O2  UNL     1      -0.645   9.097   9.530  1.00  0.00    -0.285 OA
HETATM    5  C17 UNL     1       0.700   7.216  10.008  1.00  0.00     0.091 A 
HETATM    6  C18 UNL     1       1.148   6.333  10.906  1.00  0.00     0.084 A 
HETATM    7  C23 UNL     1       0.662   6.446  12.336  1.00  0.00     0.207 A 
HETATM    8  O6  UNL     1       0.979   5.575  13.146  1.00  0.00    -0.285 OA
ENDROOT
BRANCH   1   9
HETATM    9  C13 UNL     1      -0.561   7.706  14.182  1.00  0.00     0.073 C 
BRANCH   9  10
HETATM   10  C12 UNL     1      -1.778   6.882  14.522  1.00  0.00    -0.020 C 
HETATM   11  C10 UNL     1      -2.854   7.244  15.250  1.00  0.00    -0.087 C 
HETATM   12  C11 UNL     1      -3.014   8.579  15.927  1.00  0.00     0.043 C 
BRANCH  11  13
HETATM   13  C9  UNL     1      -3.989   6.258  15.479  1.00  0.00     0.034 C 
BRANCH  13  14
HETATM   14  C8  UNL     1      -5.372   6.884  15.226  1.00  0.00     0.014 C 
BRANCH  14  15
HETATM   15  C6  UNL     1      -6.479   5.967  14.602  1.00  0.00    -0.036 C 
HETATM   16  C5  UNL     1      -7.507   6.781  13.779  1.00  0.00     0.013 C 
HETATM   17  C4  UNL     1      -8.638   5.928  13.200  1.00  0.00     0.028 C 
HETATM   18  C3  UNL     1      -8.199   4.576  12.725  1.00  0.00    -0.024 C 
HETATM   19  C2  UNL     1      -6.978   4.054  12.942  1.00  0.00    -0.083 C 
HETATM   20  C1  UNL     1      -6.639   2.660  12.483  1.00  0.00     0.043 C 
HETATM   21  C24 UNL     1      -5.888   4.814  13.700  1.00  0.00     0.018 C 
HETATM   22  C25 UNL     1      -4.824   5.273  12.693  1.00  0.00     0.015 C 
HETATM   23  C7  UNL     1      -7.198   5.305  15.816  1.00  0.00     0.016 C 
ENDBRANCH  14  15
ENDBRANCH  13  14
ENDBRANCH  11  13
ENDBRANCH   9  10
ENDBRANCH   1   9
BRANCH   2  24
HETATM   24  O1  UNL     1      -1.466   9.507  12.076  1.00  0.00    -0.356 OA
HETATM   25  H22 UNL     1      -1.627   9.952  11.215  1.00  0.00     0.218 HD
ENDBRANCH   2  24
BRANCH   6  26
HETATM   26  N1  UNL     1       2.023   5.269  10.687  1.00  0.00    -0.370 N 
HETATM   27  H24 UNL     1       1.481   4.401  10.589  1.00  0.00     0.160 HD
BRANCH  26  28
HETATM   28  C19 UNL     1       3.306   5.238   9.945  1.00  0.00     0.208 C 
BRANCH  28  29
HETATM   29  C20 UNL     1       3.123   5.250   8.423  1.00  0.00     0.166 C 
HETATM   30  O3  UNL     1       2.433   6.008   7.757  1.00  0.00    -0.648 OA
BRANCH  29  31
HETATM   31  O4  UNL     1       3.766   4.235   7.802  1.00  0.00    -0.775 OA
HETATM   32  H26 UNL     1       3.562   4.388   6.855  1.00  0.00     0.167 HD
ENDBRANCH  29  31
ENDBRANCH  28  29
BRANCH  28  33
HETATM   33  C21 UNL     1       4.292   6.310  10.478  1.00  0.00     0.147 C 
HETATM   34  C22 UNL     1       4.066   7.681   9.845  1.00  0.00     0.042 C 
BRANCH  33  35
HETATM   35  O5  UNL     1       4.233   6.453  11.899  1.00  0.00    -0.393 OA
HETATM   36  H31 UNL     1       4.944   7.068  12.159  1.00  0.00     0.210 HD
ENDBRANCH  33  35
ENDBRANCH  28  33
ENDBRANCH  26  28
ENDBRANCH   6  26
TORSDOF 12
ENDMDL
MODEL 5
REMARK minimizedAffinity -8.7733078
REMARK  12 active torsions:
REMARK  status: ('A' for Active; 'I' for Inactive)
REMARK    1  A    between atoms: C6_6  and  C8_8 
REMARK    2  A    between atoms: C8_8  and  C9_9 
REMARK    3  A    between atoms: C9_9  and  C10_10 
REMARK    4  A    between atoms: C12_12  and  C13_13 
REMARK    5  A    between atoms: C13_13  and  C14_14 
REMARK    6  A    between atoms: C15_15  and  O1_16 
REMARK    7  A    between atoms: C18_20  and  N1_21 
REMARK    8  A    between atoms: N1_21  and  C19_22 
REMARK    9  A    between atoms: C19_22  and  C20_23 
REMARK   10  A    between atoms: C19_22  and  C21_26 
REMARK   11  A    between atoms: C20_23  and  O4_25 
REMARK   12  A    between atoms: C21_26  and  O5_28 
ROOT
HETATM    1  C14 UNL     1      -2.578   5.605  14.249  1.00  0.00     0.035 A 
HETATM    2  C15 UNL     1      -3.388   6.157  15.163  1.00  0.00     0.126 A 
HETATM    3  C16 UNL     1      -4.864   6.074  15.045  1.00  0.00     0.207 A 
HETATM    4  O2  UNL     1      -5.568   6.591  15.909  1.00  0.00    -0.285 OA
HETATM    5  C17 UNL     1      -5.433   5.397  13.876  1.00  0.00     0.091 A 
HETATM    6  C18 UNL     1      -4.672   4.814  12.944  1.00  0.00     0.084 A 
HETATM    7  C23 UNL     1      -3.169   4.837  13.121  1.00  0.00     0.207 A 
HETATM    8  O6  UNL     1      -2.465   4.210  12.329  1.00  0.00    -0.285 OA
ENDROOT
BRANCH   1   9
HETATM    9  C13 UNL     1      -1.076   5.669  14.311  1.00  0.00     0.073 C 
BRANCH   9  10
HETATM   10  C12 UNL     1      -0.502   6.550  13.228  1.00  0.00    -0.020 C 
HETATM   11  C10 UNL     1      -0.239   7.872  13.281  1.00  0.00    -0.087 C 
HETATM   12  C11 UNL     1      -0.533   8.753  14.465  1.00  0.00     0.043 C 
BRANCH  11  13
HETATM   13  C9  UNL     1       0.348   8.583  12.071  1.00  0.00     0.034 C 
BRANCH  13  14
HETATM   14  C8  UNL     1       1.880   8.467  12.006  1.00  0.00     0.014 C 
BRANCH  14  15
HETATM   15  C6  UNL     1       2.496   7.657  10.814  1.00  0.00    -0.036 C 
HETATM   16  C5  UNL     1       2.506   6.134  11.094  1.00  0.00     0.013 C 
HETATM   17  C4  UNL     1       3.152   5.312   9.976  1.00  0.00     0.028 C 
HETATM   18  C3  UNL     1       2.854   5.819   8.597  1.00  0.00    -0.024 C 
HETATM   19  C2  UNL     1       2.240   6.987   8.334  1.00  0.00    -0.083 C 
HETATM   20  C1  UNL     1       2.036   7.451   6.915  1.00  0.00     0.043 C 
HETATM   21  C24 UNL     1       1.762   7.927   9.442  1.00  0.00     0.018 C 
HETATM   22  C25 UNL     1       0.230   7.858   9.512  1.00  0.00     0.015 C 
HETATM   23  C7  UNL     1       3.962   8.168  10.683  1.00  0.00     0.016 C 
ENDBRANCH  14  15
ENDBRANCH  13  14
ENDBRANCH  11  13
ENDBRANCH   9  10
ENDBRANCH   1   9
BRANCH   2  24
HETATM   24  O1  UNL     1      -2.897   6.841  16.264  1.00  0.00    -0.356 OA
HETATM   25  H22 UNL     1      -3.693   7.129  16.762  1.00  0.00     0.218 HD
ENDBRANCH   2  24
BRANCH   6  26
HETATM   26  N1  UNL     1      -5.099   4.147  11.796  1.00  0.00    -0.370 N 
HETATM   27  H24 UNL     1      -4.298   4.012  11.166  1.00  0.00     0.160 HD
BRANCH  26  28
HETATM   28  C19 UNL     1      -6.139   3.102  11.642  1.00  0.00     0.208 C 
BRANCH  28  29
HETATM   29  C20 UNL     1      -5.557   1.700  11.425  1.00  0.00     0.166 C 
HETATM   30  O3  UNL     1      -4.397   1.339  11.564  1.00  0.00    -0.648 OA
BRANCH  29  31
HETATM   31  O4  UNL     1      -6.465   0.814  10.955  1.00  0.00    -0.775 OA
HETATM   32  H26 UNL     1      -5.949  -0.017  10.883  1.00  0.00     0.167 HD
ENDBRANCH  29  31
ENDBRANCH  28  29
BRANCH  28  33
HETATM   33  C21 UNL     1      -7.197   3.186  12.772  1.00  0.00     0.147 C 
HETATM   34  C22 UNL     1      -8.243   4.268  12.516  1.00  0.00     0.042 C 
BRANCH  33  35
HETATM   35  O5  UNL     1      -7.873   1.945  12.987  1.00  0.00    -0.393 OA
HETATM   36  H31 UNL     1      -8.443   2.056  13.769  1.00  0.00     0.210 HD
ENDBRANCH  33  35
ENDBRANCH  28  33
ENDBRANCH  26  28
ENDBRANCH   6  26
TORSDOF 12
ENDMDL
MODEL 6
REMARK minimizedAffinity -8.73626614
REMARK  12 active torsions:
REMARK  status: ('A' for Active; 'I' for Inactive)
REMARK    1  A    between atoms: C6_6  and  C8_8 
REMARK    2  A    between atoms: C8_8  and  C9_9 
REMARK    3  A    between atoms: C9_9  and  C10_10 
REMARK    4  A    between atoms: C12_12  and  C13_13 
REMARK    5  A    between atoms: C13_13  and  C14_14 
REMARK    6  A    between atoms: C15_15  and  O1_16 
REMARK    7  A    between atoms: C18_20  and  N1_21 
REMARK    8  A    between atoms: N1_21  and  C19_22 
REMARK    9  A    between atoms: C19_22  and  C20_23 
REMARK   10  A    between atoms: C19_22  and  C21_26 
REMARK   11  A    between atoms: C20_23  and  O4_25 
REMARK   12  A    between atoms: C21_26  and  O5_28 
ROOT
HETATM    1  C14 UNL     1      -3.308   3.290  11.704  1.00  0.00     0.035 A 
HETATM    2  C15 UNL     1      -2.392   2.353  11.425  1.00  0.00     0.126 A 
HETATM    3  C16 UNL     1      -0.941   2.658  11.431  1.00  0.00     0.207 A 
HETATM    4  O2  UNL     1      -0.137   1.766  11.174  1.00  0.00    -0.285 OA
HETATM    5  C17 UNL     1      -0.519   4.032  11.717  1.00  0.00     0.091 A 
HETATM    6  C18 UNL     1      -1.388   5.002  12.018  1.00  0.00     0.084 A 
HETATM    7  C23 UNL     1      -2.861   4.656  12.088  1.00  0.00     0.207 A 
HETATM    8  O6  UNL     1      -3.658   5.511  12.471  1.00  0.00    -0.285 OA
ENDROOT
BRANCH   1   9
HETATM    9  C13 UNL     1      -4.792   3.041  11.700  1.00  0.00     0.073 C 
BRANCH   9  10
HETATM   10  C12 UNL     1      -5.505   3.845  12.759  1.00  0.00    -0.020 C 
HETATM   11  C10 UNL     1      -6.736   3.644  13.273  1.00  0.00    -0.087 C 
HETATM   12  C11 UNL     1      -7.681   2.563  12.820  1.00  0.00     0.043 C 
BRANCH  11  13
HETATM   13  C9  UNL     1      -7.277   4.575  14.347  1.00  0.00     0.034 C 
BRANCH  13  14
HETATM   14  C8  UNL     1      -7.631   5.967  13.795  1.00  0.00     0.014 C 
BRANCH  14  15
HETATM   15  C6  UNL     1      -8.632   6.842  14.624  1.00  0.00    -0.036 C 
HETATM   16  C5  UNL     1      -8.192   8.326  14.681  1.00  0.00     0.013 C 
HETATM   17  C4  UNL     1      -9.115   9.203  15.530  1.00  0.00     0.028 C 
HETATM   18  C3  UNL     1     -10.568   8.856  15.409  1.00  0.00    -0.024 C 
HETATM   19  C2  UNL     1     -11.038   7.767  14.773  1.00  0.00    -0.083 C 
HETATM   20  C1  UNL     1     -12.512   7.459  14.752  1.00  0.00     0.043 C 
HETATM   21  C24 UNL     1     -10.114   6.761  14.085  1.00  0.00     0.018 C 
HETATM   22  C25 UNL     1     -10.252   6.933  12.566  1.00  0.00     0.015 C 
HETATM   23  C7  UNL     1      -8.611   6.242  16.062  1.00  0.00     0.016 C 
ENDBRANCH  14  15
ENDBRANCH  13  14
ENDBRANCH  11  13
ENDBRANCH   9  10
ENDBRANCH   1   9
BRANCH   2  24
HETATM   24  O1  UNL     1      -2.745   1.050  11.110  1.00  0.00    -0.356 OA
HETATM   25  H22 UNL     1      -1.894   0.583  10.961  1.00  0.00     0.218 HD
ENDBRANCH   2  24
BRANCH   6  26
HETATM   26  N1  UNL     1      -1.105   6.337  12.305  1.00  0.00    -0.370 N 
HETATM   27  H24 UNL     1      -1.807   6.698  12.964  1.00  0.00     0.160 HD
BRANCH  26  28
HETATM   28  C19 UNL     1       0.205   7.021  12.423  1.00  0.00     0.208 C 
BRANCH  28  29
HETATM   29  C20 UNL     1       0.245   8.376  11.706  1.00  0.00     0.166 C 
HETATM   30  O3  UNL     1      -0.334   8.698  10.679  1.00  0.00    -0.648 OA
BRANCH  29  31
HETATM   31  O4  UNL     1       1.094   9.257  12.283  1.00  0.00    -0.775 OA
HETATM   32  H26 UNL     1       0.996  10.058  11.724  1.00  0.00     0.167 HD
ENDBRANCH  29  31
ENDBRANCH  28  29
BRANCH  28  33
HETATM   33  C21 UNL     1       0.689   7.063  13.896  1.00  0.00     0.147 C 
HETATM   34  C22 UNL     1      -0.464   7.005  14.894  1.00  0.00     0.042 C 
BRANCH  33  35
HETATM   35  O5  UNL     1       1.607   6.011  14.203  1.00  0.00    -0.393 OA
HETATM   36  H31 UNL     1       1.934   6.166  15.108  1.00  0.00     0.210 HD
ENDBRANCH  33  35
ENDBRANCH  28  33
ENDBRANCH  26  28
ENDBRANCH   6  26
TORSDOF 12
ENDMDL
MODEL 7
REMARK minimizedAffinity -8.73137856
REMARK  12 active torsions:
REMARK  status: ('A' for Active; 'I' for Inactive)
REMARK    1  A    between atoms: C6_6  and  C8_8 
REMARK    2  A    between atoms: C8_8  and  C9_9 
REMARK    3  A    between atoms: C9_9  and  C10_10 
REMARK    4  A    between atoms: C12_12  and  C13_13 
REMARK    5  A    between atoms: C13_13  and  C14_14 
REMARK    6  A    between atoms: C15_15  and  O1_16 
REMARK    7  A    between atoms: C18_20  and  N1_21 
REMARK    8  A    between atoms: N1_21  and  C19_22 
REMARK    9  A    between atoms: C19_22  and  C20_23 
REMARK   10  A    between atoms: C19_22  and  C21_26 
REMARK   11  A    between atoms: C20_23  and  O4_25 
REMARK   12  A    between atoms: C21_26  and  O5_28 
ROOT
HETATM    1  C14 UNL     1      -4.027   3.723  12.503  1.00  0.00     0.035 A 
HETATM    2  C15 UNL     1      -4.722   2.718  11.955  1.00  0.00     0.126 A 
HETATM    3  C16 UNL     1      -6.205   2.700  11.969  1.00  0.00     0.207 A 
HETATM    4  O2  UNL     1      -6.802   1.759  11.451  1.00  0.00    -0.285 OA
HETATM    5  C17 UNL     1      -6.909   3.802  12.632  1.00  0.00     0.091 A 
HETATM    6  C18 UNL     1      -6.266   4.838  13.179  1.00  0.00     0.084 A 
HETATM    7  C23 UNL     1      -4.755   4.881  13.085  1.00  0.00     0.207 A 
HETATM    8  O6  UNL     1      -4.160   5.881  13.486  1.00  0.00    -0.285 OA
ENDROOT
BRANCH   1   9
HETATM    9  C13 UNL     1      -2.524   3.787  12.530  1.00  0.00     0.073 C 
BRANCH   9  10
HETATM   10  C12 UNL     1      -2.005   5.125  12.064  1.00  0.00    -0.020 C 
HETATM   11  C10 UNL     1      -1.111   5.932  12.673  1.00  0.00    -0.087 C 
HETATM   12  C11 UNL     1      -0.485   5.651  14.013  1.00  0.00     0.043 C 
BRANCH  11  13
HETATM   13  C9  UNL     1      -0.713   7.252  12.032  1.00  0.00     0.034 C 
BRANCH  13  14
HETATM   14  C8  UNL     1       0.743   7.641  12.342  1.00  0.00     0.014 C 
BRANCH  14  15
HETATM   15  C6  UNL     1       1.835   7.263  11.284  1.00  0.00    -0.036 C 
HETATM   16  C5  UNL     1       1.794   5.758  10.923  1.00  0.00     0.013 C 
HETATM   17  C4  UNL     1       2.884   5.337   9.935  1.00  0.00     0.028 C 
HETATM   18  C3  UNL     1       3.168   6.355   8.872  1.00  0.00    -0.024 C 
HETATM   19  C2  UNL     1       2.670   7.606   8.865  1.00  0.00    -0.083 C 
HETATM   20  C1  UNL     1       3.057   8.587   7.790  1.00  0.00     0.043 C 
HETATM   21  C24 UNL     1       1.731   8.117   9.960  1.00  0.00     0.018 C 
HETATM   22  C25 UNL     1       0.315   8.223   9.377  1.00  0.00     0.015 C 
HETATM   23  C7  UNL     1       3.198   7.595  11.964  1.00  0.00     0.016 C 
ENDBRANCH  14  15
ENDBRANCH  13  14
ENDBRANCH  11  13
ENDBRANCH   9  10
ENDBRANCH   1   9
BRANCH   2  24
HETATM   24  O1  UNL     1      -4.101   1.635  11.352  1.00  0.00    -0.356 OA
HETATM   25  H22 UNL     1      -4.833   1.063  11.036  1.00  0.00     0.218 HD
ENDBRANCH   2  24
BRANCH   6  26
HETATM   26  N1  UNL     1      -6.825   5.935  13.833  1.00  0.00    -0.370 N 
HETATM   27  H24 UNL     1      -6.912   6.716  13.170  1.00  0.00     0.160 HD
BRANCH  26  28
HETATM   28  C19 UNL     1      -7.843   5.975  14.911  1.00  0.00     0.208 C 
BRANCH  28  29
HETATM   29  C20 UNL     1      -7.279   6.448  16.255  1.00  0.00     0.166 C 
HETATM   30  O3  UNL     1      -7.795   7.212  17.058  1.00  0.00    -0.648 OA
BRANCH  29  31
HETATM   31  O4  UNL     1      -6.028   5.993  16.497  1.00  0.00    -0.775 OA
HETATM   32  H26 UNL     1      -5.821   6.368  17.379  1.00  0.00     0.167 HD
ENDBRANCH  29  31
ENDBRANCH  28  29
BRANCH  28  33
HETATM   33  C21 UNL     1      -9.121   6.726  14.454  1.00  0.00     0.147 C 
HETATM   34  C22 UNL     1      -9.628   6.247  13.096  1.00  0.00     0.042 C 
BRANCH  33  35
HETATM   35  O5  UNL     1     -10.189   6.619  15.398  1.00  0.00    -0.393 OA
HETATM   36  H31 UNL     1     -10.912   7.193  15.086  1.00  0.00     0.210 HD
ENDBRANCH  33  35
ENDBRANCH  28  33
ENDBRANCH  26  28
ENDBRANCH   6  26
TORSDOF 12
ENDMDL
MODEL 8
REMARK minimizedAffinity -8.70575714
REMARK  12 active torsions:
REMARK  status: ('A' for Active; 'I' for Inactive)
REMARK    1  A    between atoms: C6_6  and  C8_8 
REMARK    2  A    between atoms: C8_8  and  C9_9 
REMARK    3  A    between atoms: C9_9  and  C10_10 
REMARK    4  A    between atoms: C12_12  and  C13_13 
REMARK    5  A    between atoms: C13_13  and  C14_14 
REMARK    6  A    between atoms: C15_15  and  O1_16 
REMARK    7  A    between atoms: C18_20  and  N1_21 
REMARK    8  A    between atoms: N1_21  and  C19_22 
REMARK    9  A    between atoms: C19_22  and  C20_23 
REMARK   10  A    between atoms: C19_22  and  C21_26 
REMARK   11  A    between atoms: C20_23  and  O4_25 
REMARK   12  A    between atoms: C21_26  and  O5_28 
ROOT
HETATM    1  C14 UNL     1      -3.162   3.050  11.768  1.00  0.00     0.035 A 
HETATM    2  C15 UNL     1      -2.032   2.431  11.401  1.00  0.00     0.126 A 
HETATM    3  C16 UNL     1      -0.707   3.079  11.548  1.00  0.00     0.207 A 
HETATM    4  O2  UNL     1       0.304   2.472  11.202  1.00  0.00    -0.285 OA
HETATM    5  C17 UNL     1      -0.654   4.444  12.080  1.00  0.00     0.091 A 
HETATM    6  C18 UNL     1      -1.748   5.102  12.478  1.00  0.00     0.084 A 
HETATM    7  C23 UNL     1      -3.085   4.396  12.396  1.00  0.00     0.207 A 
HETATM    8  O6  UNL     1      -4.081   4.948  12.861  1.00  0.00    -0.285 OA
ENDROOT
BRANCH   1   9
HETATM    9  C13 UNL     1      -4.533   2.446  11.629  1.00  0.00     0.073 C 
BRANCH   9  10
HETATM   10  C12 UNL     1      -5.616   3.383  12.106  1.00  0.00    -0.020 C 
HETATM   11  C10 UNL     1      -6.846   3.073  12.564  1.00  0.00    -0.087 C 
HETATM   12  C11 UNL     1      -7.402   1.676  12.633  1.00  0.00     0.043 C 
BRANCH  11  13
HETATM   13  C9  UNL     1      -7.799   4.175  13.003  1.00  0.00     0.034 C 
BRANCH  13  14
HETATM   14  C8  UNL     1      -7.073   5.330  13.714  1.00  0.00     0.014 C 
BRANCH  14  15
HETATM   15  C6  UNL     1      -7.950   6.355  14.512  1.00  0.00    -0.036 C 
HETATM   16  C5  UNL     1      -7.326   7.772  14.514  1.00  0.00     0.013 C 
HETATM   17  C4  UNL     1      -8.125   8.789  15.331  1.00  0.00     0.028 C 
HETATM   18  C3  UNL     1      -9.610   8.626  15.224  1.00  0.00    -0.024 C 
HETATM   19  C2  UNL     1     -10.218   7.582  14.629  1.00  0.00    -0.083 C 
HETATM   20  C1  UNL     1     -11.720   7.464  14.621  1.00  0.00     0.043 C 
HETATM   21  C24 UNL     1      -9.433   6.443  13.978  1.00  0.00     0.018 C 
HETATM   22  C25 UNL     1      -9.557   6.576  12.453  1.00  0.00     0.015 C 
HETATM   23  C7  UNL     1      -7.997   5.809  15.971  1.00  0.00     0.016 C 
ENDBRANCH  14  15
ENDBRANCH  13  14
ENDBRANCH  11  13
ENDBRANCH   9  10
ENDBRANCH   1   9
BRANCH   2  24
HETATM   24  O1  UNL     1      -2.035   1.156  10.857  1.00  0.00    -0.356 OA
HETATM   25  H22 UNL     1      -1.090   0.946  10.689  1.00  0.00     0.218 HD
ENDBRANCH   2  24
BRANCH   6  26
HETATM   26  N1  UNL     1      -1.820   6.396  12.994  1.00  0.00    -0.370 N 
HETATM   27  H24 UNL     1      -1.370   7.047  12.338  1.00  0.00     0.160 HD
BRANCH  26  28
HETATM   28  C19 UNL     1      -2.887   7.032  13.803  1.00  0.00     0.208 C 
BRANCH  28  29
HETATM   29  C20 UNL     1      -2.657   6.901  15.313  1.00  0.00     0.166 C 
HETATM   30  O3  UNL     1      -1.829   7.482  16.000  1.00  0.00    -0.648 OA
BRANCH  29  31
HETATM   31  O4  UNL     1      -3.444   5.964  15.891  1.00  0.00    -0.775 OA
HETATM   32  H26 UNL     1      -3.188   6.011  16.837  1.00  0.00     0.167 HD
ENDBRANCH  29  31
ENDBRANCH  28  29
BRANCH  28  33
HETATM   33  C21 UNL     1      -3.172   8.479  13.324  1.00  0.00     0.147 C 
HETATM   34  C22 UNL     1      -2.070   9.024  12.419  1.00  0.00     0.042 C 
BRANCH  33  35
HETATM   35  O5  UNL     1      -4.420   8.594  12.635  1.00  0.00    -0.393 OA
HETATM   36  H31 UNL     1      -4.567   9.540  12.456  1.00  0.00     0.210 HD
ENDBRANCH  33  35
ENDBRANCH  28  33
ENDBRANCH  26  28
ENDBRANCH   6  26
TORSDOF 12
ENDMDL
MODEL 9
REMARK minimizedAffinity -8.64700794
REMARK  12 active torsions:
REMARK  status: ('A' for Active; 'I' for Inactive)
REMARK    1  A    between atoms: C6_6  and  C8_8 
REMARK    2  A    between atoms: C8_8  and  C9_9 
REMARK    3  A    between atoms: C9_9  and  C10_10 
REMARK    4  A    between atoms: C12_12  and  C13_13 
REMARK    5  A    between atoms: C13_13  and  C14_14 
REMARK    6  A    between atoms: C15_15  and  O1_16 
REMARK    7  A    between atoms: C18_20  and  N1_21 
REMARK    8  A    between atoms: N1_21  and  C19_22 
REMARK    9  A    between atoms: C19_22  and  C20_23 
REMARK   10  A    between atoms: C19_22  and  C21_26 
REMARK   11  A    between atoms: C20_23  and  O4_25 
REMARK   12  A    between atoms: C21_26  and  O5_28 
ROOT
HETATM    1  C14 UNL     1      -4.678   3.221  11.835  1.00  0.00     0.035 A 
HETATM    2  C15 UNL     1      -5.664   2.316  11.770  1.00  0.00     0.126 A 
HETATM    3  C16 UNL     1      -6.936   2.498  12.509  1.00  0.00     0.207 A 
HETATM    4  O2  UNL     1      -7.814   1.644  12.417  1.00  0.00    -0.285 OA
HETATM    5  C17 UNL     1      -7.088   3.686  13.354  1.00  0.00     0.091 A 
HETATM    6  C18 UNL     1      -6.144   4.629  13.442  1.00  0.00     0.084 A 
HETATM    7  C23 UNL     1      -4.884   4.469  12.618  1.00  0.00     0.207 A 
HETATM    8  O6  UNL     1      -4.058   5.381  12.605  1.00  0.00    -0.285 OA
ENDROOT
BRANCH   1   9
HETATM    9  C13 UNL     1      -3.362   3.082  11.118  1.00  0.00     0.073 C 
BRANCH   9  10
HETATM   10  C12 UNL     1      -2.545   4.349  11.182  1.00  0.00    -0.020 C 
HETATM   11  C10 UNL     1      -1.225   4.479  11.426  1.00  0.00    -0.087 C 
HETATM   12  C11 UNL     1      -0.301   3.334  11.744  1.00  0.00     0.043 C 
BRANCH  11  13
HETATM   13  C9  UNL     1      -0.584   5.858  11.447  1.00  0.00     0.034 C 
BRANCH  13  14
HETATM   14  C8  UNL     1       0.927   5.800  11.731  1.00  0.00     0.014 C 
BRANCH  14  15
HETATM   15  C6  UNL     1       1.895   6.330  10.619  1.00  0.00    -0.036 C 
HETATM   16  C5  UNL     1       1.123   6.869   9.389  1.00  0.00     0.013 C 
HETATM   17  C4  UNL     1       2.035   7.344   8.256  1.00  0.00     0.028 C 
HETATM   18  C3  UNL     1       3.277   8.039   8.724  1.00  0.00    -0.024 C 
HETATM   19  C2  UNL     1       3.680   8.093  10.008  1.00  0.00    -0.083 C 
HETATM   20  C1  UNL     1       4.976   8.760  10.385  1.00  0.00     0.043 C 
HETATM   21  C24 UNL     1       2.881   7.447  11.141  1.00  0.00     0.018 C 
HETATM   22  C25 UNL     1       2.212   8.559  11.961  1.00  0.00     0.015 C 
HETATM   23  C7  UNL     1       2.748   5.097  10.194  1.00  0.00     0.016 C 
ENDBRANCH  14  15
ENDBRANCH  13  14
ENDBRANCH  11  13
ENDBRANCH   9  10
ENDBRANCH   1   9
BRANCH   2  24
HETATM   24  O1  UNL     1      -5.551   1.158  11.016  1.00  0.00    -0.356 OA
HETATM   25  H22 UNL     1      -6.404   0.688  11.140  1.00  0.00     0.218 HD
ENDBRANCH   2  24
BRANCH   6  26
HETATM   26  N1  UNL     1      -6.176   5.794  14.209  1.00  0.00    -0.370 N 
HETATM   27  H24 UNL     1      -5.218   6.146  14.328  1.00  0.00     0.160 HD
BRANCH  26  28
HETATM   28  C19 UNL     1      -7.199   6.866  14.255  1.00  0.00     0.208 C 
BRANCH  28  29
HETATM   29  C20 UNL     1      -8.631   6.329  14.361  1.00  0.00     0.166 C 
HETATM   30  O3  UNL     1      -9.508   6.357  13.510  1.00  0.00    -0.648 OA
BRANCH  29  31
HETATM   31  O4  UNL     1      -8.927   5.845  15.589  1.00  0.00    -0.775 OA
HETATM   32  H26 UNL     1      -9.853   5.538  15.491  1.00  0.00     0.167 HD
ENDBRANCH  29  31
ENDBRANCH  28  29
BRANCH  28  33
HETATM   33  C21 UNL     1      -6.840   7.943  15.311  1.00  0.00     0.147 C 
HETATM   34  C22 UNL     1      -7.824   9.111  15.314  1.00  0.00     0.042 C 
BRANCH  33  35
HETATM   35  O5  UNL     1      -6.767   7.411  16.636  1.00  0.00    -0.393 OA
HETATM   36  H31 UNL     1      -6.444   8.123  17.218  1.00  0.00     0.210 HD
ENDBRANCH  33  35
ENDBRANCH  28  33
ENDBRANCH  26  28
ENDBRANCH   6  26
TORSDOF 12
ENDMDL
