MODEL 1
REMARK minimizedAffinity -7.69461155
REMARK CNNscore 0.827365816
REMARK CNNaffinity 5.83576155
REMARK  3 active torsions:
REMARK  status: ('A' for Active; 'I' for Inactive)
REMARK    1  A    between atoms: C4_5  and  C5_6 
REMARK    2  A    between atoms: N2_9  and  C6_10 
REMARK    3  A    between atoms: C12_16  and  C13_17 
ROOT
HETATM    1  C5  UNL     1      17.188  52.229   5.423  1.00  0.00     0.038 C 
HETATM    2  N1  UNL     1      16.698  51.048   5.654  1.00  0.00    -0.301 N 
ATOM      3  H1  UNL     1      15.717  50.776   5.587  1.00  0.00     0.187 HD
HETATM    4  N2  UNL     1      17.744  50.240   6.004  1.00  0.00    -0.283 N 
HETATM    5  C12 UNL     1      19.006  50.968   6.155  1.00  0.00     0.147 C 
HETATM    6  C23 UNL     1      18.686  52.329   5.530  1.00  0.00     0.091 C 
ENDROOT
BRANCH   5   7
HETATM    7  C13 UNL     1      19.450  51.131   7.602  1.00  0.00    -0.032 A 
HETATM    8  C14 UNL     1      20.133  50.082   8.235  1.00  0.00     0.010 A 
HETATM    9  C15 UNL     1      20.576  50.213   9.553  1.00  0.00     0.013 A 
HETATM   10  C16 UNL     1      20.355  51.396  10.272  1.00  0.00    -0.026 A 
HETATM   11  C17 UNL     1      20.791  51.541  11.599  1.00  0.00     0.012 A 
HETATM   12  C21 UNL     1      19.676  52.465   9.647  1.00  0.00    -0.025 A 
HETATM   13  C18 UNL     1      20.560  52.726  12.301  1.00  0.00     0.001 A 
HETATM   14  C19 UNL     1      19.891  53.779  11.684  1.00  0.00     0.001 A 
HETATM   15  C20 UNL     1      19.452  53.651  10.365  1.00  0.00     0.012 A 
HETATM   16  C22 UNL     1      19.237  52.320   8.320  1.00  0.00     0.021 A 
ENDBRANCH   5   7
BRANCH   4  17
HETATM   17  C6  UNL     1      17.569  48.865   6.151  1.00  0.00     0.051 A 
HETATM   18  C7  UNL     1      16.291  48.288   6.055  1.00  0.00     0.031 A 
HETATM   19  C8  UNL     1      16.086  46.911   6.202  1.00  0.00     0.002 A 
HETATM   20  C9  UNL     1      17.166  46.072   6.452  1.00  0.00     0.000 A 
HETATM   21  C10 UNL     1      18.443  46.611   6.552  1.00  0.00     0.002 A 
HETATM   22  C11 UNL     1      18.639  47.991   6.402  1.00  0.00     0.031 A 
ENDBRANCH   4  17
BRANCH   1  23
HETATM   23  C4  UNL     1      16.351  53.393   5.051  1.00  0.00    -0.012 A 
HETATM   24  C3  UNL     1      16.905  54.534   4.460  1.00  0.00     0.015 A 
HETATM   25  C2  UNL     1      16.086  55.617   4.126  1.00  0.00     0.024 A 
HETATM   26  C1  UNL     1      14.716  55.559   4.380  1.00  0.00     0.034 A 
HETATM   27 CL1  UNL     1      13.712  56.894   3.969  1.00  0.00    -0.084 Cl
HETATM   28  C25 UNL     1      14.156  54.426   4.967  1.00  0.00     0.024 A 
HETATM   29  C24 UNL     1      14.972  53.342   5.298  1.00  0.00     0.015 A 
ENDBRANCH   1  23
TORSDOF 3
ENDMDL
MODEL 2
REMARK minimizedAffinity -7.75441837
REMARK CNNscore 0.808055937
REMARK CNNaffinity 5.94150162
REMARK  3 active torsions:
REMARK  status: ('A' for Active; 'I' for Inactive)
REMARK    1  A    between atoms: C4_5  and  C5_6 
REMARK    2  A    between atoms: N2_9  and  C6_10 
REMARK    3  A    between atoms: C12_16  and  C13_17 
ROOT
HETATM    1  C5  UNL     1      17.169  52.219   5.426  1.00  0.00     0.038 C 
HETATM    2  N1  UNL     1      16.705  51.035   5.691  1.00  0.00    -0.301 N 
ATOM      3  H1  UNL     1      15.727  50.747   5.660  1.00  0.00     0.187 HD
HETATM    4  N2  UNL     1      17.774  50.249   6.020  1.00  0.00    -0.283 N 
HETATM    5  C12 UNL     1      19.028  50.997   6.117  1.00  0.00     0.147 C 
HETATM    6  C23 UNL     1      18.667  52.343   5.482  1.00  0.00     0.091 C 
ENDROOT
BRANCH   5   7
HETATM    7  C13 UNL     1      19.517  51.191   7.546  1.00  0.00    -0.032 A 
HETATM    8  C14 UNL     1      19.085  52.308   8.277  1.00  0.00     0.010 A 
HETATM    9  C15 UNL     1      19.496  52.498   9.598  1.00  0.00     0.013 A 
HETATM   10  C16 UNL     1      20.345  51.576  10.227  1.00  0.00    -0.026 A 
HETATM   11  C17 UNL     1      20.770  51.755  11.554  1.00  0.00     0.012 A 
HETATM   12  C21 UNL     1      20.784  50.442   9.508  1.00  0.00    -0.025 A 
HETATM   13  C18 UNL     1      21.618  50.828  12.162  1.00  0.00     0.001 A 
HETATM   14  C19 UNL     1      22.050  49.712  11.454  1.00  0.00     0.001 A 
HETATM   15  C20 UNL     1      21.636  49.518  10.134  1.00  0.00     0.012 A 
HETATM   16  C22 UNL     1      20.361  50.263   8.180  1.00  0.00     0.021 A 
ENDBRANCH   5   7
BRANCH   4  17
HETATM   17  C6  UNL     1      17.625  48.874   6.195  1.00  0.00     0.051 A 
HETATM   18  C7  UNL     1      16.378  48.254   6.004  1.00  0.00     0.031 A 
HETATM   19  C8  UNL     1      16.199  46.877   6.177  1.00  0.00     0.002 A 
HETATM   20  C9  UNL     1      17.275  46.079   6.548  1.00  0.00     0.000 A 
HETATM   21  C10 UNL     1      18.522  46.660   6.744  1.00  0.00     0.002 A 
HETATM   22  C11 UNL     1      18.692  48.041   6.567  1.00  0.00     0.031 A 
ENDBRANCH   4  17
BRANCH   1  23
HETATM   23  C4  UNL     1      16.302  53.364   5.063  1.00  0.00    -0.012 A 
HETATM   24  C3  UNL     1      14.924  53.344   5.307  1.00  0.00     0.015 A 
HETATM   25  C2  UNL     1      14.134  54.440   4.947  1.00  0.00     0.024 A 
HETATM   26  C1  UNL     1      14.719  55.554   4.346  1.00  0.00     0.034 A 
HETATM   27 CL1  UNL     1      13.743  56.899   3.904  1.00  0.00    -0.084 Cl
HETATM   28  C25 UNL     1      16.091  55.582   4.101  1.00  0.00     0.024 A 
HETATM   29  C24 UNL     1      16.882  54.490   4.463  1.00  0.00     0.015 A 
ENDBRANCH   1  23
TORSDOF 3
ENDMDL
MODEL 3
REMARK minimizedAffinity -6.96877527
REMARK CNNscore 0.548502743
REMARK CNNaffinity 5.36117935
REMARK  3 active torsions:
REMARK  status: ('A' for Active; 'I' for Inactive)
REMARK    1  A    between atoms: C4_5  and  C5_6 
REMARK    2  A    between atoms: N2_9  and  C6_10 
REMARK    3  A    between atoms: C12_16  and  C13_17 
ROOT
HETATM    1  C5  UNL     1      15.788  54.691   4.464  1.00  0.00     0.038 C 
HETATM    2  N1  UNL     1      16.071  55.229   3.317  1.00  0.00    -0.301 N 
ATOM      3  H1  UNL     1      16.943  55.125   2.797  1.00  0.00     0.187 HD
HETATM    4  N2  UNL     1      14.981  55.962   2.936  1.00  0.00    -0.283 N 
HETATM    5  C12 UNL     1      13.948  56.032   3.971  1.00  0.00     0.147 C 
HETATM    6  C23 UNL     1      14.395  54.958   4.966  1.00  0.00     0.091 C 
ENDROOT
BRANCH   5   7
HETATM    7  C13 UNL     1      13.852  57.390   4.651  1.00  0.00    -0.032 A 
HETATM    8  C14 UNL     1      14.372  57.551   5.944  1.00  0.00     0.010 A 
HETATM    9  C15 UNL     1      14.323  58.792   6.583  1.00  0.00     0.013 A 
HETATM   10  C16 UNL     1      13.758  59.907   5.947  1.00  0.00    -0.026 A 
HETATM   11  C17 UNL     1      13.698  61.160   6.578  1.00  0.00     0.012 A 
HETATM   12  C21 UNL     1      13.237  59.764   4.642  1.00  0.00    -0.025 A 
HETATM   13  C18 UNL     1      13.129  62.258   5.930  1.00  0.00     0.001 A 
HETATM   14  C19 UNL     1      12.616  62.117   4.644  1.00  0.00     0.001 A 
HETATM   15  C20 UNL     1      12.669  60.878   4.003  1.00  0.00     0.012 A 
HETATM   16  C22 UNL     1      13.295  58.510   4.011  1.00  0.00     0.021 A 
ENDBRANCH   5   7
BRANCH   4  17
HETATM   17  C6  UNL     1      14.906  56.528   1.664  1.00  0.00     0.051 A 
HETATM   18  C7  UNL     1      13.767  56.347   0.861  1.00  0.00     0.031 A 
HETATM   19  C8  UNL     1      13.667  56.900  -0.420  1.00  0.00     0.002 A 
HETATM   20  C9  UNL     1      14.716  57.654  -0.934  1.00  0.00     0.000 A 
HETATM   21  C10 UNL     1      15.857  57.852  -0.165  1.00  0.00     0.002 A 
HETATM   22  C11 UNL     1      15.947  57.296   1.118  1.00  0.00     0.031 A 
ENDBRANCH   4  17
BRANCH   1  23
HETATM   23  C4  UNL     1      16.744  53.849   5.220  1.00  0.00    -0.012 A 
HETATM   24  C3  UNL     1      17.776  54.414   5.978  1.00  0.00     0.015 A 
HETATM   25  C2  UNL     1      18.665  53.590   6.675  1.00  0.00     0.024 A 
HETATM   26  C1  UNL     1      18.521  52.204   6.616  1.00  0.00     0.034 A 
HETATM   27 CL1  UNL     1      19.618  51.194   7.474  1.00  0.00    -0.084 Cl
HETATM   28  C25 UNL     1      17.496  51.633   5.865  1.00  0.00     0.024 A 
HETATM   29  C24 UNL     1      16.605  52.455   5.171  1.00  0.00     0.015 A 
ENDBRANCH   1  23
TORSDOF 3
ENDMDL
MODEL 4
REMARK minimizedAffinity -7.89826584
REMARK CNNscore 0.537122488
REMARK CNNaffinity 5.26631308
REMARK  3 active torsions:
REMARK  status: ('A' for Active; 'I' for Inactive)
REMARK    1  A    between atoms: C4_5  and  C5_6 
REMARK    2  A    between atoms: N2_9  and  C6_10 
REMARK    3  A    between atoms: C12_16  and  C13_17 
ROOT
HETATM    1  C5  UNL     1      13.475  58.909   5.523  1.00  0.00     0.038 C 
HETATM    2  N1  UNL     1      12.896  58.592   4.405  1.00  0.00    -0.301 N 
ATOM      3  H1  UNL     1      11.908  58.711   4.179  1.00  0.00     0.187 HD
HETATM    4  N2  UNL     1      13.860  58.070   3.587  1.00  0.00    -0.283 N 
HETATM    5  C12 UNL     1      15.148  57.895   4.258  1.00  0.00     0.147 C 
HETATM    6  C23 UNL     1      14.963  58.689   5.554  1.00  0.00     0.091 C 
ENDROOT
BRANCH   5   7
HETATM    7  C13 UNL     1      15.490  56.443   4.561  1.00  0.00    -0.032 A 
HETATM    8  C14 UNL     1      14.469  55.560   4.944  1.00  0.00     0.010 A 
HETATM    9  C15 UNL     1      14.748  54.216   5.203  1.00  0.00     0.013 A 
HETATM   10  C16 UNL     1      16.052  53.716   5.081  1.00  0.00    -0.026 A 
HETATM   11  C17 UNL     1      16.349  52.368   5.340  1.00  0.00     0.012 A 
HETATM   12  C21 UNL     1      17.091  54.589   4.688  1.00  0.00    -0.025 A 
HETATM   13  C18 UNL     1      17.655  51.889   5.216  1.00  0.00     0.001 A 
HETATM   14  C19 UNL     1      18.677  52.749   4.829  1.00  0.00     0.001 A 
HETATM   15  C20 UNL     1      18.398  54.092   4.566  1.00  0.00     0.012 A 
HETATM   16  C22 UNL     1      16.795  55.939   4.429  1.00  0.00     0.021 A 
ENDBRANCH   5   7
BRANCH   4  17
HETATM   17  C6  UNL     1      13.588  57.789   2.249  1.00  0.00     0.051 A 
HETATM   18  C7  UNL     1      13.233  58.815   1.355  1.00  0.00     0.031 A 
HETATM   19  C8  UNL     1      12.951  58.561   0.008  1.00  0.00     0.002 A 
HETATM   20  C9  UNL     1      13.018  57.261  -0.482  1.00  0.00     0.000 A 
HETATM   21  C10 UNL     1      13.368  56.224   0.376  1.00  0.00     0.002 A 
HETATM   22  C11 UNL     1      13.650  56.489   1.723  1.00  0.00     0.031 A 
ENDBRANCH   4  17
BRANCH   1  23
HETATM   23  C4  UNL     1      12.743  59.474   6.680  1.00  0.00    -0.012 A 
HETATM   24  C3  UNL     1      12.957  59.004   7.981  1.00  0.00     0.015 A 
HETATM   25  C2  UNL     1      12.245  59.557   9.051  1.00  0.00     0.024 A 
HETATM   26  C1  UNL     1      11.323  60.578   8.820  1.00  0.00     0.034 A 
HETATM   27 CL1  UNL     1      10.449  61.254  10.138  1.00  0.00    -0.084 Cl
HETATM   28  C25 UNL     1      11.106  61.053   7.528  1.00  0.00     0.024 A 
HETATM   29  C24 UNL     1      11.819  60.504   6.460  1.00  0.00     0.015 A 
ENDBRANCH   1  23
TORSDOF 3
ENDMDL
MODEL 5
REMARK minimizedAffinity -6.37354708
REMARK CNNscore 0.512077332
REMARK CNNaffinity 5.14953232
REMARK  3 active torsions:
REMARK  status: ('A' for Active; 'I' for Inactive)
REMARK    1  A    between atoms: C4_5  and  C5_6 
REMARK    2  A    between atoms: N2_9  and  C6_10 
REMARK    3  A    between atoms: C12_16  and  C13_17 
ROOT
HETATM    1  C5  UNL     1      13.063  63.087   4.911  1.00  0.00     0.038 C 
HETATM    2  N1  UNL     1      12.781  63.047   6.178  1.00  0.00    -0.301 N 
ATOM      3  H1  UNL     1      12.981  63.771   6.867  1.00  0.00     0.187 HD
HETATM    4  N2  UNL     1      12.165  61.849   6.413  1.00  0.00    -0.283 N 
HETATM    5  C12 UNL     1      12.161  60.966   5.246  1.00  0.00     0.147 C 
HETATM    6  C23 UNL     1      12.586  61.904   4.113  1.00  0.00     0.091 C 
ENDROOT
BRANCH   5   7
HETATM    7  C13 UNL     1      13.124  59.792   5.362  1.00  0.00    -0.032 A 
HETATM    8  C14 UNL     1      13.994  59.720   6.460  1.00  0.00     0.010 A 
HETATM    9  C15 UNL     1      14.869  58.642   6.606  1.00  0.00     0.013 A 
HETATM   10  C16 UNL     1      14.897  57.604   5.663  1.00  0.00    -0.026 A 
HETATM   11  C17 UNL     1      15.773  56.515   5.795  1.00  0.00     0.012 A 
HETATM   12  C21 UNL     1      14.021  57.657   4.556  1.00  0.00    -0.025 A 
HETATM   13  C18 UNL     1      15.788  55.492   4.845  1.00  0.00     0.001 A 
HETATM   14  C19 UNL     1      14.926  55.545   3.754  1.00  0.00     0.001 A 
HETATM   15  C20 UNL     1      14.047  56.620   3.609  1.00  0.00     0.012 A 
HETATM   16  C22 UNL     1      13.145  58.747   4.422  1.00  0.00     0.021 A 
ENDBRANCH   5   7
BRANCH   4  17
HETATM   17  C6  UNL     1      11.586  61.572   7.651  1.00  0.00     0.051 A 
HETATM   18  C7  UNL     1      10.775  60.438   7.830  1.00  0.00     0.031 A 
HETATM   19  C8  UNL     1      10.179  60.139   9.060  1.00  0.00     0.002 A 
HETATM   20  C9  UNL     1      10.381  60.976  10.151  1.00  0.00     0.000 A 
HETATM   21  C10 UNL     1      11.178  62.106  10.008  1.00  0.00     0.002 A 
HETATM   22  C11 UNL     1      11.772  62.397   8.772  1.00  0.00     0.031 A 
ENDBRANCH   4  17
BRANCH   1  23
HETATM   23  C4  UNL     1      13.774  64.223   4.278  1.00  0.00    -0.012 A 
HETATM   24  C3  UNL     1      13.932  65.446   4.938  1.00  0.00     0.015 A 
HETATM   25  C2  UNL     1      14.605  66.499   4.310  1.00  0.00     0.024 A 
HETATM   26  C1  UNL     1      15.121  66.328   3.025  1.00  0.00     0.034 A 
HETATM   27 CL1  UNL     1      15.946  67.626   2.256  1.00  0.00    -0.084 Cl
HETATM   28  C25 UNL     1      14.970  65.112   2.362  1.00  0.00     0.024 A 
HETATM   29  C24 UNL     1      14.301  64.059   2.989  1.00  0.00     0.015 A 
ENDBRANCH   1  23
TORSDOF 3
ENDMDL
MODEL 6
REMARK minimizedAffinity -7.90280151
REMARK CNNscore 0.485087812
REMARK CNNaffinity 5.11839819
REMARK  3 active torsions:
REMARK  status: ('A' for Active; 'I' for Inactive)
REMARK    1  A    between atoms: C4_5  and  C5_6 
REMARK    2  A    between atoms: N2_9  and  C6_10 
REMARK    3  A    between atoms: C12_16  and  C13_17 
ROOT
HETATM    1  C5  UNL     1      13.147  57.587   0.497  1.00  0.00     0.038 C 
HETATM    2  N1  UNL     1      13.260  56.578   1.308  1.00  0.00    -0.301 N 
ATOM      3  H1  UNL     1      12.808  55.669   1.211  1.00  0.00     0.187 HD
HETATM    4  N2  UNL     1      14.099  56.967   2.316  1.00  0.00    -0.283 N 
HETATM    5  C12 UNL     1      14.461  58.383   2.248  1.00  0.00     0.147 C 
HETATM    6  C23 UNL     1      13.986  58.785   0.849  1.00  0.00     0.091 C 
ENDROOT
BRANCH   5   7
HETATM    7  C13 UNL     1      13.787  59.240   3.312  1.00  0.00    -0.032 A 
HETATM    8  C14 UNL     1      13.208  60.464   2.945  1.00  0.00     0.010 A 
HETATM    9  C15 UNL     1      12.560  61.259   3.894  1.00  0.00     0.013 A 
HETATM   10  C16 UNL     1      12.470  60.851   5.233  1.00  0.00    -0.026 A 
HETATM   11  C17 UNL     1      11.826  61.640   6.199  1.00  0.00     0.012 A 
HETATM   12  C21 UNL     1      13.042  59.617   5.617  1.00  0.00    -0.025 A 
HETATM   13  C18 UNL     1      11.748  61.219   7.528  1.00  0.00     0.001 A 
HETATM   14  C19 UNL     1      12.311  60.004   7.906  1.00  0.00     0.001 A 
HETATM   15  C20 UNL     1      12.954  59.207   6.957  1.00  0.00     0.012 A 
HETATM   16  C22 UNL     1      13.688  58.827   4.651  1.00  0.00     0.021 A 
ENDBRANCH   5   7
BRANCH   4  17
HETATM   17  C6  UNL     1      14.556  56.049   3.260  1.00  0.00     0.051 A 
HETATM   18  C7  UNL     1      15.933  55.861   3.475  1.00  0.00     0.031 A 
HETATM   19  C8  UNL     1      16.419  54.944   4.413  1.00  0.00     0.002 A 
HETATM   20  C9  UNL     1      15.531  54.185   5.167  1.00  0.00     0.000 A 
HETATM   21  C10 UNL     1      14.163  54.347   4.979  1.00  0.00     0.002 A 
HETATM   22  C11 UNL     1      13.685  55.269   4.038  1.00  0.00     0.031 A 
ENDBRANCH   4  17
BRANCH   1  23
HETATM   23  C4  UNL     1      12.284  57.562  -0.707  1.00  0.00    -0.012 A 
HETATM   24  C3  UNL     1      12.224  58.649  -1.587  1.00  0.00     0.015 A 
HETATM   25  C2  UNL     1      11.395  58.594  -2.712  1.00  0.00     0.024 A 
HETATM   26  C1  UNL     1      10.629  57.454  -2.958  1.00  0.00     0.034 A 
HETATM   27 CL1  UNL     1       9.609  57.392  -4.341  1.00  0.00    -0.084 Cl
HETATM   28  C25 UNL     1      10.685  56.367  -2.088  1.00  0.00     0.024 A 
HETATM   29  C24 UNL     1      11.515  56.419  -0.966  1.00  0.00     0.015 A 
ENDBRANCH   1  23
TORSDOF 3
ENDMDL
MODEL 7
REMARK minimizedAffinity -7.28602886
REMARK CNNscore 0.478824317
REMARK CNNaffinity 4.98111916
REMARK  3 active torsions:
REMARK  status: ('A' for Active; 'I' for Inactive)
REMARK    1  A    between atoms: C4_5  and  C5_6 
REMARK    2  A    between atoms: N2_9  and  C6_10 
REMARK    3  A    between atoms: C12_16  and  C13_17 
ROOT
HETATM    1  C5  UNL     1       4.676  65.091  -5.046  1.00  0.00     0.038 C 
HETATM    2  N1  UNL     1       4.659  65.174  -6.342  1.00  0.00    -0.301 N 
ATOM      3  H1  UNL     1       3.835  65.292  -6.931  1.00  0.00     0.187 HD
HETATM    4  N2  UNL     1       5.955  65.073  -6.768  1.00  0.00    -0.283 N 
HETATM    5  C12 UNL     1       6.891  64.759  -5.687  1.00  0.00     0.147 C 
HETATM    6  C23 UNL     1       6.046  64.991  -4.432  1.00  0.00     0.091 C 
ENDROOT
BRANCH   5   7
HETATM    7  C13 UNL     1       7.415  63.330  -5.726  1.00  0.00    -0.032 A 
HETATM    8  C14 UNL     1       6.603  62.285  -5.260  1.00  0.00     0.010 A 
HETATM    9  C15 UNL     1       7.046  60.961  -5.308  1.00  0.00     0.013 A 
HETATM   10  C16 UNL     1       8.310  60.644  -5.826  1.00  0.00    -0.026 A 
HETATM   11  C17 UNL     1       8.771  59.319  -5.878  1.00  0.00     0.012 A 
HETATM   12  C21 UNL     1       9.137  61.684  -6.308  1.00  0.00    -0.025 A 
HETATM   13  C18 UNL     1      10.034  59.023  -6.396  1.00  0.00     0.001 A 
HETATM   14  C19 UNL     1      10.848  60.047  -6.870  1.00  0.00     0.001 A 
HETATM   15  C20 UNL     1      10.403  61.370  -6.827  1.00  0.00     0.012 A 
HETATM   16  C22 UNL     1       8.677  63.010  -6.255  1.00  0.00     0.021 A 
ENDBRANCH   5   7
BRANCH   4  17
HETATM   17  C6  UNL     1       6.289  65.295  -8.103  1.00  0.00     0.051 A 
HETATM   18  C7  UNL     1       5.372  65.015  -9.131  1.00  0.00     0.031 A 
HETATM   19  C8  UNL     1       5.683  65.224 -10.479  1.00  0.00     0.002 A 
HETATM   20  C9  UNL     1       6.931  65.723 -10.834  1.00  0.00     0.000 A 
HETATM   21  C10 UNL     1       7.860  66.011  -9.841  1.00  0.00     0.002 A 
HETATM   22  C11 UNL     1       7.540  65.800  -8.493  1.00  0.00     0.031 A 
ENDBRANCH   4  17
BRANCH   1  23
HETATM   23  C4  UNL     1       3.448  65.123  -4.218  1.00  0.00    -0.012 A 
HETATM   24  C3  UNL     1       3.507  65.113  -2.820  1.00  0.00     0.015 A 
HETATM   25  C2  UNL     1       2.327  65.139  -2.069  1.00  0.00     0.024 A 
HETATM   26  C1  UNL     1       1.092  65.176  -2.714  1.00  0.00     0.034 A 
HETATM   27 CL1  UNL     1      -0.357  65.205  -1.787  1.00  0.00    -0.084 Cl
HETATM   28  C25 UNL     1       1.024  65.188  -4.106  1.00  0.00     0.024 A 
HETATM   29  C24 UNL     1       2.201  65.165  -4.857  1.00  0.00     0.015 A 
ENDBRANCH   1  23
TORSDOF 3
ENDMDL
MODEL 8
REMARK minimizedAffinity -6.77985811
REMARK CNNscore 0.454163373
REMARK CNNaffinity 5.05251312
REMARK  3 active torsions:
REMARK  status: ('A' for Active; 'I' for Inactive)
REMARK    1  A    between atoms: C4_5  and  C5_6 
REMARK    2  A    between atoms: N2_9  and  C6_10 
REMARK    3  A    between atoms: C12_16  and  C13_17 
ROOT
HETATM    1  C5  UNL     1      13.741  61.569   4.218  1.00  0.00     0.038 C 
HETATM    2  N1  UNL     1      13.421  61.499   5.475  1.00  0.00    -0.301 N 
ATOM      3  H1  UNL     1      13.535  62.235   6.171  1.00  0.00     0.187 HD
HETATM    4  N2  UNL     1      12.901  60.251   5.687  1.00  0.00    -0.283 N 
HETATM    5  C12 UNL     1      13.012  59.377   4.518  1.00  0.00     0.147 C 
HETATM    6  C23 UNL     1      13.393  60.353   3.402  1.00  0.00     0.091 C 
ENDROOT
BRANCH   5   7
HETATM    7  C13 UNL     1      14.067  58.289   4.665  1.00  0.00    -0.032 A 
HETATM    8  C14 UNL     1      15.414  58.651   4.812  1.00  0.00     0.010 A 
HETATM    9  C15 UNL     1      16.401  57.676   4.975  1.00  0.00     0.013 A 
HETATM   10  C16 UNL     1      16.069  56.314   5.000  1.00  0.00    -0.026 A 
HETATM   11  C17 UNL     1      17.050  55.321   5.159  1.00  0.00     0.012 A 
HETATM   12  C21 UNL     1      14.716  55.932   4.860  1.00  0.00    -0.025 A 
HETATM   13  C18 UNL     1      16.700  53.970   5.178  1.00  0.00     0.001 A 
HETATM   14  C19 UNL     1      15.368  53.594   5.040  1.00  0.00     0.001 A 
HETATM   15  C20 UNL     1      14.381  54.569   4.883  1.00  0.00     0.012 A 
HETATM   16  C22 UNL     1      13.734  56.924   4.699  1.00  0.00     0.021 A 
ENDBRANCH   5   7
BRANCH   4  17
HETATM   17  C6  UNL     1      12.306  59.921   6.904  1.00  0.00     0.051 A 
HETATM   18  C7  UNL     1      11.021  60.389   7.228  1.00  0.00     0.031 A 
HETATM   19  C8  UNL     1      10.403  60.076   8.444  1.00  0.00     0.002 A 
HETATM   20  C9  UNL     1      11.062  59.280   9.373  1.00  0.00     0.000 A 
HETATM   21  C10 UNL     1      12.334  58.800   9.083  1.00  0.00     0.002 A 
HETATM   22  C11 UNL     1      12.945  59.118   7.862  1.00  0.00     0.031 A 
ENDBRANCH   4  17
BRANCH   1  23
HETATM   23  C4  UNL     1      14.373  62.764   3.612  1.00  0.00    -0.012 A 
HETATM   24  C3  UNL     1      15.732  62.780   3.275  1.00  0.00     0.015 A 
HETATM   25  C2  UNL     1      16.298  63.927   2.708  1.00  0.00     0.024 A 
HETATM   26  C1  UNL     1      15.508  65.053   2.477  1.00  0.00     0.034 A 
HETATM   27 CL1  UNL     1      16.210  66.461   1.782  1.00  0.00    -0.084 Cl
HETATM   28  C25 UNL     1      14.155  65.044   2.808  1.00  0.00     0.024 A 
HETATM   29  C24 UNL     1      13.587  63.898   3.371  1.00  0.00     0.015 A 
ENDBRANCH   1  23
TORSDOF 3
ENDMDL
MODEL 9
REMARK minimizedAffinity -7.80594349
REMARK CNNscore 0.441124201
REMARK CNNaffinity 4.97203445
REMARK  3 active torsions:
REMARK  status: ('A' for Active; 'I' for Inactive)
REMARK    1  A    between atoms: C4_5  and  C5_6 
REMARK    2  A    between atoms: N2_9  and  C6_10 
REMARK    3  A    between atoms: C12_16  and  C13_17 
ROOT
HETATM    1  C5  UNL     1      13.138  57.570   0.468  1.00  0.00     0.038 C 
HETATM    2  N1  UNL     1      13.267  56.575   1.293  1.00  0.00    -0.301 N 
ATOM      3  H1  UNL     1      12.822  55.661   1.214  1.00  0.00     0.187 HD
HETATM    4  N2  UNL     1      14.115  56.984   2.285  1.00  0.00    -0.283 N 
HETATM    5  C12 UNL     1      14.465  58.402   2.192  1.00  0.00     0.147 C 
HETATM    6  C23 UNL     1      13.971  58.780   0.793  1.00  0.00     0.091 C 
ENDROOT
BRANCH   5   7
HETATM    7  C13 UNL     1      13.798  59.270   3.251  1.00  0.00    -0.032 A 
HETATM    8  C14 UNL     1      13.387  58.688   4.459  1.00  0.00     0.010 A 
HETATM    9  C15 UNL     1      12.796  59.464   5.459  1.00  0.00     0.013 A 
HETATM   10  C16 UNL     1      12.604  60.841   5.282  1.00  0.00    -0.026 A 
HETATM   11  C17 UNL     1      12.008  61.634   6.276  1.00  0.00     0.012 A 
HETATM   12  C21 UNL     1      13.019  61.444   4.074  1.00  0.00    -0.025 A 
HETATM   13  C18 UNL     1      11.822  63.004   6.080  1.00  0.00     0.001 A 
HETATM   14  C19 UNL     1      12.230  63.598   4.890  1.00  0.00     0.001 A 
HETATM   15  C20 UNL     1      12.826  62.823   3.892  1.00  0.00     0.012 A 
HETATM   16  C22 UNL     1      13.613  60.652   3.077  1.00  0.00     0.021 A 
ENDBRANCH   5   7
BRANCH   4  17
HETATM   17  C6  UNL     1      14.590  56.084   3.238  1.00  0.00     0.051 A 
HETATM   18  C7  UNL     1      15.970  55.911   3.440  1.00  0.00     0.031 A 
HETATM   19  C8  UNL     1      16.474  55.011   4.386  1.00  0.00     0.002 A 
HETATM   20  C9  UNL     1      15.600  54.256   5.160  1.00  0.00     0.000 A 
HETATM   21  C10 UNL     1      14.229  54.404   4.985  1.00  0.00     0.002 A 
HETATM   22  C11 UNL     1      13.733  55.309   4.036  1.00  0.00     0.031 A 
ENDBRANCH   4  17
BRANCH   1  23
HETATM   23  C4  UNL     1      12.261  57.521  -0.725  1.00  0.00    -0.012 A 
HETATM   24  C3  UNL     1      11.477  56.397  -1.011  1.00  0.00     0.015 A 
HETATM   25  C2  UNL     1      10.664  56.382  -2.149  1.00  0.00     0.024 A 
HETATM   26  C1  UNL     1      10.634  57.488  -2.998  1.00  0.00     0.034 A 
HETATM   27 CL1  UNL     1       9.634  57.465  -4.397  1.00  0.00    -0.084 Cl
HETATM   28  C25 UNL     1      11.410  58.612  -2.719  1.00  0.00     0.024 A 
HETATM   29  C24 UNL     1      12.220  58.630  -1.582  1.00  0.00     0.015 A 
ENDBRANCH   1  23
TORSDOF 3
ENDMDL
