MODEL 1
REMARK minimizedAffinity -7.42376041
REMARK CNNscore 0.843474448
REMARK CNNaffinity 6.37774086
REMARK  6 active torsions:
REMARK  status: ('A' for Active; 'I' for Inactive)
REMARK    1  A    between atoms: C1_2  and  C2_3 
REMARK    2  A    between atoms: C1_2  and  C10_11 
REMARK    3  A    between atoms: C3_4  and  C4_5 
REMARK    4  A    between atoms: C10_11  and  C11_12 
REMARK    5  A    between atoms: C14_15  and  N1_16 
REMARK    6  A    between atoms: N1_16  and  C15_17 
ROOT
HETATM    1  C11 UNL     1      13.004  55.296  -1.865  1.00  0.00     0.017 A 
HETATM    2  C12 UNL     1      12.445  54.025  -1.805  1.00  0.00     0.043 A 
HETATM    3  C13 UNL     1      13.185  52.905  -2.260  1.00  0.00     0.038 A 
HETATM    4  C14 UNL     1      12.714  51.577  -2.282  1.00  0.00     0.119 A 
HETATM    5  N2  UNL     1      13.490  50.556  -2.689  1.00  0.00    -0.338 N 
ATOM      6  H2  UNL     1      13.151  49.593  -2.683  1.00  0.00     0.168 HD
HETATM    7  C21 UNL     1      14.724  50.858  -3.101  1.00  0.00     0.182 A 
HETATM    8  N3  UNL     1      15.264  52.078  -3.145  1.00  0.00    -0.350 N 
ATOM      9  H3  UNL     1      16.215  52.235  -3.482  1.00  0.00     0.166 HD
HETATM   10  C22 UNL     1      14.488  53.088  -2.723  1.00  0.00     0.062 A 
HETATM   11  C23 UNL     1      14.952  54.393  -2.724  1.00  0.00     0.118 A 
HETATM   12  N4  UNL     1      14.261  55.492  -2.314  1.00  0.00    -0.367 N 
ATOM     13  H4  UNL     1      14.676  56.424  -2.346  1.00  0.00     0.165 HD
ENDROOT
BRANCH   1  14
HETATM   14  C10 UNL     1      12.254  56.513  -1.381  1.00  0.00     0.140 C 
BRANCH  14  15
HETATM   15  C1  UNL     1      12.879  57.192  -0.175  1.00  0.00     0.154 C 
HETATM   16  O1  UNL     1      12.996  58.414  -0.069  1.00  0.00    -0.293 OA
BRANCH  15  17
HETATM   17  C2  UNL     1      13.340  56.362   0.977  1.00  0.00     0.051 C 
HETATM   18  C3  UNL     1      14.132  56.796   1.968  1.00  0.00     0.015 C 
BRANCH  18  19
HETATM   19  C4  UNL     1      14.575  55.940   3.079  1.00  0.00    -0.036 A 
HETATM   20  C5  UNL     1      15.948  55.787   3.309  1.00  0.00     0.011 A 
HETATM   21  C6  UNL     1      16.409  55.004   4.371  1.00  0.00     0.001 A 
HETATM   22  C7  UNL     1      15.500  54.378   5.221  1.00  0.00     0.000 A 
HETATM   23  C8  UNL     1      14.132  54.537   5.013  1.00  0.00     0.001 A 
HETATM   24  C9  UNL     1      13.671  55.319   3.950  1.00  0.00     0.011 A 
ENDBRANCH  18  19
ENDBRANCH  15  17
ENDBRANCH  14  15
ENDBRANCH   1  14
BRANCH   4  25
HETATM   25  N1  UNL     1      11.375  51.323  -1.876  1.00  0.00    -0.342 N 
HETATM   26  H11 UNL     1      10.844  52.186  -1.956  1.00  0.00     0.167 HD
BRANCH  25  27
HETATM   27  C15 UNL     1      10.570  50.194  -2.152  1.00  0.00     0.034 A 
HETATM   28  C16 UNL     1      10.010  49.951  -3.413  1.00  0.00     0.029 A 
HETATM   29  C17 UNL     1       9.276  48.788  -3.669  1.00  0.00     0.004 A 
HETATM   30  C18 UNL     1       9.113  47.833  -2.671  1.00  0.00     0.019 A 
HETATM   31  C19 UNL     1       9.695  48.043  -1.425  1.00  0.00     0.013 A 
HETATM   32 BR1  UNL     1       9.501  46.737  -0.069  1.00  0.00    -0.051 Br
HETATM   33  C20 UNL     1      10.426  49.204  -1.167  1.00  0.00     0.048 A 
ENDBRANCH  25  27
ENDBRANCH   4  25
TORSDOF 6
ENDMDL
MODEL 2
REMARK minimizedAffinity -7.20806313
REMARK CNNscore 0.747921288
REMARK CNNaffinity 5.52598524
REMARK  6 active torsions:
REMARK  status: ('A' for Active; 'I' for Inactive)
REMARK    1  A    between atoms: C1_2  and  C2_3 
REMARK    2  A    between atoms: C1_2  and  C10_11 
REMARK    3  A    between atoms: C3_4  and  C4_5 
REMARK    4  A    between atoms: C10_11  and  C11_12 
REMARK    5  A    between atoms: C14_15  and  N1_16 
REMARK    6  A    between atoms: N1_16  and  C15_17 
ROOT
HETATM    1  C11 UNL     1       0.530  66.926  -0.123  1.00  0.00     0.017 A 
HETATM    2  C12 UNL     1       1.339  66.653  -1.220  1.00  0.00     0.043 A 
HETATM    3  C13 UNL     1       1.174  65.442  -1.937  1.00  0.00     0.038 A 
HETATM    4  C14 UNL     1       1.954  65.039  -3.039  1.00  0.00     0.119 A 
HETATM    5  N2  UNL     1       1.712  63.892  -3.699  1.00  0.00    -0.338 N 
ATOM      6  H2  UNL     1       2.266  63.616  -4.510  1.00  0.00     0.168 HD
HETATM    7  C21 UNL     1       0.712  63.130  -3.245  1.00  0.00     0.182 A 
HETATM    8  N3  UNL     1      -0.073  63.400  -2.200  1.00  0.00    -0.350 N 
ATOM      9  H3  UNL     1      -0.815  62.764  -1.905  1.00  0.00     0.166 HD
HETATM   10  C22 UNL     1       0.167  64.555  -1.558  1.00  0.00     0.062 A 
HETATM   11  C23 UNL     1      -0.592  64.932  -0.462  1.00  0.00     0.118 A 
HETATM   12  N4  UNL     1      -0.446  66.077   0.260  1.00  0.00    -0.367 N 
ATOM     13  H4  UNL     1      -1.049  66.283   1.057  1.00  0.00     0.165 HD
ENDROOT
BRANCH   1  14
HETATM   14  C10 UNL     1       0.665  68.209   0.660  1.00  0.00     0.140 C 
BRANCH  14  15
HETATM   15  C1  UNL     1       0.967  68.012   2.135  1.00  0.00     0.154 C 
HETATM   16  O1  UNL     1       2.000  68.410   2.676  1.00  0.00    -0.293 OA
BRANCH  15  17
HETATM   17  C2  UNL     1      -0.046  67.346   3.007  1.00  0.00     0.051 C 
HETATM   18  C3  UNL     1      -1.348  67.663   3.050  1.00  0.00     0.015 C 
BRANCH  18  19
HETATM   19  C4  UNL     1      -2.312  66.991   3.935  1.00  0.00    -0.036 A 
HETATM   20  C5  UNL     1      -3.600  67.526   4.064  1.00  0.00     0.011 A 
HETATM   21  C6  UNL     1      -4.553  66.902   4.873  1.00  0.00     0.001 A 
HETATM   22  C7  UNL     1      -4.230  65.728   5.550  1.00  0.00     0.000 A 
HETATM   23  C8  UNL     1      -2.958  65.177   5.417  1.00  0.00     0.001 A 
HETATM   24  C9  UNL     1      -2.005  65.802   4.609  1.00  0.00     0.011 A 
ENDBRANCH  18  19
ENDBRANCH  15  17
ENDBRANCH  14  15
ENDBRANCH   1  14
BRANCH   4  25
HETATM   25  N1  UNL     1       3.035  65.869  -3.447  1.00  0.00    -0.342 N 
HETATM   26  H11 UNL     1       3.561  66.143  -2.621  1.00  0.00     0.167 HD
BRANCH  25  27
HETATM   27  C15 UNL     1       3.877  65.728  -4.573  1.00  0.00     0.034 A 
HETATM   28  C16 UNL     1       3.718  66.489  -5.739  1.00  0.00     0.029 A 
HETATM   29  C17 UNL     1       4.613  66.374  -6.808  1.00  0.00     0.004 A 
HETATM   30  C18 UNL     1       5.701  65.511  -6.717  1.00  0.00     0.019 A 
HETATM   31  C19 UNL     1       5.893  64.777  -5.551  1.00  0.00     0.013 A 
HETATM   32 BR1  UNL     1       7.384  63.622  -5.406  1.00  0.00    -0.051 Br
HETATM   33  C20 UNL     1       5.000  64.890  -4.483  1.00  0.00     0.048 A 
ENDBRANCH  25  27
ENDBRANCH   4  25
TORSDOF 6
ENDMDL
MODEL 3
REMARK minimizedAffinity -6.63657093
REMARK CNNscore 0.738524377
REMARK CNNaffinity 6.03708124
REMARK  6 active torsions:
REMARK  status: ('A' for Active; 'I' for Inactive)
REMARK    1  A    between atoms: C1_2  and  C2_3 
REMARK    2  A    between atoms: C1_2  and  C10_11 
REMARK    3  A    between atoms: C3_4  and  C4_5 
REMARK    4  A    between atoms: C10_11  and  C11_12 
REMARK    5  A    between atoms: C14_15  and  N1_16 
REMARK    6  A    between atoms: N1_16  and  C15_17 
ROOT
HETATM    1  C11 UNL     1      13.123  55.624  -1.773  1.00  0.00     0.017 A 
HETATM    2  C12 UNL     1      12.588  54.341  -1.744  1.00  0.00     0.043 A 
HETATM    3  C13 UNL     1      13.354  53.245  -2.213  1.00  0.00     0.038 A 
HETATM    4  C14 UNL     1      12.909  51.909  -2.266  1.00  0.00     0.119 A 
HETATM    5  N2  UNL     1      13.709  50.911  -2.685  1.00  0.00    -0.338 N 
ATOM      6  H2  UNL     1      13.388  49.942  -2.701  1.00  0.00     0.168 HD
HETATM    7  C21 UNL     1      14.941  51.244  -3.078  1.00  0.00     0.182 A 
HETATM    8  N3  UNL     1      15.458  52.475  -3.093  1.00  0.00    -0.350 N 
ATOM      9  H3  UNL     1      16.409  52.656  -3.416  1.00  0.00     0.166 HD
HETATM   10  C22 UNL     1      14.658  53.461  -2.658  1.00  0.00     0.062 A 
HETATM   11  C23 UNL     1      15.097  54.775  -2.629  1.00  0.00     0.118 A 
HETATM   12  N4  UNL     1      14.381  55.853  -2.205  1.00  0.00    -0.367 N 
ATOM     13  H4  UNL     1      14.778  56.792  -2.214  1.00  0.00     0.165 HD
ENDROOT
BRANCH   1  14
HETATM   14  C10 UNL     1      12.346  56.816  -1.273  1.00  0.00     0.140 C 
BRANCH  14  15
HETATM   15  C1  UNL     1      10.908  56.873  -1.757  1.00  0.00     0.154 C 
HETATM   16  O1  UNL     1       9.953  56.455  -1.101  1.00  0.00    -0.293 OA
BRANCH  15  17
HETATM   17  C2  UNL     1      10.604  57.509  -3.074  1.00  0.00     0.051 C 
HETATM   18  C3  UNL     1       9.602  57.145  -3.888  1.00  0.00     0.015 C 
BRANCH  18  19
HETATM   19  C4  UNL     1       9.344  57.788  -5.185  1.00  0.00    -0.036 A 
HETATM   20  C5  UNL     1       8.814  59.085  -5.204  1.00  0.00     0.011 A 
HETATM   21  C6  UNL     1       8.580  59.741  -6.414  1.00  0.00     0.001 A 
HETATM   22  C7  UNL     1       8.887  59.112  -7.619  1.00  0.00     0.000 A 
HETATM   23  C8  UNL     1       9.430  57.830  -7.613  1.00  0.00     0.001 A 
HETATM   24  C9  UNL     1       9.663  57.173  -6.402  1.00  0.00     0.011 A 
ENDBRANCH  18  19
ENDBRANCH  15  17
ENDBRANCH  14  15
ENDBRANCH   1  14
BRANCH   4  25
HETATM   25  N1  UNL     1      11.571  51.621  -1.879  1.00  0.00    -0.342 N 
HETATM   26  H11 UNL     1      11.039  52.488  -1.889  1.00  0.00     0.167 HD
BRANCH  25  27
HETATM   27  C15 UNL     1      10.766  50.517  -2.243  1.00  0.00     0.034 A 
HETATM   28  C16 UNL     1      10.222  50.365  -3.524  1.00  0.00     0.029 A 
HETATM   29  C17 UNL     1       9.489  49.226  -3.870  1.00  0.00     0.004 A 
HETATM   30  C18 UNL     1       9.310  48.203  -2.943  1.00  0.00     0.019 A 
HETATM   31  C19 UNL     1       9.877  48.323  -1.679  1.00  0.00     0.013 A 
HETATM   32 BR1  UNL     1       9.664  46.927  -0.420  1.00  0.00    -0.051 Br
HETATM   33  C20 UNL     1      10.609  49.461  -1.331  1.00  0.00     0.048 A 
ENDBRANCH  25  27
ENDBRANCH   4  25
TORSDOF 6
ENDMDL
MODEL 4
REMARK minimizedAffinity -7.05178833
REMARK CNNscore 0.714130402
REMARK CNNaffinity 6.19880867
REMARK  6 active torsions:
REMARK  status: ('A' for Active; 'I' for Inactive)
REMARK    1  A    between atoms: C1_2  and  C2_3 
REMARK    2  A    between atoms: C1_2  and  C10_11 
REMARK    3  A    between atoms: C3_4  and  C4_5 
REMARK    4  A    between atoms: C10_11  and  C11_12 
REMARK    5  A    between atoms: C14_15  and  N1_16 
REMARK    6  A    between atoms: N1_16  and  C15_17 
ROOT
HETATM    1  C11 UNL     1      13.952  55.889   4.292  1.00  0.00     0.017 A 
HETATM    2  C12 UNL     1      13.659  55.807   2.935  1.00  0.00     0.043 A 
HETATM    3  C13 UNL     1      13.385  56.985   2.198  1.00  0.00     0.038 A 
HETATM    4  C14 UNL     1      13.043  57.026   0.832  1.00  0.00     0.119 A 
HETATM    5  N2  UNL     1      12.837  58.188   0.186  1.00  0.00    -0.338 N 
ATOM      6  H2  UNL     1      12.610  58.212  -0.809  1.00  0.00     0.168 HD
HETATM    7  C21 UNL     1      12.943  59.309   0.904  1.00  0.00     0.182 A 
HETATM    8  N3  UNL     1      13.238  59.388   2.205  1.00  0.00    -0.350 N 
ATOM      9  H3  UNL     1      13.294  60.283   2.691  1.00  0.00     0.166 HD
HETATM   10  C22 UNL     1      13.457  58.223   2.836  1.00  0.00     0.062 A 
HETATM   11  C23 UNL     1      13.773  58.192   4.185  1.00  0.00     0.118 A 
HETATM   12  N4  UNL     1      14.021  57.078   4.926  1.00  0.00    -0.367 N 
ATOM     13  H4  UNL     1      14.249  57.140   5.918  1.00  0.00     0.165 HD
ENDROOT
BRANCH   1  14
HETATM   14  C10 UNL     1      14.261  54.660   5.110  1.00  0.00     0.140 C 
BRANCH  14  15
HETATM   15  C1  UNL     1      15.709  54.210   5.040  1.00  0.00     0.154 C 
HETATM   16  O1  UNL     1      16.653  54.982   4.860  1.00  0.00    -0.293 OA
BRANCH  15  17
HETATM   17  C2  UNL     1      16.038  52.768   5.243  1.00  0.00     0.051 C 
HETATM   18  C3  UNL     1      17.281  52.269   5.327  1.00  0.00     0.015 C 
BRANCH  18  19
HETATM   19  C4  UNL     1      17.562  50.838   5.515  1.00  0.00    -0.036 A 
HETATM   20  C5  UNL     1      18.300  50.434   6.635  1.00  0.00     0.011 A 
HETATM   21  C6  UNL     1      18.565  49.081   6.863  1.00  0.00     0.001 A 
HETATM   22  C7  UNL     1      18.084  48.118   5.980  1.00  0.00     0.000 A 
HETATM   23  C8  UNL     1      17.335  48.505   4.871  1.00  0.00     0.001 A 
HETATM   24  C9  UNL     1      17.070  49.858   4.642  1.00  0.00     0.011 A 
ENDBRANCH  18  19
ENDBRANCH  15  17
ENDBRANCH  14  15
ENDBRANCH   1  14
BRANCH   4  25
HETATM   25  N1  UNL     1      12.897  55.797   0.130  1.00  0.00    -0.342 N 
HETATM   26  H11 UNL     1      12.435  55.129   0.741  1.00  0.00     0.167 HD
BRANCH  25  27
HETATM   27  C15 UNL     1      12.542  55.592  -1.223  1.00  0.00     0.034 A 
HETATM   28  C16 UNL     1      13.128  54.599  -2.018  1.00  0.00     0.029 A 
HETATM   29  C17 UNL     1      12.702  54.377  -3.332  1.00  0.00     0.004 A 
HETATM   30  C18 UNL     1      11.661  55.132  -3.864  1.00  0.00     0.019 A 
HETATM   31  C19 UNL     1      11.044  56.095  -3.074  1.00  0.00     0.013 A 
HETATM   32 BR1  UNL     1       9.609  57.107  -3.778  1.00  0.00    -0.051 Br
HETATM   33  C20 UNL     1      11.469  56.319  -1.762  1.00  0.00     0.048 A 
ENDBRANCH  25  27
ENDBRANCH   4  25
TORSDOF 6
ENDMDL
MODEL 5
REMARK minimizedAffinity -6.58681536
REMARK CNNscore 0.622914433
REMARK CNNaffinity 6.19206429
REMARK  6 active torsions:
REMARK  status: ('A' for Active; 'I' for Inactive)
REMARK    1  A    between atoms: C1_2  and  C2_3 
REMARK    2  A    between atoms: C1_2  and  C10_11 
REMARK    3  A    between atoms: C3_4  and  C4_5 
REMARK    4  A    between atoms: C10_11  and  C11_12 
REMARK    5  A    between atoms: C14_15  and  N1_16 
REMARK    6  A    between atoms: N1_16  and  C15_17 
ROOT
HETATM    1  C11 UNL     1      14.015  57.855  -0.974  1.00  0.00     0.017 A 
HETATM    2  C12 UNL     1      12.887  57.154  -1.384  1.00  0.00     0.043 A 
HETATM    3  C13 UNL     1      12.998  55.790  -1.754  1.00  0.00     0.038 A 
HETATM    4  C14 UNL     1      11.937  54.987  -2.217  1.00  0.00     0.119 A 
HETATM    5  N2  UNL     1      12.108  53.685  -2.510  1.00  0.00    -0.338 N 
ATOM      6  H2  UNL     1      11.332  53.103  -2.825  1.00  0.00     0.168 HD
HETATM    7  C21 UNL     1      13.340  53.188  -2.370  1.00  0.00     0.182 A 
HETATM    8  N3  UNL     1      14.420  53.860  -1.963  1.00  0.00    -0.350 N 
ATOM      9  H3  UNL     1      15.335  53.415  -1.888  1.00  0.00     0.166 HD
HETATM   10  C22 UNL     1      14.235  55.154  -1.658  1.00  0.00     0.062 A 
HETATM   11  C23 UNL     1      15.289  55.942  -1.223  1.00  0.00     0.118 A 
HETATM   12  N4  UNL     1      15.221  57.257  -0.881  1.00  0.00    -0.367 N 
ATOM     13  H4  UNL     1      16.046  57.769  -0.567  1.00  0.00     0.165 HD
ENDROOT
BRANCH   1  14
HETATM   14  C10 UNL     1      13.938  59.304  -0.561  1.00  0.00     0.140 C 
BRANCH  14  15
HETATM   15  C1  UNL     1      13.338  59.531   0.815  1.00  0.00     0.154 C 
HETATM   16  O1  UNL     1      12.397  60.298   1.029  1.00  0.00    -0.293 OA
BRANCH  15  17
HETATM   17  C2  UNL     1      13.866  58.760   1.980  1.00  0.00     0.051 C 
HETATM   18  C3  UNL     1      13.361  57.600   2.425  1.00  0.00     0.015 C 
BRANCH  18  19
HETATM   19  C4  UNL     1      13.902  56.879   3.586  1.00  0.00    -0.036 A 
HETATM   20  C5  UNL     1      13.597  55.520   3.742  1.00  0.00     0.011 A 
HETATM   21  C6  UNL     1      14.114  54.793   4.816  1.00  0.00     0.001 A 
HETATM   22  C7  UNL     1      14.954  55.414   5.739  1.00  0.00     0.000 A 
HETATM   23  C8  UNL     1      15.279  56.759   5.585  1.00  0.00     0.001 A 
HETATM   24  C9  UNL     1      14.760  57.487   4.511  1.00  0.00     0.011 A 
ENDBRANCH  18  19
ENDBRANCH  15  17
ENDBRANCH  14  15
ENDBRANCH   1  14
BRANCH   4  25
HETATM   25  N1  UNL     1      10.658  55.584  -2.392  1.00  0.00    -0.342 N 
HETATM   26  H11 UNL     1      10.368  55.991  -1.506  1.00  0.00     0.167 HD
BRANCH  25  27
HETATM   27  C15 UNL     1      10.179  56.337  -3.488  1.00  0.00     0.034 A 
HETATM   28  C16 UNL     1       9.734  57.659  -3.363  1.00  0.00     0.029 A 
HETATM   29  C17 UNL     1       9.333  58.398  -4.481  1.00  0.00     0.004 A 
HETATM   30  C18 UNL     1       9.396  57.832  -5.751  1.00  0.00     0.019 A 
HETATM   31  C19 UNL     1       9.872  56.533  -5.894  1.00  0.00     0.013 A 
HETATM   32 BR1  UNL     1       9.988  55.763  -7.619  1.00  0.00    -0.051 Br
HETATM   33  C20 UNL     1      10.272  55.793  -4.779  1.00  0.00     0.048 A 
ENDBRANCH  25  27
ENDBRANCH   4  25
TORSDOF 6
ENDMDL
MODEL 6
REMARK minimizedAffinity -7.20415878
REMARK CNNscore 0.598038077
REMARK CNNaffinity 6.05129194
REMARK  6 active torsions:
REMARK  status: ('A' for Active; 'I' for Inactive)
REMARK    1  A    between atoms: C1_2  and  C2_3 
REMARK    2  A    between atoms: C1_2  and  C10_11 
REMARK    3  A    between atoms: C3_4  and  C4_5 
REMARK    4  A    between atoms: C10_11  and  C11_12 
REMARK    5  A    between atoms: C14_15  and  N1_16 
REMARK    6  A    between atoms: N1_16  and  C15_17 
ROOT
HETATM    1  C11 UNL     1      12.245  55.433  -2.226  1.00  0.00     0.017 A 
HETATM    2  C12 UNL     1      12.724  54.139  -2.061  1.00  0.00     0.043 A 
HETATM    3  C13 UNL     1      13.361  53.478  -3.141  1.00  0.00     0.038 A 
HETATM    4  C14 UNL     1      13.854  52.158  -3.106  1.00  0.00     0.119 A 
HETATM    5  N2  UNL     1      14.488  51.609  -4.159  1.00  0.00    -0.338 N 
ATOM      6  H2  UNL     1      14.862  50.661  -4.120  1.00  0.00     0.168 HD
HETATM    7  C21 UNL     1      14.606  52.362  -5.256  1.00  0.00     0.182 A 
HETATM    8  N3  UNL     1      14.157  53.611  -5.408  1.00  0.00    -0.350 N 
ATOM      9  H3  UNL     1      14.277  54.123  -6.282  1.00  0.00     0.166 HD
HETATM   10  C22 UNL     1      13.541  54.154  -4.347  1.00  0.00     0.062 A 
HETATM   11  C23 UNL     1      13.041  55.445  -4.397  1.00  0.00     0.118 A 
HETATM   12  N4  UNL     1      12.406  56.101  -3.387  1.00  0.00    -0.367 N 
ATOM     13  H4  UNL     1      12.067  57.056  -3.503  1.00  0.00     0.165 HD
ENDROOT
BRANCH   1  14
HETATM   14  C10 UNL     1      11.572  56.176  -1.099  1.00  0.00     0.140 C 
BRANCH  14  15
HETATM   15  C1  UNL     1      12.519  56.981  -0.226  1.00  0.00     0.154 C 
HETATM   16  O1  UNL     1      12.657  58.202  -0.320  1.00  0.00    -0.293 OA
BRANCH  15  17
HETATM   17  C2  UNL     1      13.299  56.287   0.841  1.00  0.00     0.051 C 
HETATM   18  C3  UNL     1      13.544  56.789   2.061  1.00  0.00     0.015 C 
BRANCH  18  19
HETATM   19  C4  UNL     1      14.330  56.078   3.080  1.00  0.00    -0.036 A 
HETATM   20  C5  UNL     1      13.657  55.308   4.039  1.00  0.00     0.011 A 
HETATM   21  C6  UNL     1      14.369  54.596   5.007  1.00  0.00     0.001 A 
HETATM   22  C7  UNL     1      15.761  54.636   5.019  1.00  0.00     0.000 A 
HETATM   23  C8  UNL     1      16.442  55.383   4.061  1.00  0.00     0.001 A 
HETATM   24  C9  UNL     1      15.730  56.097   3.093  1.00  0.00     0.011 A 
ENDBRANCH  18  19
ENDBRANCH  15  17
ENDBRANCH  14  15
ENDBRANCH   1  14
BRANCH   4  25
HETATM   25  N1  UNL     1      13.657  51.389  -1.926  1.00  0.00    -0.342 N 
HETATM   26  H11 UNL     1      13.255  51.990  -1.212  1.00  0.00     0.167 HD
BRANCH  25  27
HETATM   27  C15 UNL     1      13.187  50.061  -1.808  1.00  0.00     0.034 A 
HETATM   28  C16 UNL     1      14.039  48.950  -1.822  1.00  0.00     0.029 A 
HETATM   29  C17 UNL     1      13.546  47.655  -1.633  1.00  0.00     0.004 A 
HETATM   30  C18 UNL     1      12.190  47.452  -1.399  1.00  0.00     0.019 A 
HETATM   31  C19 UNL     1      11.337  48.549  -1.345  1.00  0.00     0.013 A 
HETATM   32 BR1  UNL     1       9.495  48.287  -1.000  1.00  0.00    -0.051 Br
HETATM   33  C20 UNL     1      11.827  49.843  -1.535  1.00  0.00     0.048 A 
ENDBRANCH  25  27
ENDBRANCH   4  25
TORSDOF 6
ENDMDL
MODEL 7
REMARK minimizedAffinity -7.11650467
REMARK CNNscore 0.596403301
REMARK CNNaffinity 5.57885361
REMARK  6 active torsions:
REMARK  status: ('A' for Active; 'I' for Inactive)
REMARK    1  A    between atoms: C1_2  and  C2_3 
REMARK    2  A    between atoms: C1_2  and  C10_11 
REMARK    3  A    between atoms: C3_4  and  C4_5 
REMARK    4  A    between atoms: C10_11  and  C11_12 
REMARK    5  A    between atoms: C14_15  and  N1_16 
REMARK    6  A    between atoms: N1_16  and  C15_17 
ROOT
HETATM    1  C11 UNL     1      15.768  53.915   4.929  1.00  0.00     0.017 A 
HETATM    2  C12 UNL     1      16.098  52.604   5.250  1.00  0.00     0.043 A 
HETATM    3  C13 UNL     1      17.448  52.178   5.183  1.00  0.00     0.038 A 
HETATM    4  C14 UNL     1      17.900  50.871   5.450  1.00  0.00     0.119 A 
HETATM    5  N2  UNL     1      19.206  50.549   5.408  1.00  0.00    -0.338 N 
ATOM      6  H2  UNL     1      19.529  49.605   5.622  1.00  0.00     0.168 HD
HETATM    7  C21 UNL     1      20.060  51.519   5.072  1.00  0.00     0.182 A 
HETATM    8  N3  UNL     1      19.742  52.783   4.777  1.00  0.00    -0.350 N 
ATOM      9  H3  UNL     1      20.451  53.470   4.520  1.00  0.00     0.166 HD
HETATM   10  C22 UNL     1      18.439  53.097   4.838  1.00  0.00     0.062 A 
HETATM   11  C23 UNL     1      18.001  54.381   4.554  1.00  0.00     0.118 A 
HETATM   12  N4  UNL     1      16.712  54.816   4.588  1.00  0.00    -0.367 N 
ATOM     13  H4  UNL     1      16.471  55.782   4.366  1.00  0.00     0.165 HD
ENDROOT
BRANCH   1  14
HETATM   14  C10 UNL     1      14.344  54.412   4.999  1.00  0.00     0.140 C 
BRANCH  14  15
HETATM   15  C1  UNL     1      14.189  55.901   4.749  1.00  0.00     0.154 C 
HETATM   16  O1  UNL     1      14.581  56.767   5.533  1.00  0.00    -0.293 OA
BRANCH  15  17
HETATM   17  C2  UNL     1      13.575  56.368   3.470  1.00  0.00     0.051 C 
HETATM   18  C3  UNL     1      14.203  56.402   2.285  1.00  0.00     0.015 C 
BRANCH  18  19
HETATM   19  C4  UNL     1      13.565  56.882   1.050  1.00  0.00    -0.036 A 
HETATM   20  C5  UNL     1      13.496  58.262   0.816  1.00  0.00     0.011 A 
HETATM   21  C6  UNL     1      12.923  58.758  -0.357  1.00  0.00     0.001 A 
HETATM   22  C7  UNL     1      12.426  57.877  -1.316  1.00  0.00     0.000 A 
HETATM   23  C8  UNL     1      12.505  56.503  -1.103  1.00  0.00     0.001 A 
HETATM   24  C9  UNL     1      13.076  56.007   0.071  1.00  0.00     0.011 A 
ENDBRANCH  18  19
ENDBRANCH  15  17
ENDBRANCH  14  15
ENDBRANCH   1  14
BRANCH   4  25
HETATM   25  N1  UNL     1      16.939  49.868   5.755  1.00  0.00    -0.342 N 
HETATM   26  H11 UNL     1      16.011  50.249   5.590  1.00  0.00     0.167 HD
BRANCH  25  27
HETATM   27  C15 UNL     1      16.988  48.484   5.470  1.00  0.00     0.034 A 
HETATM   28  C16 UNL     1      17.614  47.557   6.313  1.00  0.00     0.029 A 
HETATM   29  C17 UNL     1      17.583  46.187   6.035  1.00  0.00     0.004 A 
HETATM   30  C18 UNL     1      16.900  45.717   4.918  1.00  0.00     0.019 A 
HETATM   31  C19 UNL     1      16.241  46.622   4.092  1.00  0.00     0.013 A 
HETATM   32 BR1  UNL     1      15.286  45.992   2.585  1.00  0.00    -0.051 Br
HETATM   33  C20 UNL     1      16.272  47.991   4.367  1.00  0.00     0.048 A 
ENDBRANCH  25  27
ENDBRANCH   4  25
TORSDOF 6
ENDMDL
MODEL 8
REMARK minimizedAffinity -7.1973834
REMARK CNNscore 0.590028226
REMARK CNNaffinity 6.31440783
REMARK  6 active torsions:
REMARK  status: ('A' for Active; 'I' for Inactive)
REMARK    1  A    between atoms: C1_2  and  C2_3 
REMARK    2  A    between atoms: C1_2  and  C10_11 
REMARK    3  A    between atoms: C3_4  and  C4_5 
REMARK    4  A    between atoms: C10_11  and  C11_12 
REMARK    5  A    between atoms: C14_15  and  N1_16 
REMARK    6  A    between atoms: N1_16  and  C15_17 
ROOT
HETATM    1  C11 UNL     1      15.484  56.346  -1.191  1.00  0.00     0.017 A 
HETATM    2  C12 UNL     1      14.109  56.183  -1.317  1.00  0.00     0.043 A 
HETATM    3  C13 UNL     1      13.578  54.927  -1.702  1.00  0.00     0.038 A 
HETATM    4  C14 UNL     1      12.210  54.650  -1.896  1.00  0.00     0.119 A 
HETATM    5  N2  UNL     1      11.774  53.419  -2.222  1.00  0.00    -0.338 N 
ATOM      6  H2  UNL     1      10.781  53.220  -2.340  1.00  0.00     0.168 HD
HETATM    7  C21 UNL     1      12.700  52.471  -2.383  1.00  0.00     0.182 A 
HETATM    8  N3  UNL     1      14.020  52.626  -2.249  1.00  0.00    -0.350 N 
ATOM      9  H3  UNL     1      14.671  51.854  -2.397  1.00  0.00     0.166 HD
HETATM   10  C22 UNL     1      14.443  53.853  -1.908  1.00  0.00     0.062 A 
HETATM   11  C23 UNL     1      15.792  54.121  -1.740  1.00  0.00     0.118 A 
HETATM   12  N4  UNL     1      16.336  55.319  -1.392  1.00  0.00    -0.367 N 
ATOM     13  H4  UNL     1      17.344  55.436  -1.287  1.00  0.00     0.165 HD
ENDROOT
BRANCH   1  14
HETATM   14  C10 UNL     1      16.089  57.663  -0.772  1.00  0.00     0.140 C 
BRANCH  14  15
HETATM   15  C1  UNL     1      15.699  58.114   0.625  1.00  0.00     0.154 C 
HETATM   16  O1  UNL     1      15.660  59.295   0.972  1.00  0.00    -0.293 OA
BRANCH  15  17
HETATM   17  C2  UNL     1      15.289  57.094   1.635  1.00  0.00     0.051 C 
HETATM   18  C3  UNL     1      16.054  56.673   2.654  1.00  0.00     0.015 C 
BRANCH  18  19
HETATM   19  C4  UNL     1      15.618  55.655   3.621  1.00  0.00    -0.036 A 
HETATM   20  C5  UNL     1      14.249  55.512   3.883  1.00  0.00     0.011 A 
HETATM   21  C6  UNL     1      13.792  54.539   4.775  1.00  0.00     0.001 A 
HETATM   22  C7  UNL     1      14.699  53.688   5.403  1.00  0.00     0.000 A 
HETATM   23  C8  UNL     1      16.061  53.808   5.138  1.00  0.00     0.001 A 
HETATM   24  C9  UNL     1      16.518  54.783   4.247  1.00  0.00     0.011 A 
ENDBRANCH  18  19
ENDBRANCH  15  17
ENDBRANCH  14  15
ENDBRANCH   1  14
BRANCH   4  25
HETATM   25  N1  UNL     1      11.274  55.712  -1.757  1.00  0.00    -0.342 N 
HETATM   26  H11 UNL     1      11.438  56.171  -0.864  1.00  0.00     0.167 HD
BRANCH  25  27
HETATM   27  C15 UNL     1      10.831  56.630  -2.736  1.00  0.00     0.034 A 
HETATM   28  C16 UNL     1       9.676  56.424  -3.501  1.00  0.00     0.029 A 
HETATM   29  C17 UNL     1       9.228  57.386  -4.412  1.00  0.00     0.004 A 
HETATM   30  C18 UNL     1       9.916  58.586  -4.554  1.00  0.00     0.019 A 
HETATM   31  C19 UNL     1      11.043  58.822  -3.773  1.00  0.00     0.013 A 
HETATM   32 BR1  UNL     1      11.971  60.462  -3.937  1.00  0.00    -0.051 Br
HETATM   33  C20 UNL     1      11.493  57.862  -2.864  1.00  0.00     0.048 A 
ENDBRANCH  25  27
ENDBRANCH   4  25
TORSDOF 6
ENDMDL
MODEL 9
REMARK minimizedAffinity -6.67852449
REMARK CNNscore 0.526277363
REMARK CNNaffinity 6.06012344
REMARK  6 active torsions:
REMARK  status: ('A' for Active; 'I' for Inactive)
REMARK    1  A    between atoms: C1_2  and  C2_3 
REMARK    2  A    between atoms: C1_2  and  C10_11 
REMARK    3  A    between atoms: C3_4  and  C4_5 
REMARK    4  A    between atoms: C10_11  and  C11_12 
REMARK    5  A    between atoms: C14_15  and  N1_16 
REMARK    6  A    between atoms: N1_16  and  C15_17 
ROOT
HETATM    1  C11 UNL     1      13.489  53.576  -2.203  1.00  0.00     0.017 A 
HETATM    2  C12 UNL     1      12.875  54.805  -1.988  1.00  0.00     0.043 A 
HETATM    3  C13 UNL     1      13.625  55.888  -1.466  1.00  0.00     0.038 A 
HETATM    4  C14 UNL     1      13.108  57.166  -1.173  1.00  0.00     0.119 A 
HETATM    5  N2  UNL     1      13.891  58.161  -0.718  1.00  0.00    -0.338 N 
ATOM      6  H2  UNL     1      13.515  59.090  -0.528  1.00  0.00     0.168 HD
HETATM    7  C21 UNL     1      15.182  57.878  -0.526  1.00  0.00     0.182 A 
HETATM    8  N3  UNL     1      15.773  56.701  -0.747  1.00  0.00    -0.350 N 
ATOM      9  H3  UNL     1      16.767  56.555  -0.568  1.00  0.00     0.166 HD
HETATM   10  C22 UNL     1      14.987  55.719  -1.215  1.00  0.00     0.062 A 
HETATM   11  C23 UNL     1      15.500  54.460  -1.480  1.00  0.00     0.118 A 
HETATM   12  N4  UNL     1      14.803  53.394  -1.961  1.00  0.00    -0.367 N 
ATOM     13  H4  UNL     1      15.257  52.496  -2.132  1.00  0.00     0.165 HD
ENDROOT
BRANCH   1  14
HETATM   14  C10 UNL     1      12.729  52.401  -2.768  1.00  0.00     0.140 C 
BRANCH  14  15
HETATM   15  C1  UNL     1      13.384  51.055  -2.519  1.00  0.00     0.154 C 
HETATM   16  O1  UNL     1      14.523  50.773  -2.895  1.00  0.00    -0.293 OA
BRANCH  15  17
HETATM   17  C2  UNL     1      12.649  50.017  -1.737  1.00  0.00     0.051 C 
HETATM   18  C3  UNL     1      11.710  49.201  -2.238  1.00  0.00     0.015 C 
BRANCH  18  19
HETATM   19  C4  UNL     1      10.998  48.200  -1.429  1.00  0.00    -0.036 A 
HETATM   20  C5  UNL     1      11.573  46.933  -1.260  1.00  0.00     0.011 A 
HETATM   21  C6  UNL     1      10.943  45.964  -0.478  1.00  0.00     0.001 A 
HETATM   22  C7  UNL     1       9.736  46.255   0.155  1.00  0.00     0.000 A 
HETATM   23  C8  UNL     1       9.163  47.516   0.009  1.00  0.00     0.001 A 
HETATM   24  C9  UNL     1       9.793  48.486  -0.775  1.00  0.00     0.011 A 
ENDBRANCH  18  19
ENDBRANCH  15  17
ENDBRANCH  14  15
ENDBRANCH   1  14
BRANCH   4  25
HETATM   25  N1  UNL     1      11.715  57.393  -1.353  1.00  0.00    -0.342 N 
HETATM   26  H11 UNL     1      11.376  57.948  -0.571  1.00  0.00     0.167 HD
BRANCH  25  27
HETATM   27  C15 UNL     1      11.019  57.698  -2.544  1.00  0.00     0.034 A 
HETATM   28  C16 UNL     1       9.921  56.953  -2.993  1.00  0.00     0.029 A 
HETATM   29  C17 UNL     1       9.212  57.325  -4.140  1.00  0.00     0.004 A 
HETATM   30  C18 UNL     1       9.574  58.469  -4.843  1.00  0.00     0.019 A 
HETATM   31  C19 UNL     1      10.638  59.240  -4.388  1.00  0.00     0.013 A 
HETATM   32 BR1  UNL     1      11.122  60.813  -5.322  1.00  0.00    -0.051 Br
HETATM   33  C20 UNL     1      11.349  58.870  -3.244  1.00  0.00     0.048 A 
ENDBRANCH  25  27
ENDBRANCH   4  25
TORSDOF 6
ENDMDL
