MODEL 1
REMARK minimizedAffinity -10.239502
REMARK CNNscore 0.843884647
REMARK CNNaffinity 7.45089197
REMARK  4 active torsions:
REMARK  status: ('A' for Active; 'I' for Inactive)
REMARK    1  A    between atoms: O1_2  and  C2_3 
REMARK    2  A    between atoms: C6_7  and  N1_8 
REMARK    3  A    between atoms: N1_8  and  C7_9 
REMARK    4  A    between atoms: C11_15  and  C12_16 
ROOT
HETATM    1  C7  UNL     1       4.875  -5.002  29.181  1.00  0.00     0.684 A 
HETATM    2  N2  UNL     1       4.566  -3.929  29.923  1.00  0.00    -0.201 N 
ATOM      3  H2  UNL     1       3.665  -3.461  29.826  1.00  0.00     0.183 HD
HETATM    4  C8  UNL     1       5.489  -3.494  30.800  1.00  0.00     0.121 A 
HETATM    5  C9  UNL     1       6.717  -4.087  30.973  1.00  0.00     0.026 A 
HETATM    6  C10 UNL     1       7.709  -3.610  31.922  1.00  0.00     0.034 A 
HETATM    7  C11 UNL     1       8.884  -4.250  32.025  1.00  0.00     0.047 A 
HETATM    8  C18 UNL     1       9.183  -5.450  31.171  1.00  0.00     0.260 A 
HETATM    9  O2  UNL     1      10.269  -6.015  31.289  1.00  0.00    -0.267 OA
HETATM   10  N3  UNL     1       8.198  -5.855  30.285  1.00  0.00    -0.303 N 
HETATM   11  C19 UNL     1       8.422  -7.008  29.430  1.00  0.00     0.161 C 
HETATM   12  C20 UNL     1       6.954  -5.185  30.169  1.00  0.00     0.137 A 
HETATM   13  N4  UNL     1       6.048  -5.646  29.281  1.00  0.00    -0.175 N 
ATOM     14  H4  UNL     1       6.250  -6.461  28.701  1.00  0.00     0.186 HD
ENDROOT
BRANCH   1  15
HETATM   15  N1  UNL     1       3.993  -5.533  28.246  1.00  0.00    -0.192 N 
HETATM   16  H7  UNL     1       3.688  -4.797  27.625  1.00  0.00     0.184 HD
BRANCH  15  17
HETATM   17  C6  UNL     1       3.473  -6.810  28.008  1.00  0.00     0.051 A 
HETATM   18  C5  UNL     1       4.246  -7.910  27.629  1.00  0.00     0.030 A 
HETATM   19  C4  UNL     1       3.661  -9.161  27.406  1.00  0.00     0.005 A 
HETATM   20  C3  UNL     1       2.286  -9.336  27.560  1.00  0.00     0.037 A 
HETATM   21  C2  UNL     1       1.492  -8.257  27.936  1.00  0.00     0.070 A 
HETATM   22  C21 UNL     1       2.090  -7.010  28.156  1.00  0.00     0.066 A 
BRANCH  21  23
HETATM   23  O1  UNL     1       0.136  -8.282  28.124  1.00  0.00    -0.356 OA
HETATM   24  C1  UNL     1      -0.505  -9.545  28.004  1.00  0.00     0.210 C 
ENDBRANCH  21  23
ENDBRANCH  15  17
ENDBRANCH   1  15
BRANCH   7  25
HETATM   25  C12 UNL     1       9.896  -3.772  32.987  1.00  0.00     0.023 A 
HETATM   26  C13 UNL     1      10.936  -2.918  32.579  1.00  0.00     0.046 A 
HETATM   27 CL1  UNL     1      11.069  -2.355  30.946  1.00  0.00    -0.083 Cl
HETATM   28  C14 UNL     1      11.904  -2.479  33.489  1.00  0.00     0.025 A 
HETATM   29  C15 UNL     1      11.850  -2.886  34.820  1.00  0.00     0.003 A 
HETATM   30  C16 UNL     1      10.828  -3.731  35.243  1.00  0.00     0.025 A 
HETATM   31  C17 UNL     1       9.857  -4.173  34.336  1.00  0.00     0.046 A 
HETATM   32 CL2  UNL     1       8.614  -5.213  34.946  1.00  0.00    -0.083 Cl
ENDBRANCH   7  25
TORSDOF 4
ENDMDL
MODEL 2
REMARK minimizedAffinity -10.0443792
REMARK CNNscore 0.837093115
REMARK CNNaffinity 7.4606266
REMARK  4 active torsions:
REMARK  status: ('A' for Active; 'I' for Inactive)
REMARK    1  A    between atoms: O1_2  and  C2_3 
REMARK    2  A    between atoms: C6_7  and  N1_8 
REMARK    3  A    between atoms: N1_8  and  C7_9 
REMARK    4  A    between atoms: C11_15  and  C12_16 
ROOT
HETATM    1  C7  UNL     1       4.885  -5.017  29.179  1.00  0.00     0.684 A 
HETATM    2  N2  UNL     1       4.573  -3.949  29.926  1.00  0.00    -0.201 N 
ATOM      3  H2  UNL     1       3.670  -3.483  29.832  1.00  0.00     0.183 HD
HETATM    4  C8  UNL     1       5.495  -3.513  30.804  1.00  0.00     0.121 A 
HETATM    5  C9  UNL     1       6.725  -4.101  30.973  1.00  0.00     0.026 A 
HETATM    6  C10 UNL     1       7.716  -3.625  31.923  1.00  0.00     0.034 A 
HETATM    7  C11 UNL     1       8.894  -4.261  32.023  1.00  0.00     0.047 A 
HETATM    8  C18 UNL     1       9.198  -5.455  31.163  1.00  0.00     0.260 A 
HETATM    9  O2  UNL     1      10.286  -6.016  31.278  1.00  0.00    -0.267 OA
HETATM   10  N3  UNL     1       8.213  -5.861  30.276  1.00  0.00    -0.303 N 
HETATM   11  C19 UNL     1       8.441  -7.008  29.416  1.00  0.00     0.161 C 
HETATM   12  C20 UNL     1       6.966  -5.195  30.165  1.00  0.00     0.137 A 
HETATM   13  N4  UNL     1       6.062  -5.656  29.275  1.00  0.00    -0.175 N 
ATOM     14  H4  UNL     1       6.267  -6.467  28.691  1.00  0.00     0.186 HD
ENDROOT
BRANCH   1  15
HETATM   15  N1  UNL     1       4.005  -5.547  28.243  1.00  0.00    -0.192 N 
HETATM   16  H7  UNL     1       3.709  -4.813  27.615  1.00  0.00     0.184 HD
BRANCH  15  17
HETATM   17  C6  UNL     1       3.477  -6.822  28.010  1.00  0.00     0.051 A 
HETATM   18  C5  UNL     1       2.126  -7.146  28.150  1.00  0.00     0.030 A 
HETATM   19  C4  UNL     1       1.665  -8.442  27.900  1.00  0.00     0.005 A 
HETATM   20  C3  UNL     1       2.551  -9.444  27.504  1.00  0.00     0.037 A 
HETATM   21  C2  UNL     1       3.902  -9.149  27.356  1.00  0.00     0.070 A 
HETATM   22  C21 UNL     1       4.351  -7.847  27.609  1.00  0.00     0.066 A 
BRANCH  21  23
HETATM   23  O1  UNL     1       4.881 -10.027  26.975  1.00  0.00    -0.356 OA
HETATM   24  C1  UNL     1       6.219  -9.682  27.310  1.00  0.00     0.210 C 
ENDBRANCH  21  23
ENDBRANCH  15  17
ENDBRANCH   1  15
BRANCH   7  25
HETATM   25  C12 UNL     1       9.905  -3.782  32.986  1.00  0.00     0.023 A 
HETATM   26  C13 UNL     1      10.946  -2.929  32.579  1.00  0.00     0.046 A 
HETATM   27 CL1  UNL     1      11.082  -2.368  30.946  1.00  0.00    -0.083 Cl
HETATM   28  C14 UNL     1      11.912  -2.490  33.490  1.00  0.00     0.025 A 
HETATM   29  C15 UNL     1      11.857  -2.896  34.822  1.00  0.00     0.003 A 
HETATM   30  C16 UNL     1      10.833  -3.741  35.243  1.00  0.00     0.025 A 
HETATM   31  C17 UNL     1       9.864  -4.183  34.335  1.00  0.00     0.046 A 
HETATM   32 CL2  UNL     1       8.619  -5.221  34.944  1.00  0.00    -0.083 Cl
ENDBRANCH   7  25
TORSDOF 4
ENDMDL
MODEL 3
REMARK minimizedAffinity -10.0392942
REMARK CNNscore 0.83058995
REMARK CNNaffinity 7.44446135
REMARK  4 active torsions:
REMARK  status: ('A' for Active; 'I' for Inactive)
REMARK    1  A    between atoms: O1_2  and  C2_3 
REMARK    2  A    between atoms: C6_7  and  N1_8 
REMARK    3  A    between atoms: N1_8  and  C7_9 
REMARK    4  A    between atoms: C11_15  and  C12_16 
ROOT
HETATM    1  C7  UNL     1       4.834  -5.019  29.189  1.00  0.00     0.684 A 
HETATM    2  N2  UNL     1       4.543  -3.942  29.930  1.00  0.00    -0.201 N 
ATOM      3  H2  UNL     1       3.645  -3.465  29.842  1.00  0.00     0.183 HD
HETATM    4  C8  UNL     1       5.480  -3.511  30.795  1.00  0.00     0.121 A 
HETATM    5  C9  UNL     1       6.704  -4.113  30.956  1.00  0.00     0.026 A 
HETATM    6  C10 UNL     1       7.711  -3.642  31.892  1.00  0.00     0.034 A 
HETATM    7  C11 UNL     1       8.882  -4.292  31.984  1.00  0.00     0.047 A 
HETATM    8  C18 UNL     1       9.161  -5.496  31.131  1.00  0.00     0.260 A 
HETATM    9  O2  UNL     1      10.244  -6.070  31.238  1.00  0.00    -0.267 OA
HETATM   10  N3  UNL     1       8.162  -5.896  30.257  1.00  0.00    -0.303 N 
HETATM   11  C19 UNL     1       8.367  -7.054  29.404  1.00  0.00     0.161 C 
HETATM   12  C20 UNL     1       6.923  -5.216  30.154  1.00  0.00     0.137 A 
HETATM   13  N4  UNL     1       6.003  -5.673  29.277  1.00  0.00    -0.175 N 
ATOM     14  H4  UNL     1       6.192  -6.491  28.698  1.00  0.00     0.186 HD
ENDROOT
BRANCH   1  15
HETATM   15  N1  UNL     1       3.937  -5.546  28.266  1.00  0.00    -0.192 N 
HETATM   16  H7  UNL     1       3.609  -4.804  27.664  1.00  0.00     0.184 HD
BRANCH  15  17
HETATM   17  C6  UNL     1       3.428  -6.825  28.018  1.00  0.00     0.051 A 
HETATM   18  C5  UNL     1       2.079  -7.166  28.139  1.00  0.00     0.030 A 
HETATM   19  C4  UNL     1       1.636  -8.466  27.876  1.00  0.00     0.005 A 
HETATM   20  C3  UNL     1       2.538  -9.455  27.485  1.00  0.00     0.037 A 
HETATM   21  C2  UNL     1       3.889  -9.144  27.357  1.00  0.00     0.070 A 
HETATM   22  C21 UNL     1       4.319  -7.837  27.623  1.00  0.00     0.066 A 
BRANCH  21  23
HETATM   23  O1  UNL     1       4.882 -10.008  26.984  1.00  0.00    -0.356 OA
HETATM   24  C1  UNL     1       6.214  -9.635  27.314  1.00  0.00     0.210 C 
ENDBRANCH  21  23
ENDBRANCH  15  17
ENDBRANCH   1  15
BRANCH   7  25
HETATM   25  C12 UNL     1       9.909  -3.818  32.933  1.00  0.00     0.023 A 
HETATM   26  C13 UNL     1       9.870  -4.194  34.288  1.00  0.00     0.046 A 
HETATM   27 CL1  UNL     1       8.647  -5.252  34.908  1.00  0.00    -0.083 Cl
HETATM   28  C14 UNL     1      10.835  -3.730  35.189  1.00  0.00     0.025 A 
HETATM   29  C15 UNL     1      11.852  -2.883  34.754  1.00  0.00     0.003 A 
HETATM   30  C16 UNL     1      11.906  -2.500  33.416  1.00  0.00     0.025 A 
HETATM   31  C17 UNL     1      10.943  -2.962  32.510  1.00  0.00     0.046 A 
HETATM   32 CL2  UNL     1      11.090  -2.448  30.863  1.00  0.00    -0.083 Cl
ENDBRANCH   7  25
TORSDOF 4
ENDMDL
MODEL 4
REMARK minimizedAffinity -6.75093174
REMARK CNNscore 0.777989388
REMARK CNNaffinity 5.96143723
REMARK  4 active torsions:
REMARK  status: ('A' for Active; 'I' for Inactive)
REMARK    1  A    between atoms: O1_2  and  C2_3 
REMARK    2  A    between atoms: C6_7  and  N1_8 
REMARK    3  A    between atoms: N1_8  and  C7_9 
REMARK    4  A    between atoms: C11_15  and  C12_16 
ROOT
HETATM    1  C7  UNL     1       6.011   4.772  46.055  1.00  0.00     0.684 A 
HETATM    2  N2  UNL     1       6.794   4.145  46.945  1.00  0.00    -0.201 N 
ATOM      3  H2  UNL     1       7.810   4.155  46.855  1.00  0.00     0.183 HD
HETATM    4  C8  UNL     1       6.188   3.501  47.960  1.00  0.00     0.121 A 
HETATM    5  C9  UNL     1       4.825   3.456  48.129  1.00  0.00     0.026 A 
HETATM    6  C10 UNL     1       4.179   2.758  49.228  1.00  0.00     0.034 A 
HETATM    7  C11 UNL     1       2.839   2.765  49.317  1.00  0.00     0.047 A 
HETATM    8  C18 UNL     1       2.005   3.483  48.294  1.00  0.00     0.260 A 
HETATM    9  O2  UNL     1       0.780   3.471  48.403  1.00  0.00    -0.267 OA
HETATM   10  N3  UNL     1       2.680   4.129  47.270  1.00  0.00    -0.303 N 
HETATM   11  C19 UNL     1       1.934   4.842  46.248  1.00  0.00     0.161 C 
HETATM   12  C20 UNL     1       4.094   4.127  47.169  1.00  0.00     0.137 A 
HETATM   13  N4  UNL     1       4.671   4.782  46.139  1.00  0.00    -0.175 N 
ATOM     14  H4  UNL     1       4.106   5.270  45.445  1.00  0.00     0.186 HD
ENDROOT
BRANCH   1  15
HETATM   15  N1  UNL     1       6.535   5.466  44.970  1.00  0.00    -0.192 N 
HETATM   16  H7  UNL     1       6.144   5.091  44.118  1.00  0.00     0.184 HD
BRANCH  15  17
HETATM   17  C6  UNL     1       7.444   6.520  44.831  1.00  0.00     0.051 A 
HETATM   18  C5  UNL     1       8.581   6.682  45.625  1.00  0.00     0.030 A 
HETATM   19  C4  UNL     1       9.450   7.760  45.432  1.00  0.00     0.005 A 
HETATM   20  C3  UNL     1       9.197   8.702  44.436  1.00  0.00     0.037 A 
HETATM   21  C2  UNL     1       8.072   8.566  43.629  1.00  0.00     0.070 A 
HETATM   22  C21 UNL     1       7.210   7.481  43.832  1.00  0.00     0.066 A 
BRANCH  21  23
HETATM   23  O1  UNL     1       7.700   9.409  42.617  1.00  0.00    -0.356 OA
HETATM   24  C1  UNL     1       7.259   8.805  41.408  1.00  0.00     0.210 C 
ENDBRANCH  21  23
ENDBRANCH  15  17
ENDBRANCH   1  15
BRANCH   7  25
HETATM   25  C12 UNL     1       2.176   2.058  50.430  1.00  0.00     0.023 A 
HETATM   26  C13 UNL     1       1.991   0.665  50.395  1.00  0.00     0.046 A 
HETATM   27 CL1  UNL     1       2.555  -0.299  49.071  1.00  0.00    -0.083 Cl
HETATM   28  C14 UNL     1       1.347  -0.000  51.444  1.00  0.00     0.025 A 
HETATM   29  C15 UNL     1       0.877   0.714  52.544  1.00  0.00     0.003 A 
HETATM   30  C16 UNL     1       1.051   2.094  52.596  1.00  0.00     0.025 A 
HETATM   31  C17 UNL     1       1.695   2.764  51.549  1.00  0.00     0.046 A 
HETATM   32 CL2  UNL     1       1.881   4.480  51.698  1.00  0.00    -0.083 Cl
ENDBRANCH   7  25
TORSDOF 4
ENDMDL
MODEL 5
REMARK minimizedAffinity -6.77312279
REMARK CNNscore 0.469119281
REMARK CNNaffinity 6.35280991
REMARK  4 active torsions:
REMARK  status: ('A' for Active; 'I' for Inactive)
REMARK    1  A    between atoms: O1_2  and  C2_3 
REMARK    2  A    between atoms: C6_7  and  N1_8 
REMARK    3  A    between atoms: N1_8  and  C7_9 
REMARK    4  A    between atoms: C11_15  and  C12_16 
ROOT
HETATM    1  C7  UNL     1       5.881   3.842  48.539  1.00  0.00     0.684 A 
HETATM    2  N2  UNL     1       6.654   3.112  47.722  1.00  0.00    -0.201 N 
ATOM      3  H2  UNL     1       7.110   2.260  48.048  1.00  0.00     0.183 HD
HETATM    4  C8  UNL     1       6.807   3.548  46.458  1.00  0.00     0.121 A 
HETATM    5  C9  UNL     1       6.216   4.687  45.967  1.00  0.00     0.026 A 
HETATM    6  C10 UNL     1       6.386   5.150  44.600  1.00  0.00     0.034 A 
HETATM    7  C11 UNL     1       5.771   6.276  44.204  1.00  0.00     0.047 A 
HETATM    8  C18 UNL     1       4.914   7.059  45.157  1.00  0.00     0.260 A 
HETATM    9  O2  UNL     1       4.364   8.087  44.764  1.00  0.00    -0.267 OA
HETATM   10  N3  UNL     1       4.791   6.566  46.447  1.00  0.00    -0.303 N 
HETATM   11  C19 UNL     1       3.977   7.275  47.418  1.00  0.00     0.161 C 
HETATM   12  C20 UNL     1       5.437   5.378  46.873  1.00  0.00     0.137 A 
HETATM   13  N4  UNL     1       5.264   4.968  48.148  1.00  0.00    -0.175 N 
ATOM     14  H4  UNL     1       4.681   5.499  48.795  1.00  0.00     0.186 HD
ENDROOT
BRANCH   1  15
HETATM   15  N1  UNL     1       5.658   3.481  49.863  1.00  0.00    -0.192 N 
HETATM   16  H7  UNL     1       6.314   3.971  50.454  1.00  0.00     0.184 HD
BRANCH  15  17
HETATM   17  C6  UNL     1       4.757   2.624  50.504  1.00  0.00     0.051 A 
HETATM   18  C5  UNL     1       5.046   1.919  51.673  1.00  0.00     0.030 A 
HETATM   19  C4  UNL     1       4.097   1.077  52.263  1.00  0.00     0.005 A 
HETATM   20  C3  UNL     1       2.834   0.926  51.691  1.00  0.00     0.037 A 
HETATM   21  C2  UNL     1       2.518   1.617  50.525  1.00  0.00     0.070 A 
HETATM   22  C21 UNL     1       3.478   2.456  49.945  1.00  0.00     0.066 A 
BRANCH  21  23
HETATM   23  O1  UNL     1       1.325   1.565  49.857  1.00  0.00    -0.356 OA
HETATM   24  C1  UNL     1       0.145   1.550  50.649  1.00  0.00     0.210 C 
ENDBRANCH  21  23
ENDBRANCH  15  17
ENDBRANCH   1  15
BRANCH   7  25
HETATM   25  C12 UNL     1       5.939   6.752  42.817  1.00  0.00     0.023 A 
HETATM   26  C13 UNL     1       5.168   6.217  41.769  1.00  0.00     0.046 A 
HETATM   27 CL1  UNL     1       3.963   5.004  42.049  1.00  0.00    -0.083 Cl
HETATM   28  C14 UNL     1       5.341   6.657  40.453  1.00  0.00     0.025 A 
HETATM   29  C15 UNL     1       6.287   7.637  40.160  1.00  0.00     0.003 A 
HETATM   30  C16 UNL     1       7.060   8.178  41.184  1.00  0.00     0.025 A 
HETATM   31  C17 UNL     1       6.891   7.741  42.503  1.00  0.00     0.046 A 
HETATM   32 CL2  UNL     1       7.884   8.474  43.718  1.00  0.00    -0.083 Cl
ENDBRANCH   7  25
TORSDOF 4
ENDMDL
MODEL 6
REMARK minimizedAffinity -7.63931894
REMARK CNNscore 0.401432902
REMARK CNNaffinity 6.22009659
REMARK  4 active torsions:
REMARK  status: ('A' for Active; 'I' for Inactive)
REMARK    1  A    between atoms: O1_2  and  C2_3 
REMARK    2  A    between atoms: C6_7  and  N1_8 
REMARK    3  A    between atoms: N1_8  and  C7_9 
REMARK    4  A    between atoms: C11_15  and  C12_16 
ROOT
HETATM    1  C7  UNL     1       9.580  -6.263  29.065  1.00  0.00     0.684 A 
HETATM    2  N2  UNL     1      10.550  -5.632  29.741  1.00  0.00    -0.201 N 
ATOM      3  H2  UNL     1      10.506  -4.628  29.917  1.00  0.00     0.183 HD
HETATM    4  C8  UNL     1      11.585  -6.374  30.179  1.00  0.00     0.121 A 
HETATM    5  C9  UNL     1      11.695  -7.727  29.971  1.00  0.00     0.026 A 
HETATM    6  C10 UNL     1      12.816  -8.521  30.446  1.00  0.00     0.034 A 
HETATM    7  C11 UNL     1      12.843  -9.840  30.198  1.00  0.00     0.047 A 
HETATM    8  C18 UNL     1      11.730 -10.501  29.435  1.00  0.00     0.260 A 
HETATM    9  O2  UNL     1      11.784 -11.711  29.224  1.00  0.00    -0.267 OA
HETATM   10  N3  UNL     1      10.690  -9.691  29.008  1.00  0.00    -0.303 N 
HETATM   11  C19 UNL     1       9.582 -10.267  28.266  1.00  0.00     0.161 C 
HETATM   12  C20 UNL     1      10.653  -8.297  29.266  1.00  0.00     0.137 A 
HETATM   13  N4  UNL     1       9.601  -7.581  28.814  1.00  0.00    -0.175 N 
ATOM     14  H4  UNL     1       8.845  -8.030  28.297  1.00  0.00     0.186 HD
ENDROOT
BRANCH   1  15
HETATM   15  N1  UNL     1       8.467  -5.591  28.570  1.00  0.00    -0.192 N 
HETATM   16  H7  UNL     1       8.770  -4.906  27.892  1.00  0.00     0.184 HD
BRANCH  15  17
HETATM   17  C6  UNL     1       7.091  -5.670  28.810  1.00  0.00     0.051 A 
HETATM   18  C5  UNL     1       6.256  -6.644  28.260  1.00  0.00     0.030 A 
HETATM   19  C4  UNL     1       4.887  -6.666  28.542  1.00  0.00     0.005 A 
HETATM   20  C3  UNL     1       4.324  -5.708  29.384  1.00  0.00     0.037 A 
HETATM   21  C2  UNL     1       5.132  -4.724  29.947  1.00  0.00     0.070 A 
HETATM   22  C21 UNL     1       6.502  -4.715  29.656  1.00  0.00     0.066 A 
BRANCH  21  23
HETATM   23  O1  UNL     1       4.719  -3.726  30.787  1.00  0.00    -0.356 OA
HETATM   24  C1  UNL     1       5.694  -2.765  31.170  1.00  0.00     0.210 C 
ENDBRANCH  21  23
ENDBRANCH  15  17
ENDBRANCH   1  15
BRANCH   7  25
HETATM   25  C12 UNL     1      13.978 -10.651  30.678  1.00  0.00     0.023 A 
HETATM   26  C13 UNL     1      13.982 -11.196  31.975  1.00  0.00     0.046 A 
HETATM   27 CL1  UNL     1      12.650 -10.977  33.061  1.00  0.00    -0.083 Cl
HETATM   28  C14 UNL     1      15.067 -11.951  32.434  1.00  0.00     0.025 A 
HETATM   29  C15 UNL     1      16.166 -12.173  31.608  1.00  0.00     0.003 A 
HETATM   30  C16 UNL     1      16.181 -11.642  30.321  1.00  0.00     0.025 A 
HETATM   31  C17 UNL     1      15.097 -10.886  29.857  1.00  0.00     0.046 A 
HETATM   32 CL2  UNL     1      15.190 -10.272  28.240  1.00  0.00    -0.083 Cl
ENDBRANCH   7  25
TORSDOF 4
ENDMDL
MODEL 7
REMARK minimizedAffinity -7.62752247
REMARK CNNscore 0.399033487
REMARK CNNaffinity 6.22372675
REMARK  4 active torsions:
REMARK  status: ('A' for Active; 'I' for Inactive)
REMARK    1  A    between atoms: O1_2  and  C2_3 
REMARK    2  A    between atoms: C6_7  and  N1_8 
REMARK    3  A    between atoms: N1_8  and  C7_9 
REMARK    4  A    between atoms: C11_15  and  C12_16 
ROOT
HETATM    1  C7  UNL     1       9.663  -6.193  29.085  1.00  0.00     0.684 A 
HETATM    2  N2  UNL     1      10.682  -5.556  29.677  1.00  0.00    -0.201 N 
ATOM      3  H2  UNL     1      10.673  -4.544  29.804  1.00  0.00     0.183 HD
HETATM    4  C8  UNL     1      11.720  -6.303  30.099  1.00  0.00     0.121 A 
HETATM    5  C9  UNL     1      11.785  -7.667  29.956  1.00  0.00     0.026 A 
HETATM    6  C10 UNL     1      12.909  -8.466  30.415  1.00  0.00     0.034 A 
HETATM    7  C11 UNL     1      12.890  -9.797  30.234  1.00  0.00     0.047 A 
HETATM    8  C18 UNL     1      11.723 -10.464  29.563  1.00  0.00     0.260 A 
HETATM    9  O2  UNL     1      11.736 -11.685  29.412  1.00  0.00    -0.267 OA
HETATM   10  N3  UNL     1      10.682  -9.649  29.148  1.00  0.00    -0.303 N 
HETATM   11  C19 UNL     1       9.523 -10.230  28.494  1.00  0.00     0.161 C 
HETATM   12  C20 UNL     1      10.694  -8.243  29.336  1.00  0.00     0.137 A 
HETATM   13  N4  UNL     1       9.638  -7.522  28.902  1.00  0.00    -0.175 N 
ATOM     14  H4  UNL     1       8.846  -7.975  28.447  1.00  0.00     0.186 HD
ENDROOT
BRANCH   1  15
HETATM   15  N1  UNL     1       8.543  -5.516  28.613  1.00  0.00    -0.192 N 
HETATM   16  H7  UNL     1       8.841  -4.781  27.988  1.00  0.00     0.184 HD
BRANCH  15  17
HETATM   17  C6  UNL     1       7.165  -5.643  28.820  1.00  0.00     0.051 A 
HETATM   18  C5  UNL     1       6.378  -6.645  28.249  1.00  0.00     0.030 A 
HETATM   19  C4  UNL     1       5.004  -6.715  28.498  1.00  0.00     0.005 A 
HETATM   20  C3  UNL     1       4.388  -5.779  29.328  1.00  0.00     0.037 A 
HETATM   21  C2  UNL     1       5.148  -4.769  29.910  1.00  0.00     0.070 A 
HETATM   22  C21 UNL     1       6.523  -4.711  29.652  1.00  0.00     0.066 A 
BRANCH  21  23
HETATM   23  O1  UNL     1       4.680  -3.787  30.742  1.00  0.00    -0.356 OA
HETATM   24  C1  UNL     1       5.611  -2.791  31.145  1.00  0.00     0.210 C 
ENDBRANCH  21  23
ENDBRANCH  15  17
ENDBRANCH   1  15
BRANCH   7  25
HETATM   25  C12 UNL     1      14.029 -10.614  30.697  1.00  0.00     0.023 A 
HETATM   26  C13 UNL     1      15.122 -10.878  29.852  1.00  0.00     0.046 A 
HETATM   27 CL1  UNL     1      15.210 -10.236  28.245  1.00  0.00    -0.083 Cl
HETATM   28  C14 UNL     1      16.192 -11.667  30.287  1.00  0.00     0.025 A 
HETATM   29  C15 UNL     1      16.189 -12.207  31.571  1.00  0.00     0.003 A 
HETATM   30  C16 UNL     1      15.115 -11.957  32.422  1.00  0.00     0.025 A 
HETATM   31  C17 UNL     1      14.042 -11.168  31.991  1.00  0.00     0.046 A 
HETATM   32 CL2  UNL     1      12.753 -10.896  33.115  1.00  0.00    -0.083 Cl
ENDBRANCH   7  25
TORSDOF 4
ENDMDL
MODEL 8
REMARK minimizedAffinity -6.38856173
REMARK CNNscore 0.275330633
REMARK CNNaffinity 5.18462753
REMARK  4 active torsions:
REMARK  status: ('A' for Active; 'I' for Inactive)
REMARK    1  A    between atoms: O1_2  and  C2_3 
REMARK    2  A    between atoms: C6_7  and  N1_8 
REMARK    3  A    between atoms: N1_8  and  C7_9 
REMARK    4  A    between atoms: C11_15  and  C12_16 
ROOT
HETATM    1  C7  UNL     1      23.669   1.574  40.774  1.00  0.00     0.684 A 
HETATM    2  N2  UNL     1      23.163   0.441  40.268  1.00  0.00    -0.201 N 
ATOM      3  H2  UNL     1      23.142   0.274  39.262  1.00  0.00     0.183 HD
HETATM    4  C8  UNL     1      22.683  -0.468  41.137  1.00  0.00     0.121 A 
HETATM    5  C9  UNL     1      22.687  -0.296  42.500  1.00  0.00     0.026 A 
HETATM    6  C10 UNL     1      22.167  -1.283  43.432  1.00  0.00     0.034 A 
HETATM    7  C11 UNL     1      22.210  -1.032  44.750  1.00  0.00     0.047 A 
HETATM    8  C18 UNL     1      22.787   0.254  45.269  1.00  0.00     0.260 A 
HETATM    9  O2  UNL     1      22.813   0.454  46.482  1.00  0.00    -0.267 OA
HETATM   10  N3  UNL     1      23.267   1.154  44.331  1.00  0.00    -0.303 N 
HETATM   11  C19 UNL     1      23.838   2.417  44.766  1.00  0.00     0.161 C 
HETATM   12  C20 UNL     1      23.225   0.898  42.937  1.00  0.00     0.137 A 
HETATM   13  N4  UNL     1      23.714   1.830  42.091  1.00  0.00    -0.175 N 
ATOM     14  H4  UNL     1      24.107   2.703  42.443  1.00  0.00     0.186 HD
ENDROOT
BRANCH   1  15
HETATM   15  N1  UNL     1      24.190   2.578  39.965  1.00  0.00    -0.192 N 
HETATM   16  H7  UNL     1      25.179   2.419  39.838  1.00  0.00     0.184 HD
BRANCH  15  17
HETATM   17  C6  UNL     1      23.648   3.699  39.328  1.00  0.00     0.051 A 
HETATM   18  C5  UNL     1      22.723   3.635  38.284  1.00  0.00     0.030 A 
HETATM   19  C4  UNL     1      22.221   4.797  37.691  1.00  0.00     0.005 A 
HETATM   20  C3  UNL     1      22.635   6.053  38.134  1.00  0.00     0.037 A 
HETATM   21  C2  UNL     1      23.556   6.147  39.173  1.00  0.00     0.070 A 
HETATM   22  C21 UNL     1      24.051   4.975  39.758  1.00  0.00     0.066 A 
BRANCH  21  23
HETATM   23  O1  UNL     1      24.050   7.306  39.708  1.00  0.00    -0.356 OA
HETATM   24  C1  UNL     1      24.736   7.198  40.948  1.00  0.00     0.210 C 
ENDBRANCH  21  23
ENDBRANCH  15  17
ENDBRANCH   1  15
BRANCH   7  25
HETATM   25  C12 UNL     1      21.683  -2.030  45.702  1.00  0.00     0.023 A 
HETATM   26  C13 UNL     1      20.334  -2.012  46.097  1.00  0.00     0.046 A 
HETATM   27 CL1  UNL     1      19.213  -0.850  45.468  1.00  0.00    -0.083 Cl
HETATM   28  C14 UNL     1      19.841  -2.949  47.012  1.00  0.00     0.025 A 
HETATM   29  C15 UNL     1      20.686  -3.917  47.549  1.00  0.00     0.003 A 
HETATM   30  C16 UNL     1      22.026  -3.950  47.170  1.00  0.00     0.025 A 
HETATM   31  C17 UNL     1      22.524  -3.015  46.254  1.00  0.00     0.046 A 
HETATM   32 CL2  UNL     1      24.198  -3.134  45.828  1.00  0.00    -0.083 Cl
ENDBRANCH   7  25
TORSDOF 4
ENDMDL
MODEL 9
REMARK minimizedAffinity -8.37257481
REMARK CNNscore 0.266096234
REMARK CNNaffinity 6.73794746
REMARK  4 active torsions:
REMARK  status: ('A' for Active; 'I' for Inactive)
REMARK    1  A    between atoms: O1_2  and  C2_3 
REMARK    2  A    between atoms: C6_7  and  N1_8 
REMARK    3  A    between atoms: N1_8  and  C7_9 
REMARK    4  A    between atoms: C11_15  and  C12_16 
ROOT
HETATM    1  C7  UNL     1       6.279  -6.206  28.208  1.00  0.00     0.684 A 
HETATM    2  N2  UNL     1       5.671  -5.190  28.837  1.00  0.00    -0.201 N 
ATOM      3  H2  UNL     1       4.751  -4.862  28.545  1.00  0.00     0.183 HD
HETATM    4  C8  UNL     1       6.322  -4.620  29.869  1.00  0.00     0.121 A 
HETATM    5  C9  UNL     1       7.561  -5.022  30.305  1.00  0.00     0.026 A 
HETATM    6  C10 UNL     1       8.256  -4.401  31.419  1.00  0.00     0.034 A 
HETATM    7  C11 UNL     1       9.466  -4.858  31.779  1.00  0.00     0.047 A 
HETATM    8  C18 UNL     1      10.107  -6.000  31.042  1.00  0.00     0.260 A 
HETATM    9  O2  UNL     1      11.216  -6.396  31.396  1.00  0.00    -0.267 OA
HETATM   10  N3  UNL     1       9.394  -6.550  29.988  1.00  0.00    -0.303 N 
HETATM   11  C19 UNL     1       9.955  -7.657  29.234  1.00  0.00     0.161 C 
HETATM   12  C20 UNL     1       8.115  -6.074  29.602  1.00  0.00     0.137 A 
HETATM   13  N4  UNL     1       7.489  -6.667  28.563  1.00  0.00    -0.175 N 
ATOM     14  H4  UNL     1       7.922  -7.443  28.063  1.00  0.00     0.186 HD
ENDROOT
BRANCH   1  15
HETATM   15  N1  UNL     1       5.695  -6.864  27.131  1.00  0.00    -0.192 N 
HETATM   16  H7  UNL     1       5.226  -6.188  26.546  1.00  0.00     0.184 HD
BRANCH  15  17
HETATM   17  C6  UNL     1       5.631  -8.200  26.721  1.00  0.00     0.051 A 
HETATM   18  C5  UNL     1       6.610  -8.827  25.947  1.00  0.00     0.030 A 
HETATM   19  C4  UNL     1       6.483 -10.169  25.571  1.00  0.00     0.005 A 
HETATM   20  C3  UNL     1       5.370 -10.911  25.964  1.00  0.00     0.037 A 
HETATM   21  C2  UNL     1       4.379 -10.311  26.735  1.00  0.00     0.070 A 
HETATM   22  C21 UNL     1       4.518  -8.967  27.105  1.00  0.00     0.066 A 
BRANCH  21  23
HETATM   23  O1  UNL     1       3.237 -10.914  27.190  1.00  0.00    -0.356 OA
HETATM   24  C1  UNL     1       2.078 -10.789  26.378  1.00  0.00     0.210 C 
ENDBRANCH  21  23
ENDBRANCH  15  17
ENDBRANCH   1  15
BRANCH   7  25
HETATM   25  C12 UNL     1      10.178  -4.232  32.910  1.00  0.00     0.023 A 
HETATM   26  C13 UNL     1      11.237  -3.332  32.691  1.00  0.00     0.046 A 
HETATM   27 CL1  UNL     1      11.739  -2.884  31.094  1.00  0.00    -0.083 Cl
HETATM   28  C14 UNL     1      11.921  -2.753  33.764  1.00  0.00     0.025 A 
HETATM   29  C15 UNL     1      11.562  -3.063  35.075  1.00  0.00     0.003 A 
HETATM   30  C16 UNL     1      10.517  -3.952  35.311  1.00  0.00     0.025 A 
HETATM   31  C17 UNL     1       9.829  -4.534  34.240  1.00  0.00     0.046 A 
HETATM   32 CL2  UNL     1       8.534  -5.619  34.622  1.00  0.00    -0.083 Cl
ENDBRANCH   7  25
TORSDOF 4
ENDMDL
