MODEL 1
REMARK minimizedAffinity -7.1316576
REMARK  0 active torsions:
REMARK  status: ('A' for Active; 'I' for Inactive)
ROOT
HETATM    1 CL1  UNL     1      11.549  35.646  19.125  1.00  0.00    -0.194 Cl
HETATM    2 CL2  UNL     1      15.535  36.624  16.183  1.00  0.00    -0.085 Cl
HETATM    3  C1  UNL     1      14.366  35.844  17.259  1.00  0.00     0.034 A 
HETATM    4  C2  UNL     1      14.198  34.473  17.274  1.00  0.00     0.023 A 
HETATM    5  C3  UNL     1      13.276  33.850  18.119  1.00  0.00     0.002 A 
HETATM    6  C4  UNL     1      12.517  34.665  18.961  1.00  0.00     0.023 A 
HETATM    7  C5  UNL     1      12.700  36.032  18.931  1.00  0.00     0.131 A 
HETATM    8  N1  UNL     1      11.928  36.865  19.791  1.00  0.00    -0.351 N 
HETATM    9  C6  UNL     1      10.934  36.360  20.677  1.00  0.00     0.096 A 
HETATM   10  N2  UNL     1      11.207  35.948  21.931  1.00  0.00    -0.341 N 
ATOM     11  H2  UNL     1      12.162  35.984  22.286  1.00  0.00     0.167 HD
HETATM   12  C7  UNL     1      10.195  35.482  22.723  1.00  0.00     0.182 A 
HETATM   13  N3  UNL     1       8.916  35.437  22.242  1.00  0.00    -0.355 N 
ATOM     14  H3  UNL     1       8.165  35.089  22.838  1.00  0.00     0.166 HD
HETATM   15  C8  UNL     1       8.641  35.848  20.989  1.00  0.00     0.028 A 
HETATM   16  C9  UNL     1       7.336  35.809  20.483  1.00  0.00     0.026 A 
HETATM   17  C10 UNL     1       7.063  36.236  19.193  1.00  0.00     0.002 A 
HETATM   18  C11 UNL     1       8.065  36.708  18.372  1.00  0.00    -0.003 A 
HETATM   19  C12 UNL     1       9.364  36.748  18.874  1.00  0.00    -0.005 A 
HETATM   20  C13 UNL     1       9.633  36.324  20.160  1.00  0.00     0.081 A 
HETATM   21  C14 UNL     1      13.611  36.654  18.096  1.00  0.00     0.047 A 
HETATM   22  H1  UNL     1      10.303  36.017  19.571  1.00  0.00     0.161 HD
HETATM   23  H5  UNL     1      12.062  37.906  19.810  1.00  0.00     0.163 HD
ENDROOT
TORSDOF 0
ENDMDL
MODEL 2
REMARK minimizedAffinity -7.1055975
REMARK  0 active torsions:
REMARK  status: ('A' for Active; 'I' for Inactive)
ROOT
HETATM    1 CL1  UNL     1      12.983  35.675  18.208  1.00  0.00    -0.194 Cl
HETATM    2 CL2  UNL     1      17.595  35.358  16.177  1.00  0.00    -0.085 Cl
HETATM    3  C1  UNL     1      16.063  35.953  16.832  1.00  0.00     0.034 A 
HETATM    4  C2  UNL     1      15.961  37.200  17.418  1.00  0.00     0.023 A 
HETATM    5  C3  UNL     1      14.756  37.676  17.938  1.00  0.00     0.002 A 
HETATM    6  C4  UNL     1      13.638  36.844  17.848  1.00  0.00     0.023 A 
HETATM    7  C5  UNL     1      13.760  35.603  17.258  1.00  0.00     0.131 A 
HETATM    8  N1  UNL     1      12.621  34.754  17.163  1.00  0.00    -0.351 N 
HETATM    9  C6  UNL     1      11.342  35.106  17.682  1.00  0.00     0.096 A 
HETATM   10  N2  UNL     1      10.426  35.796  16.973  1.00  0.00    -0.341 N 
ATOM     11  H2  UNL     1      10.634  36.097  16.021  1.00  0.00     0.167 HD
HETATM   12  C7  UNL     1       9.217  36.090  17.539  1.00  0.00     0.182 A 
HETATM   13  N3  UNL     1       8.943  35.683  18.815  1.00  0.00    -0.355 N 
ATOM     14  H3  UNL     1       8.039  35.904  19.233  1.00  0.00     0.166 HD
HETATM   15  C8  UNL     1       9.857  34.993  19.526  1.00  0.00     0.028 A 
HETATM   16  C9  UNL     1       9.591  34.569  20.833  1.00  0.00     0.026 A 
HETATM   17  C10 UNL     1      10.537  33.858  21.555  1.00  0.00     0.002 A 
HETATM   18  C11 UNL     1      11.765  33.550  21.008  1.00  0.00    -0.003 A 
HETATM   19  C12 UNL     1      12.032  33.971  19.707  1.00  0.00    -0.005 A 
HETATM   20  C13 UNL     1      11.087  34.678  18.991  1.00  0.00     0.081 A 
HETATM   21  C14 UNL     1      14.952  35.127  16.742  1.00  0.00     0.047 A 
HETATM   22  H1  UNL     1      11.942  35.052  18.854  1.00  0.00     0.161 HD
HETATM   23  H5  UNL     1      12.675  33.814  16.698  1.00  0.00     0.163 HD
ENDROOT
TORSDOF 0
ENDMDL
MODEL 3
REMARK minimizedAffinity -6.56590986
REMARK  0 active torsions:
REMARK  status: ('A' for Active; 'I' for Inactive)
ROOT
HETATM    1 CL1  UNL     1      16.729  53.723   5.543  1.00  0.00    -0.194 Cl
HETATM    2 CL2  UNL     1      14.861  57.411   2.644  1.00  0.00    -0.085 Cl
HETATM    3  C1  UNL     1      15.048  55.961   3.640  1.00  0.00     0.034 A 
HETATM    4  C2  UNL     1      13.993  55.441   4.366  1.00  0.00     0.023 A 
HETATM    5  C3  UNL     1      14.133  54.297   5.156  1.00  0.00     0.002 A 
HETATM    6  C4  UNL     1      15.387  53.684   5.192  1.00  0.00     0.023 A 
HETATM    7  C5  UNL     1      16.427  54.219   4.459  1.00  0.00     0.131 A 
HETATM    8  N1  UNL     1      17.706  53.594   4.493  1.00  0.00    -0.351 N 
HETATM    9  C6  UNL     1      17.990  52.443   5.282  1.00  0.00     0.096 A 
HETATM   10  N2  UNL     1      17.797  51.183   4.840  1.00  0.00    -0.341 N 
ATOM     11  H2  UNL     1      17.427  51.019   3.904  1.00  0.00     0.167 HD
HETATM   12  C7  UNL     1      18.100  50.129   5.656  1.00  0.00     0.182 A 
HETATM   13  N3  UNL     1      18.596  50.356   6.909  1.00  0.00    -0.355 N 
ATOM     14  H3  UNL     1      18.822  49.566   7.514  1.00  0.00     0.166 HD
HETATM   15  C8  UNL     1      18.790  51.614   7.353  1.00  0.00     0.028 A 
HETATM   16  C9  UNL     1      19.298  51.861   8.633  1.00  0.00     0.026 A 
HETATM   17  C10 UNL     1      19.495  53.159   9.080  1.00  0.00     0.002 A 
HETATM   18  C11 UNL     1      19.196  54.240   8.278  1.00  0.00    -0.003 A 
HETATM   19  C12 UNL     1      18.691  53.995   7.003  1.00  0.00    -0.005 A 
HETATM   20  C13 UNL     1      18.497  52.702   6.561  1.00  0.00     0.081 A 
HETATM   21  C14 UNL     1      16.294  55.352   3.676  1.00  0.00     0.047 A 
HETATM   22  H1  UNL     1      17.768  53.244   6.305  1.00  0.00     0.161 HD
HETATM   23  H5  UNL     1      18.511  53.962   3.927  1.00  0.00     0.163 HD
ENDROOT
TORSDOF 0
ENDMDL
MODEL 4
REMARK minimizedAffinity -6.55190754
REMARK  0 active torsions:
REMARK  status: ('A' for Active; 'I' for Inactive)
ROOT
HETATM    1 CL1  UNL     1      13.456  36.111  17.535  1.00  0.00    -0.194 Cl
HETATM    2 CL2  UNL     1      17.681  35.778  14.789  1.00  0.00    -0.085 Cl
HETATM    3  C1  UNL     1      16.201  36.355  15.569  1.00  0.00     0.034 A 
HETATM    4  C2  UNL     1      16.008  37.692  15.858  1.00  0.00     0.023 A 
HETATM    5  C3  UNL     1      14.843  38.154  16.475  1.00  0.00     0.002 A 
HETATM    6  C4  UNL     1      13.862  37.213  16.795  1.00  0.00     0.023 A 
HETATM    7  C5  UNL     1      14.073  35.882  16.497  1.00  0.00     0.131 A 
HETATM    8  N1  UNL     1      13.074  34.922  16.820  1.00  0.00    -0.351 N 
HETATM    9  C6  UNL     1      11.856  35.256  17.478  1.00  0.00     0.096 A 
HETATM   10  N2  UNL     1      10.746  35.642  16.816  1.00  0.00    -0.341 N 
ATOM     11  H2  UNL     1      10.752  35.711  15.799  1.00  0.00     0.167 HD
HETATM   12  C7  UNL     1       9.612  35.940  17.520  1.00  0.00     0.182 A 
HETATM   13  N3  UNL     1       9.609  35.846  18.883  1.00  0.00    -0.355 N 
ATOM     14  H3  UNL     1       8.760  36.069  19.403  1.00  0.00     0.166 HD
HETATM   15  C8  UNL     1      10.717  35.460  19.546  1.00  0.00     0.028 A 
HETATM   16  C9  UNL     1      10.729  35.357  20.942  1.00  0.00     0.026 A 
HETATM   17  C10 UNL     1      11.874  34.958  21.614  1.00  0.00     0.002 A 
HETATM   18  C11 UNL     1      13.030  34.653  20.930  1.00  0.00    -0.003 A 
HETATM   19  C12 UNL     1      13.021  34.755  19.541  1.00  0.00    -0.005 A 
HETATM   20  C13 UNL     1      11.879  35.151  18.874  1.00  0.00     0.081 A 
HETATM   21  C14 UNL     1      15.226  35.420  15.887  1.00  0.00     0.047 A 
HETATM   22  H1  UNL     1      12.636  35.567  18.493  1.00  0.00     0.161 HD
HETATM   23  H5  UNL     1      13.194  33.905  16.584  1.00  0.00     0.163 HD
ENDROOT
TORSDOF 0
ENDMDL
MODEL 5
REMARK minimizedAffinity -6.52675915
REMARK  0 active torsions:
REMARK  status: ('A' for Active; 'I' for Inactive)
ROOT
HETATM    1 CL1  UNL     1      12.512  36.072  18.206  1.00  0.00    -0.194 Cl
HETATM    2 CL2  UNL     1       7.479  36.238  18.575  1.00  0.00    -0.085 Cl
HETATM    3  C1  UNL     1       9.209  36.170  18.939  1.00  0.00     0.034 A 
HETATM    4  C2  UNL     1       9.720  36.670  20.122  1.00  0.00     0.023 A 
HETATM    5  C3  UNL     1      11.085  36.622  20.416  1.00  0.00     0.002 A 
HETATM    6  C4  UNL     1      11.932  36.045  19.467  1.00  0.00     0.023 A 
HETATM    7  C5  UNL     1      11.402  35.552  18.292  1.00  0.00     0.131 A 
HETATM    8  N1  UNL     1      12.263  34.962  17.324  1.00  0.00    -0.351 N 
HETATM    9  C6  UNL     1      13.676  34.879  17.486  1.00  0.00     0.096 A 
HETATM   10  N2  UNL     1      14.284  33.851  18.112  1.00  0.00    -0.341 N 
ATOM     11  H2  UNL     1      13.732  33.087  18.501  1.00  0.00     0.167 HD
HETATM   12  C7  UNL     1      15.647  33.841  18.222  1.00  0.00     0.182 A 
HETATM   13  N3  UNL     1      16.383  34.867  17.698  1.00  0.00    -0.355 N 
ATOM     14  H3  UNL     1      17.399  34.854  17.782  1.00  0.00     0.166 HD
HETATM   15  C8  UNL     1      15.776  35.895  17.072  1.00  0.00     0.028 A 
HETATM   16  C9  UNL     1      16.516  36.952  16.530  1.00  0.00     0.026 A 
HETATM   17  C10 UNL     1      15.883  38.004  15.887  1.00  0.00     0.002 A 
HETATM   18  C11 UNL     1      14.511  38.040  15.763  1.00  0.00    -0.003 A 
HETATM   19  C12 UNL     1      13.773  36.989  16.302  1.00  0.00    -0.005 A 
HETATM   20  C13 UNL     1      14.406  35.942  16.941  1.00  0.00     0.081 A 
HETATM   21  C14 UNL     1      10.051  35.598  17.996  1.00  0.00     0.047 A 
HETATM   22  H1  UNL     1      13.634  36.195  17.422  1.00  0.00     0.161 HD
HETATM   23  H5  UNL     1      11.888  34.555  16.432  1.00  0.00     0.163 HD
ENDROOT
TORSDOF 0
ENDMDL
MODEL 6
REMARK minimizedAffinity -6.48966455
REMARK  0 active torsions:
REMARK  status: ('A' for Active; 'I' for Inactive)
ROOT
HETATM    1 CL1  UNL     1       9.409  35.261  20.284  1.00  0.00    -0.194 Cl
HETATM    2 CL2  UNL     1       4.915  33.050  19.640  1.00  0.00    -0.085 Cl
HETATM    3  C1  UNL     1       6.230  34.229  19.750  1.00  0.00     0.034 A 
HETATM    4  C2  UNL     1       6.217  35.398  19.014  1.00  0.00     0.023 A 
HETATM    5  C3  UNL     1       7.251  36.333  19.094  1.00  0.00     0.002 A 
HETATM    6  C4  UNL     1       8.317  36.049  19.951  1.00  0.00     0.023 A 
HETATM    7  C5  UNL     1       8.310  34.876  20.678  1.00  0.00     0.131 A 
HETATM    8  N1  UNL     1       9.394  34.586  21.555  1.00  0.00    -0.351 N 
HETATM    9  C6  UNL     1      10.524  35.439  21.704  1.00  0.00     0.096 A 
HETATM   10  N2  UNL     1      10.566  36.456  22.589  1.00  0.00    -0.341 N 
ATOM     11  H2  UNL     1       9.763  36.649  23.187  1.00  0.00     0.167 HD
HETATM   12  C7  UNL     1      11.692  37.226  22.678  1.00  0.00     0.182 A 
HETATM   13  N3  UNL     1      12.765  36.963  21.874  1.00  0.00    -0.355 N 
ATOM     14  H3  UNL     1      13.603  37.540  21.945  1.00  0.00     0.166 HD
HETATM   15  C8  UNL     1      12.726  35.946  20.989  1.00  0.00     0.028 A 
HETATM   16  C9  UNL     1      13.818  35.663  20.161  1.00  0.00     0.026 A 
HETATM   17  C10 UNL     1      13.768  34.615  19.255  1.00  0.00     0.002 A 
HETATM   18  C11 UNL     1      12.645  33.824  19.144  1.00  0.00    -0.003 A 
HETATM   19  C12 UNL     1      11.557  34.104  19.968  1.00  0.00    -0.005 A 
HETATM   20  C13 UNL     1      11.610  35.147  20.870  1.00  0.00     0.081 A 
HETATM   21  C14 UNL     1       7.288  33.947  20.602  1.00  0.00     0.047 A 
HETATM   22  H1  UNL     1      10.767  35.129  20.447  1.00  0.00     0.161 HD
HETATM   23  H5  UNL     1       9.406  33.714  22.140  1.00  0.00     0.163 HD
ENDROOT
TORSDOF 0
ENDMDL
MODEL 7
REMARK minimizedAffinity -6.46601105
REMARK  0 active torsions:
REMARK  status: ('A' for Active; 'I' for Inactive)
ROOT
HETATM    1 CL1  UNL     1       1.912  65.470  -4.317  1.00  0.00    -0.194 Cl
HETATM    2 CL2  UNL     1       5.652  66.480  -7.556  1.00  0.00    -0.085 Cl
HETATM    3  C1  UNL     1       4.098  66.027  -6.840  1.00  0.00     0.034 A 
HETATM    4  C2  UNL     1       2.911  66.185  -7.528  1.00  0.00     0.023 A 
HETATM    5  C3  UNL     1       1.680  65.832  -6.970  1.00  0.00     0.002 A 
HETATM    6  C4  UNL     1       1.683  65.306  -5.676  1.00  0.00     0.023 A 
HETATM    7  C5  UNL     1       2.880  65.155  -5.006  1.00  0.00     0.131 A 
HETATM    8  N1  UNL     1       2.886  64.618  -3.688  1.00  0.00    -0.351 N 
HETATM    9  C6  UNL     1       1.700  64.247  -2.992  1.00  0.00     0.096 A 
HETATM   10  N2  UNL     1       1.142  63.024  -3.091  1.00  0.00    -0.341 N 
ATOM     11  H2  UNL     1       1.565  62.313  -3.688  1.00  0.00     0.167 HD
HETATM   12  C7  UNL     1       0.005  62.742  -2.386  1.00  0.00     0.182 A 
HETATM   13  N3  UNL     1      -0.558  63.698  -1.587  1.00  0.00    -0.355 N 
ATOM     14  H3  UNL     1      -1.406  63.484  -1.062  1.00  0.00     0.166 HD
HETATM   15  C8  UNL     1      -0.001  64.922  -1.487  1.00  0.00     0.028 A 
HETATM   16  C9  UNL     1      -0.565  65.911  -0.672  1.00  0.00     0.026 A 
HETATM   17  C10 UNL     1       0.016  67.166  -0.574  1.00  0.00     0.002 A 
HETATM   18  C11 UNL     1       1.161  67.476  -1.276  1.00  0.00    -0.003 A 
HETATM   19  C12 UNL     1       1.724  66.493  -2.087  1.00  0.00    -0.005 A 
HETATM   20  C13 UNL     1       1.144  65.244  -2.181  1.00  0.00     0.081 A 
HETATM   21  C14 UNL     1       4.101  65.505  -5.555  1.00  0.00     0.047 A 
HETATM   22  H1  UNL     1       1.424  65.535  -3.034  1.00  0.00     0.161 HD
HETATM   23  H5  UNL     1       3.783  64.468  -3.161  1.00  0.00     0.163 HD
ENDROOT
TORSDOF 0
ENDMDL
MODEL 8
REMARK minimizedAffinity -6.45046806
REMARK  0 active torsions:
REMARK  status: ('A' for Active; 'I' for Inactive)
ROOT
HETATM    1 CL1  UNL     1      14.514  56.048   2.660  1.00  0.00    -0.194 Cl
HETATM    2 CL2  UNL     1      17.593  53.128   5.396  1.00  0.00    -0.085 Cl
HETATM    3  C1  UNL     1      16.220  54.088   4.829  1.00  0.00     0.034 A 
HETATM    4  C2  UNL     1      14.930  53.826   5.251  1.00  0.00     0.023 A 
HETATM    5  C3  UNL     1      13.840  54.579   4.807  1.00  0.00     0.002 A 
HETATM    6  C4  UNL     1      14.094  55.621   3.911  1.00  0.00     0.023 A 
HETATM    7  C5  UNL     1      15.389  55.867   3.504  1.00  0.00     0.131 A 
HETATM    8  N1  UNL     1      15.650  56.929   2.593  1.00  0.00    -0.351 N 
HETATM    9  C6  UNL     1      14.626  57.751   2.041  1.00  0.00     0.096 A 
HETATM   10  N2  UNL     1      14.178  58.871   2.644  1.00  0.00    -0.341 N 
ATOM     11  H2  UNL     1      14.569  59.164   3.539  1.00  0.00     0.167 HD
HETATM   12  C7  UNL     1      13.196  59.611   2.046  1.00  0.00     0.182 A 
HETATM   13  N3  UNL     1      12.676  59.214   0.846  1.00  0.00    -0.355 N 
ATOM     14  H3  UNL     1      11.944  59.770   0.403  1.00  0.00     0.166 HD
HETATM   15  C8  UNL     1      13.122  58.095   0.242  1.00  0.00     0.028 A 
HETATM   16  C9  UNL     1      12.601  57.677  -0.988  1.00  0.00     0.026 A 
HETATM   17  C10 UNL     1      13.068  56.525  -1.602  1.00  0.00     0.002 A 
HETATM   18  C11 UNL     1      14.056  55.760  -1.020  1.00  0.00    -0.003 A 
HETATM   19  C12 UNL     1      14.577  56.174   0.203  1.00  0.00    -0.005 A 
HETATM   20  C13 UNL     1      14.110  57.323   0.812  1.00  0.00     0.081 A 
HETATM   21  C14 UNL     1      16.471  55.123   3.940  1.00  0.00     0.047 A 
HETATM   22  H1  UNL     1      14.226  56.641   1.454  1.00  0.00     0.161 HD
HETATM   23  H5  UNL     1      16.627  57.158   2.283  1.00  0.00     0.163 HD
ENDROOT
TORSDOF 0
ENDMDL
MODEL 9
REMARK minimizedAffinity -6.33688879
REMARK  0 active torsions:
REMARK  status: ('A' for Active; 'I' for Inactive)
ROOT
HETATM    1 CL1  UNL     1      13.641  36.018  17.342  1.00  0.00    -0.194 Cl
HETATM    2 CL2  UNL     1       9.029  35.317  19.274  1.00  0.00    -0.085 Cl
HETATM    3  C1  UNL     1      10.708  35.100  18.760  1.00  0.00     0.034 A 
HETATM    4  C2  UNL     1      11.560  34.234  19.417  1.00  0.00     0.023 A 
HETATM    5  C3  UNL     1      12.887  34.058  19.019  1.00  0.00     0.002 A 
HETATM    6  C4  UNL     1      13.336  34.793  17.920  1.00  0.00     0.023 A 
HETATM    7  C5  UNL     1      12.469  35.653  17.276  1.00  0.00     0.131 A 
HETATM    8  N1  UNL     1      12.925  36.402  16.154  1.00  0.00    -0.351 N 
HETATM    9  C6  UNL     1      14.261  36.339  15.666  1.00  0.00     0.096 A 
HETATM   10  N2  UNL     1      14.669  35.430  14.757  1.00  0.00    -0.341 N 
ATOM     11  H2  UNL     1      14.013  34.741  14.390  1.00  0.00     0.167 HD
HETATM   12  C7  UNL     1      15.969  35.439  14.333  1.00  0.00     0.182 A 
HETATM   13  N3  UNL     1      16.844  36.365  14.829  1.00  0.00    -0.355 N 
ATOM     14  H3  UNL     1      17.812  36.367  14.508  1.00  0.00     0.166 HD
HETATM   15  C8  UNL     1      16.438  37.274  15.737  1.00  0.00     0.028 A 
HETATM   16  C9  UNL     1      17.321  38.229  16.253  1.00  0.00     0.026 A 
HETATM   17  C10 UNL     1      16.893  39.161  17.186  1.00  0.00     0.002 A 
HETATM   18  C11 UNL     1      15.589  39.173  17.632  1.00  0.00    -0.003 A 
HETATM   19  C12 UNL     1      14.708  38.224  17.120  1.00  0.00    -0.005 A 
HETATM   20  C13 UNL     1      15.137  37.298  16.190  1.00  0.00     0.081 A 
HETATM   21  C14 UNL     1      11.154  35.831  17.668  1.00  0.00     0.047 A 
HETATM   22  H1  UNL     1      14.576  36.882  16.825  1.00  0.00     0.161 HD
HETATM   23  H5  UNL     1      12.282  37.045  15.628  1.00  0.00     0.163 HD
ENDROOT
TORSDOF 0
ENDMDL
