MODEL 1
REMARK minimizedAffinity -7.29477596
REMARK  4 active torsions:
REMARK  status: ('A' for Active; 'I' for Inactive)
REMARK    1  A    between atoms: N1_1  and  C1_2 
REMARK    2  A    between atoms: C1_2  and  N2_4 
REMARK    3  A    between atoms: C2_7  and  C3_8 
REMARK    4  A    between atoms: C10_16  and  C11_17 
ROOT
HETATM    1  N2  UNL     1      18.690  52.692   6.960  1.00  0.00    -0.258 N 
HETATM    2  N3  UNL     1      18.511  51.402   7.430  1.00  0.00    -0.299 N 
ATOM      3  H3  UNL     1      18.489  51.107   8.407  1.00  0.00     0.187 HD
HETATM    4  C2  UNL     1      18.376  50.638   6.387  1.00  0.00     0.038 C 
HETATM    5  C9  UNL     1      18.527  51.331   5.058  1.00  0.00     0.091 C 
HETATM    6  C10 UNL     1      18.502  52.788   5.504  1.00  0.00     0.149 C 
ENDROOT
BRANCH   6   7
HETATM    7  C11 UNL     1      17.198  53.462   5.101  1.00  0.00    -0.032 A 
HETATM    8  C12 UNL     1      15.978  52.898   5.496  1.00  0.00     0.010 A 
HETATM    9  C13 UNL     1      14.769  53.515   5.165  1.00  0.00     0.013 A 
HETATM   10  C14 UNL     1      14.748  54.713   4.439  1.00  0.00    -0.026 A 
HETATM   11  C15 UNL     1      13.540  55.346   4.101  1.00  0.00     0.012 A 
HETATM   12  C19 UNL     1      15.969  55.296   4.035  1.00  0.00    -0.025 A 
HETATM   13  C16 UNL     1      13.537  56.538   3.375  1.00  0.00     0.001 A 
HETATM   14  C17 UNL     1      14.741  57.111   2.977  1.00  0.00     0.001 A 
HETATM   15  C18 UNL     1      15.949  56.495   3.304  1.00  0.00     0.012 A 
HETATM   16  C20 UNL     1      17.179  54.664   4.372  1.00  0.00     0.021 A 
ENDBRANCH   6   7
BRANCH   1  17
HETATM   17  C1  UNL     1      19.033  53.711   7.830  1.00  0.00     0.187 C 
HETATM   18  S1  UNL     1      19.601  53.554   9.389  1.00  0.00    -0.040 SA
BRANCH  17  19
HETATM   19  N1  UNL     1      18.850  54.959   7.312  1.00  0.00    -0.375 N 
HETATM   20  H1  UNL     1      18.618  55.007   6.327  1.00  0.00     0.158 HD
HETATM   21  H2  UNL     1      19.157  55.778   7.813  1.00  0.00     0.158 HD
ENDBRANCH  17  19
ENDBRANCH   1  17
BRANCH   4  22
HETATM   22  C3  UNL     1      18.134  49.178   6.481  1.00  0.00    -0.012 A 
HETATM   23  C4  UNL     1      16.951  48.650   5.946  1.00  0.00     0.015 A 
HETATM   24  C5  UNL     1      16.694  47.279   6.018  1.00  0.00     0.024 A 
HETATM   25  C6  UNL     1      17.619  46.432   6.625  1.00  0.00     0.034 A 
HETATM   26 CL1  UNL     1      17.306  44.744   6.715  1.00  0.00    -0.084 Cl
HETATM   27  C7  UNL     1      18.798  46.948   7.163  1.00  0.00     0.024 A 
HETATM   28  C8  UNL     1      19.057  48.320   7.092  1.00  0.00     0.015 A 
ENDBRANCH   4  22
TORSDOF 4
ENDMDL
MODEL 2
REMARK minimizedAffinity -7.25997925
REMARK  4 active torsions:
REMARK  status: ('A' for Active; 'I' for Inactive)
REMARK    1  A    between atoms: N1_1  and  C1_2 
REMARK    2  A    between atoms: C1_2  and  N2_4 
REMARK    3  A    between atoms: C2_7  and  C3_8 
REMARK    4  A    between atoms: C10_16  and  C11_17 
ROOT
HETATM    1  N2  UNL     1      14.498  35.220  17.408  1.00  0.00    -0.258 N 
HETATM    2  N3  UNL     1      13.427  34.967  18.248  1.00  0.00    -0.299 N 
ATOM      3  H3  UNL     1      13.453  34.458  19.133  1.00  0.00     0.187 HD
HETATM    4  C2  UNL     1      12.380  35.502  17.693  1.00  0.00     0.038 C 
HETATM    5  C9  UNL     1      12.617  36.128  16.343  1.00  0.00     0.091 C 
HETATM    6  C10 UNL     1      14.141  36.120  16.302  1.00  0.00     0.149 C 
ENDROOT
BRANCH   6   7
HETATM    7  C11 UNL     1      14.701  37.527  16.456  1.00  0.00    -0.032 A 
HETATM    8  C12 UNL     1      14.741  38.119  17.725  1.00  0.00     0.010 A 
HETATM    9  C13 UNL     1      15.279  39.397  17.898  1.00  0.00     0.013 A 
HETATM   10  C14 UNL     1      15.796  40.112  16.809  1.00  0.00    -0.026 A 
HETATM   11  C15 UNL     1      16.342  41.397  16.969  1.00  0.00     0.012 A 
HETATM   12  C19 UNL     1      15.765  39.530  15.524  1.00  0.00    -0.025 A 
HETATM   13  C16 UNL     1      16.850  42.097  15.873  1.00  0.00     0.001 A 
HETATM   14  C17 UNL     1      16.819  41.523  14.606  1.00  0.00     0.001 A 
HETATM   15  C18 UNL     1      16.279  40.248  14.432  1.00  0.00     0.012 A 
HETATM   16  C20 UNL     1      15.219  38.244  15.363  1.00  0.00     0.021 A 
ENDBRANCH   6   7
BRANCH   1  17
HETATM   17  C1  UNL     1      15.725  34.626  17.643  1.00  0.00     0.187 C 
HETATM   18  S1  UNL     1      17.090  34.723  16.691  1.00  0.00    -0.040 SA
BRANCH  17  19
HETATM   19  N1  UNL     1      15.762  33.876  18.782  1.00  0.00    -0.375 N 
HETATM   20  H1  UNL     1      14.953  33.941  19.388  1.00  0.00     0.158 HD
HETATM   21  H2  UNL     1      16.627  33.476  19.111  1.00  0.00     0.158 HD
ENDBRANCH  17  19
ENDBRANCH   1  17
BRANCH   4  22
HETATM   22  C3  UNL     1      11.033  35.467  18.310  1.00  0.00    -0.012 A 
HETATM   23  C4  UNL     1      10.864  34.806  19.534  1.00  0.00     0.015 A 
HETATM   24  C5  UNL     1       9.607  34.757  20.143  1.00  0.00     0.024 A 
HETATM   25  C6  UNL     1       8.516  35.368  19.529  1.00  0.00     0.034 A 
HETATM   26 CL1  UNL     1       6.969  35.310  20.275  1.00  0.00    -0.084 Cl
HETATM   27  C7  UNL     1       8.674  36.027  18.309  1.00  0.00     0.024 A 
HETATM   28  C8  UNL     1       9.931  36.077  17.698  1.00  0.00     0.015 A 
ENDBRANCH   4  22
TORSDOF 4
ENDMDL
MODEL 3
REMARK minimizedAffinity -7.24251556
REMARK  4 active torsions:
REMARK  status: ('A' for Active; 'I' for Inactive)
REMARK    1  A    between atoms: N1_1  and  C1_2 
REMARK    2  A    between atoms: C1_2  and  N2_4 
REMARK    3  A    between atoms: C2_7  and  C3_8 
REMARK    4  A    between atoms: C10_16  and  C11_17 
ROOT
HETATM    1  N2  UNL     1      14.564  34.891  19.221  1.00  0.00    -0.258 N 
HETATM    2  N3  UNL     1      13.343  35.095  19.841  1.00  0.00    -0.299 N 
ATOM      3  H3  UNL     1      13.191  35.383  20.808  1.00  0.00     0.187 HD
HETATM    4  C2  UNL     1      12.426  34.848  18.953  1.00  0.00     0.038 C 
HETATM    5  C9  UNL     1      12.936  34.363  17.620  1.00  0.00     0.091 C 
HETATM    6  C10 UNL     1      14.425  34.642  17.779  1.00  0.00     0.149 C 
ENDROOT
BRANCH   6   7
HETATM    7  C11 UNL     1      14.859  35.816  16.913  1.00  0.00    -0.032 A 
HETATM    8  C12 UNL     1      14.370  37.099  17.194  1.00  0.00     0.010 A 
HETATM    9  C13 UNL     1      14.778  38.198  16.434  1.00  0.00     0.013 A 
HETATM   10  C14 UNL     1      15.688  38.045  15.379  1.00  0.00    -0.026 A 
HETATM   11  C15 UNL     1      16.108  39.142  14.608  1.00  0.00     0.012 A 
HETATM   12  C19 UNL     1      16.192  36.760  15.084  1.00  0.00    -0.025 A 
HETATM   13  C16 UNL     1      17.014  38.971  13.559  1.00  0.00     0.001 A 
HETATM   14  C17 UNL     1      17.509  37.704  13.268  1.00  0.00     0.001 A 
HETATM   15  C18 UNL     1      17.101  36.605  14.025  1.00  0.00     0.012 A 
HETATM   16  C20 UNL     1      15.772  35.662  15.855  1.00  0.00     0.021 A 
ENDBRANCH   6   7
BRANCH   1  17
HETATM   17  C1  UNL     1      15.734  34.909  19.960  1.00  0.00     0.187 C 
HETATM   18  S1  UNL     1      16.010  35.723  21.388  1.00  0.00    -0.040 SA
BRANCH  17  19
HETATM   19  N1  UNL     1      16.745  34.181  19.404  1.00  0.00    -0.375 N 
HETATM   20  H1  UNL     1      16.499  33.610  18.604  1.00  0.00     0.158 HD
HETATM   21  H2  UNL     1      17.612  34.038  19.899  1.00  0.00     0.158 HD
ENDBRANCH  17  19
ENDBRANCH   1  17
BRANCH   4  22
HETATM   22  C3  UNL     1      10.976  34.985  19.230  1.00  0.00    -0.012 A 
HETATM   23  C4  UNL     1      10.422  34.279  20.306  1.00  0.00     0.015 A 
HETATM   24  C5  UNL     1       9.059  34.388  20.595  1.00  0.00     0.024 A 
HETATM   25  C6  UNL     1       8.248  35.202  19.807  1.00  0.00     0.034 A 
HETATM   26 CL1  UNL     1       6.571  35.339  20.159  1.00  0.00    -0.084 Cl
HETATM   27  C7  UNL     1       8.790  35.907  18.732  1.00  0.00     0.024 A 
HETATM   28  C8  UNL     1      10.154  35.799  18.442  1.00  0.00     0.015 A 
ENDBRANCH   4  22
TORSDOF 4
ENDMDL
MODEL 4
REMARK minimizedAffinity -7.14777994
REMARK  4 active torsions:
REMARK  status: ('A' for Active; 'I' for Inactive)
REMARK    1  A    between atoms: N1_1  and  C1_2 
REMARK    2  A    between atoms: C1_2  and  N2_4 
REMARK    3  A    between atoms: C2_7  and  C3_8 
REMARK    4  A    between atoms: C10_16  and  C11_17 
ROOT
HETATM    1  N2  UNL     1      14.475  35.995  17.346  1.00  0.00    -0.258 N 
HETATM    2  N3  UNL     1      15.331  36.503  18.308  1.00  0.00    -0.299 N 
ATOM      3  H3  UNL     1      15.872  37.367  18.247  1.00  0.00     0.187 HD
HETATM    4  C2  UNL     1      15.314  35.668  19.304  1.00  0.00     0.038 C 
HETATM    5  C9  UNL     1      14.481  34.431  19.092  1.00  0.00     0.091 C 
HETATM    6  C10 UNL     1      13.731  34.820  17.823  1.00  0.00     0.149 C 
ENDROOT
BRANCH   6   7
HETATM    7  C11 UNL     1      12.265  35.104  18.118  1.00  0.00    -0.032 A 
HETATM    8  C12 UNL     1      11.492  35.792  17.174  1.00  0.00     0.010 A 
HETATM    9  C13 UNL     1      10.137  36.039  17.406  1.00  0.00     0.013 A 
HETATM   10  C14 UNL     1       9.518  35.598  18.584  1.00  0.00    -0.026 A 
HETATM   11  C15 UNL     1       8.156  35.837  18.831  1.00  0.00     0.012 A 
HETATM   12  C19 UNL     1      10.283  34.902  19.546  1.00  0.00    -0.025 A 
HETATM   13  C16 UNL     1       7.556  35.394  20.011  1.00  0.00     0.001 A 
HETATM   14  C17 UNL     1       8.310  34.708  20.958  1.00  0.00     0.001 A 
HETATM   15  C18 UNL     1       9.664  34.464  20.728  1.00  0.00     0.012 A 
HETATM   16  C20 UNL     1      11.646  34.663  19.300  1.00  0.00     0.021 A 
ENDBRANCH   6   7
BRANCH   1  17
HETATM   17  C1  UNL     1      14.411  36.575  16.091  1.00  0.00     0.187 C 
HETATM   18  S1  UNL     1      14.475  38.200  15.729  1.00  0.00    -0.040 SA
BRANCH  17  19
HETATM   19  N1  UNL     1      14.260  35.674  15.078  1.00  0.00    -0.375 N 
HETATM   20  H1  UNL     1      14.346  34.696  15.330  1.00  0.00     0.158 HD
HETATM   21  H2  UNL     1      14.301  35.967  14.114  1.00  0.00     0.158 HD
ENDBRANCH  17  19
ENDBRANCH   1  17
BRANCH   4  22
HETATM   22  C3  UNL     1      16.089  35.882  20.550  1.00  0.00    -0.012 A 
HETATM   23  C4  UNL     1      17.316  36.554  20.478  1.00  0.00     0.015 A 
HETATM   24  C5  UNL     1      18.070  36.773  21.634  1.00  0.00     0.024 A 
HETATM   25  C6  UNL     1      17.598  36.319  22.864  1.00  0.00     0.034 A 
HETATM   26 CL1  UNL     1      18.523  36.587  24.288  1.00  0.00    -0.084 Cl
HETATM   27  C7  UNL     1      16.378  35.648  22.945  1.00  0.00     0.024 A 
HETATM   28  C8  UNL     1      15.622  35.428  21.790  1.00  0.00     0.015 A 
ENDBRANCH   4  22
TORSDOF 4
ENDMDL
MODEL 5
REMARK minimizedAffinity -7.11483479
REMARK  4 active torsions:
REMARK  status: ('A' for Active; 'I' for Inactive)
REMARK    1  A    between atoms: N1_1  and  C1_2 
REMARK    2  A    between atoms: C1_2  and  N2_4 
REMARK    3  A    between atoms: C2_7  and  C3_8 
REMARK    4  A    between atoms: C10_16  and  C11_17 
ROOT
HETATM    1  N2  UNL     1      17.616  50.230   5.968  1.00  0.00    -0.258 N 
HETATM    2  N3  UNL     1      16.557  51.071   5.669  1.00  0.00    -0.299 N 
ATOM      3  H3  UNL     1      15.566  50.829   5.674  1.00  0.00     0.187 HD
HETATM    4  C2  UNL     1      17.070  52.231   5.380  1.00  0.00     0.038 C 
HETATM    5  C9  UNL     1      18.576  52.285   5.378  1.00  0.00     0.091 C 
HETATM    6  C10 UNL     1      18.900  50.945   6.025  1.00  0.00     0.149 C 
ENDROOT
BRANCH   6   7
HETATM    7  C11 UNL     1      19.430  51.132   7.439  1.00  0.00    -0.032 A 
HETATM    8  C12 UNL     1      19.081  52.281   8.161  1.00  0.00     0.010 A 
HETATM    9  C13 UNL     1      19.529  52.462   9.472  1.00  0.00     0.013 A 
HETATM   10  C14 UNL     1      20.332  51.498  10.097  1.00  0.00    -0.026 A 
HETATM   11  C15 UNL     1      20.788  51.665  11.415  1.00  0.00     0.012 A 
HETATM   12  C19 UNL     1      20.692  50.333   9.384  1.00  0.00    -0.025 A 
HETATM   13  C16 UNL     1      21.590  50.696  12.021  1.00  0.00     0.001 A 
HETATM   14  C17 UNL     1      21.945  49.549  11.318  1.00  0.00     0.001 A 
HETATM   15  C18 UNL     1      21.499  49.368  10.008  1.00  0.00     0.012 A 
HETATM   16  C20 UNL     1      20.236  50.165   8.065  1.00  0.00     0.021 A 
ENDBRANCH   6   7
BRANCH   1  17
HETATM   17  C1  UNL     1      17.401  48.875   6.150  1.00  0.00     0.187 C 
HETATM   18  S1  UNL     1      18.555  47.675   6.232  1.00  0.00    -0.040 SA
BRANCH  17  19
HETATM   19  N1  UNL     1      16.083  48.538   6.246  1.00  0.00    -0.375 N 
HETATM   20  H1  UNL     1      15.426  49.307   6.310  1.00  0.00     0.158 HD
HETATM   21  H2  UNL     1      15.805  47.596   6.479  1.00  0.00     0.158 HD
ENDBRANCH  17  19
ENDBRANCH   1  17
BRANCH   4  22
HETATM   22  C3  UNL     1      16.247  53.413   5.032  1.00  0.00    -0.012 A 
HETATM   23  C4  UNL     1      16.877  54.546   4.499  1.00  0.00     0.015 A 
HETATM   24  C5  UNL     1      16.129  55.676   4.159  1.00  0.00     0.024 A 
HETATM   25  C6  UNL     1      14.749  55.676   4.352  1.00  0.00     0.034 A 
HETATM   26 CL1  UNL     1      13.826  57.065   3.934  1.00  0.00    -0.084 Cl
HETATM   27  C7  UNL     1      14.113  54.555   4.883  1.00  0.00     0.024 A 
HETATM   28  C8  UNL     1      14.860  53.422   5.224  1.00  0.00     0.015 A 
ENDBRANCH   4  22
TORSDOF 4
ENDMDL
MODEL 6
REMARK minimizedAffinity -7.04011059
REMARK  4 active torsions:
REMARK  status: ('A' for Active; 'I' for Inactive)
REMARK    1  A    between atoms: N1_1  and  C1_2 
REMARK    2  A    between atoms: C1_2  and  N2_4 
REMARK    3  A    between atoms: C2_7  and  C3_8 
REMARK    4  A    between atoms: C10_16  and  C11_17 
ROOT
HETATM    1  N2  UNL     1      12.783  59.387   7.948  1.00  0.00    -0.258 N 
HETATM    2  N3  UNL     1      13.051  58.675   9.105  1.00  0.00    -0.299 N 
ATOM      3  H3  UNL     1      12.369  58.343   9.788  1.00  0.00     0.187 HD
HETATM    4  C2  UNL     1      14.340  58.511   9.154  1.00  0.00     0.038 C 
HETATM    5  C9  UNL     1      15.116  59.175   8.046  1.00  0.00     0.091 C 
HETATM    6  C10 UNL     1      13.978  59.562   7.109  1.00  0.00     0.149 C 
ENDROOT
BRANCH   6   7
HETATM    7  C11 UNL     1      13.978  58.693   5.860  1.00  0.00    -0.032 A 
HETATM    8  C12 UNL     1      14.393  57.357   5.947  1.00  0.00     0.010 A 
HETATM    9  C13 UNL     1      14.372  56.530   4.822  1.00  0.00     0.013 A 
HETATM   10  C14 UNL     1      13.930  57.013   3.582  1.00  0.00    -0.026 A 
HETATM   11  C15 UNL     1      13.902  56.193   2.442  1.00  0.00     0.012 A 
HETATM   12  C19 UNL     1      13.507  58.356   3.477  1.00  0.00    -0.025 A 
HETATM   13  C16 UNL     1      13.461  56.691   1.215  1.00  0.00     0.001 A 
HETATM   14  C17 UNL     1      13.045  58.015   1.112  1.00  0.00     0.001 A 
HETATM   15  C18 UNL     1      13.068  58.842   2.235  1.00  0.00     0.012 A 
HETATM   16  C20 UNL     1      13.535  59.178   4.617  1.00  0.00     0.021 A 
ENDBRANCH   6   7
BRANCH   1  17
HETATM   17  C1  UNL     1      11.509  59.868   7.703  1.00  0.00     0.187 C 
HETATM   18  S1  UNL     1      11.100  61.300   6.956  1.00  0.00    -0.040 SA
BRANCH  17  19
HETATM   19  N1  UNL     1      10.518  59.051   8.162  1.00  0.00    -0.375 N 
HETATM   20  H1  UNL     1      10.807  58.141   8.500  1.00  0.00     0.158 HD
HETATM   21  H2  UNL     1       9.550  59.244   7.955  1.00  0.00     0.158 HD
ENDBRANCH  17  19
ENDBRANCH   1  17
BRANCH   4  22
HETATM   22  C3  UNL     1      15.017  57.763  10.240  1.00  0.00    -0.012 A 
HETATM   23  C4  UNL     1      14.237  57.073  11.178  1.00  0.00     0.015 A 
HETATM   24  C5  UNL     1      14.844  56.357  12.213  1.00  0.00     0.024 A 
HETATM   25  C6  UNL     1      16.234  56.331  12.313  1.00  0.00     0.034 A 
HETATM   26 CL1  UNL     1      16.984  55.452  13.585  1.00  0.00    -0.084 Cl
HETATM   27  C7  UNL     1      17.019  57.016  11.386  1.00  0.00     0.024 A 
HETATM   28  C8  UNL     1      16.413  57.733  10.349  1.00  0.00     0.015 A 
ENDBRANCH   4  22
TORSDOF 4
ENDMDL
MODEL 7
REMARK minimizedAffinity -6.93177414
REMARK  4 active torsions:
REMARK  status: ('A' for Active; 'I' for Inactive)
REMARK    1  A    between atoms: N1_1  and  C1_2 
REMARK    2  A    between atoms: C1_2  and  N2_4 
REMARK    3  A    between atoms: C2_7  and  C3_8 
REMARK    4  A    between atoms: C10_16  and  C11_17 
ROOT
HETATM    1  N2  UNL     1      14.713  36.251  15.666  1.00  0.00    -0.258 N 
HETATM    2  N3  UNL     1      15.060  35.531  14.536  1.00  0.00    -0.299 N 
ATOM      3  H3  UNL     1      14.421  35.151  13.836  1.00  0.00     0.187 HD
HETATM    4  C2  UNL     1      16.356  35.432  14.537  1.00  0.00     0.038 C 
HETATM    5  C9  UNL     1      17.045  36.025  15.738  1.00  0.00     0.091 C 
HETATM    6  C10 UNL     1      15.888  36.790  16.368  1.00  0.00     0.149 C 
ENDROOT
BRANCH   6   7
HETATM    7  C11 UNL     1      16.065  38.292  16.197  1.00  0.00    -0.032 A 
HETATM    8  C12 UNL     1      15.639  39.157  17.213  1.00  0.00     0.010 A 
HETATM    9  C13 UNL     1      15.819  40.538  17.094  1.00  0.00     0.013 A 
HETATM   10  C14 UNL     1      16.434  41.087  15.961  1.00  0.00    -0.026 A 
HETATM   11  C15 UNL     1      16.624  42.473  15.828  1.00  0.00     0.012 A 
HETATM   12  C19 UNL     1      16.871  40.229  14.929  1.00  0.00    -0.025 A 
HETATM   13  C16 UNL     1      17.236  43.004  14.692  1.00  0.00     0.001 A 
HETATM   14  C17 UNL     1      17.665  42.158  13.675  1.00  0.00     0.001 A 
HETATM   15  C18 UNL     1      17.484  40.779  13.791  1.00  0.00     0.012 A 
HETATM   16  C20 UNL     1      16.682  38.842  15.060  1.00  0.00     0.021 A 
ENDBRANCH   6   7
BRANCH   1  17
HETATM   17  C1  UNL     1      13.386  36.376  16.035  1.00  0.00     0.187 C 
HETATM   18  S1  UNL     1      12.729  36.098  17.542  1.00  0.00    -0.040 SA
BRANCH  17  19
HETATM   19  N1  UNL     1      12.566  36.750  15.012  1.00  0.00    -0.375 N 
HETATM   20  H1  UNL     1      13.021  37.022  14.148  1.00  0.00     0.158 HD
HETATM   21  H2  UNL     1      11.595  36.970  15.179  1.00  0.00     0.158 HD
ENDBRANCH  17  19
ENDBRANCH   1  17
BRANCH   4  22
HETATM   22  C3  UNL     1      17.114  34.749  13.461  1.00  0.00    -0.012 A 
HETATM   23  C4  UNL     1      17.005  35.224  12.147  1.00  0.00     0.015 A 
HETATM   24  C5  UNL     1      17.708  34.603  11.111  1.00  0.00     0.024 A 
HETATM   25  C6  UNL     1      18.520  33.505  11.387  1.00  0.00     0.034 A 
HETATM   26 CL1  UNL     1      19.386  32.740  10.115  1.00  0.00    -0.084 Cl
HETATM   27  C7  UNL     1      18.634  33.024  12.691  1.00  0.00     0.024 A 
HETATM   28  C8  UNL     1      17.932  33.644  13.729  1.00  0.00     0.015 A 
ENDBRANCH   4  22
TORSDOF 4
ENDMDL
MODEL 8
REMARK minimizedAffinity -6.91151094
REMARK  4 active torsions:
REMARK  status: ('A' for Active; 'I' for Inactive)
REMARK    1  A    between atoms: N1_1  and  C1_2 
REMARK    2  A    between atoms: C1_2  and  N2_4 
REMARK    3  A    between atoms: C2_7  and  C3_8 
REMARK    4  A    between atoms: C10_16  and  C11_17 
ROOT
HETATM    1  N2  UNL     1       6.286  64.569  -7.088  1.00  0.00    -0.258 N 
HETATM    2  N3  UNL     1       5.044  64.912  -6.580  1.00  0.00    -0.299 N 
ATOM      3  H3  UNL     1       4.177  65.011  -7.108  1.00  0.00     0.187 HD
HETATM    4  C2  UNL     1       5.197  65.084  -5.300  1.00  0.00     0.038 C 
HETATM    5  C9  UNL     1       6.610  64.946  -4.797  1.00  0.00     0.091 C 
HETATM    6  C10 UNL     1       7.283  64.353  -6.029  1.00  0.00     0.149 C 
ENDROOT
BRANCH   6   7
HETATM    7  C11 UNL     1       7.633  62.888  -5.810  1.00  0.00    -0.032 A 
HETATM    8  C12 UNL     1       6.664  62.015  -5.299  1.00  0.00     0.010 A 
HETATM    9  C13 UNL     1       6.950  60.659  -5.120  1.00  0.00     0.013 A 
HETATM   10  C14 UNL     1       8.209  60.140  -5.452  1.00  0.00    -0.026 A 
HETATM   11  C15 UNL     1       8.511  58.779  -5.278  1.00  0.00     0.012 A 
HETATM   12  C19 UNL     1       9.197  61.006  -5.969  1.00  0.00    -0.025 A 
HETATM   13  C16 UNL     1       9.771  58.279  -5.611  1.00  0.00     0.001 A 
HETATM   14  C17 UNL     1      10.744  59.133  -6.121  1.00  0.00     0.001 A 
HETATM   15  C18 UNL     1      10.460  60.487  -6.299  1.00  0.00     0.012 A 
HETATM   16  C20 UNL     1       8.897  62.368  -6.143  1.00  0.00     0.021 A 
ENDBRANCH   6   7
BRANCH   1  17
HETATM   17  C1  UNL     1       6.484  64.488  -8.455  1.00  0.00     0.187 C 
HETATM   18  S1  UNL     1       7.233  65.612  -9.432  1.00  0.00    -0.040 SA
BRANCH  17  19
HETATM   19  N1  UNL     1       5.974  63.355  -9.016  1.00  0.00    -0.375 N 
HETATM   20  H1  UNL     1       5.635  62.648  -8.373  1.00  0.00     0.158 HD
HETATM   21  H2  UNL     1       6.142  63.136  -9.987  1.00  0.00     0.158 HD
ENDBRANCH  17  19
ENDBRANCH   1  17
BRANCH   4  22
HETATM   22  C3  UNL     1       4.077  65.434  -4.394  1.00  0.00    -0.012 A 
HETATM   23  C4  UNL     1       3.923  64.719  -3.199  1.00  0.00     0.015 A 
HETATM   24  C5  UNL     1       2.879  65.026  -2.322  1.00  0.00     0.024 A 
HETATM   25  C6  UNL     1       1.986  66.048  -2.640  1.00  0.00     0.034 A 
HETATM   26 CL1  UNL     1       0.701  66.427  -1.564  1.00  0.00    -0.084 Cl
HETATM   27  C7  UNL     1       2.130  66.763  -3.828  1.00  0.00     0.024 A 
HETATM   28  C8  UNL     1       3.175  66.458  -4.707  1.00  0.00     0.015 A 
ENDBRANCH   4  22
TORSDOF 4
ENDMDL
MODEL 9
REMARK minimizedAffinity -6.90798616
REMARK  4 active torsions:
REMARK  status: ('A' for Active; 'I' for Inactive)
REMARK    1  A    between atoms: N1_1  and  C1_2 
REMARK    2  A    between atoms: C1_2  and  N2_4 
REMARK    3  A    between atoms: C2_7  and  C3_8 
REMARK    4  A    between atoms: C10_16  and  C11_17 
ROOT
HETATM    1  N2  UNL     1       1.301  64.839  -3.889  1.00  0.00    -0.258 N 
HETATM    2  N3  UNL     1       2.155  64.875  -4.978  1.00  0.00    -0.299 N 
ATOM      3  H3  UNL     1       1.894  64.774  -5.960  1.00  0.00     0.187 HD
HETATM    4  C2  UNL     1       3.353  65.060  -4.509  1.00  0.00     0.038 C 
HETATM    5  C9  UNL     1       3.457  65.098  -3.007  1.00  0.00     0.091 C 
HETATM    6  C10 UNL     1       1.983  65.183  -2.632  1.00  0.00     0.149 C 
ENDROOT
BRANCH   6   7
HETATM    7  C11 UNL     1       1.630  66.566  -2.105  1.00  0.00    -0.032 A 
HETATM    8  C12 UNL     1       1.020  66.693  -0.850  1.00  0.00     0.010 A 
HETATM    9  C13 UNL     1       0.714  67.953  -0.330  1.00  0.00     0.013 A 
HETATM   10  C14 UNL     1       1.016  69.119  -1.048  1.00  0.00    -0.026 A 
HETATM   11  C15 UNL     1       0.716  70.393  -0.537  1.00  0.00     0.012 A 
HETATM   12  C19 UNL     1       1.632  69.009  -2.314  1.00  0.00    -0.025 A 
HETATM   13  C16 UNL     1       1.021  71.544  -1.266  1.00  0.00     0.001 A 
HETATM   14  C17 UNL     1       1.628  71.435  -2.513  1.00  0.00     0.001 A 
HETATM   15  C18 UNL     1       1.931  70.177  -3.034  1.00  0.00     0.012 A 
HETATM   16  C20 UNL     1       1.932  67.735  -2.826  1.00  0.00     0.021 A 
ENDBRANCH   6   7
BRANCH   1  17
HETATM   17  C1  UNL     1      -0.026  64.483  -4.053  1.00  0.00     0.187 C 
HETATM   18  S1  UNL     1      -1.048  63.847  -2.900  1.00  0.00    -0.040 SA
BRANCH  17  19
HETATM   19  N1  UNL     1      -0.492  64.675  -5.320  1.00  0.00    -0.375 N 
HETATM   20  H1  UNL     1       0.123  65.171  -5.955  1.00  0.00     0.158 HD
HETATM   21  H2  UNL     1      -1.469  64.546  -5.538  1.00  0.00     0.158 HD
ENDBRANCH  17  19
ENDBRANCH   1  17
BRANCH   4  22
HETATM   22  C3  UNL     1       4.549  65.184  -5.377  1.00  0.00    -0.012 A 
HETATM   23  C4  UNL     1       5.734  64.541  -4.994  1.00  0.00     0.015 A 
HETATM   24  C5  UNL     1       6.878  64.637  -5.790  1.00  0.00     0.024 A 
HETATM   25  C6  UNL     1       6.840  65.377  -6.971  1.00  0.00     0.034 A 
HETATM   26 CL1  UNL     1       8.246  65.497  -7.952  1.00  0.00    -0.084 Cl
HETATM   27  C7  UNL     1       5.666  66.022  -7.359  1.00  0.00     0.024 A 
HETATM   28  C8  UNL     1       4.520  65.927  -6.563  1.00  0.00     0.015 A 
ENDBRANCH   4  22
TORSDOF 4
ENDMDL
