MODEL 1
REMARK minimizedAffinity -6.00904369
REMARK  6 active torsions:
REMARK  status: ('A' for Active; 'I' for Inactive)
REMARK    1  A    between atoms: C1_2  and  O2_3 
REMARK    2  A    between atoms: C1_2  and  C2_4 
REMARK    3  A    between atoms: C2_4  and  C10_13 
REMARK    4  A    between atoms: C3_5  and  C4_6 
REMARK    5  A    between atoms: C7_9  and  O3_10 
REMARK    6  A    between atoms: C10_13  and  O5_15 
ROOT
HETATM    1  C2  UNL     1      11.516  35.860  19.458  1.00  0.00     0.111 C 
HETATM    2  C3  UNL     1      10.403  36.411  19.983  1.00  0.00     0.036 C 
ENDROOT
BRANCH   1   3
HETATM    3  C1  UNL     1      12.764  36.632  19.541  1.00  0.00     0.183 C 
HETATM    4  O1  UNL     1      13.311  37.017  20.562  1.00  0.00    -0.646 OA
BRANCH   3   5
HETATM    5  O2  UNL     1      13.312  36.874  18.339  1.00  0.00    -0.772 OA
HETATM    6  H1  UNL     1      14.119  37.394  18.538  1.00  0.00     0.167 HD
ENDBRANCH   3   5
ENDBRANCH   1   3
BRANCH   1   7
HETATM    7  C10 UNL     1      11.483  34.556  18.788  1.00  0.00     0.183 C 
HETATM    8  O4  UNL     1      11.555  33.468  19.331  1.00  0.00    -0.646 OA
BRANCH   7   9
HETATM    9  O5  UNL     1      11.364  34.677  17.453  1.00  0.00    -0.772 OA
HETATM   10  H8  UNL     1      11.379  33.753  17.128  1.00  0.00     0.167 HD
ENDBRANCH   7   9
ENDBRANCH   1   7
BRANCH   2  11
HETATM   11  C4  UNL     1       9.056  35.829  19.948  1.00  0.00    -0.035 A 
HETATM   12  C5  UNL     1       8.109  36.244  19.004  1.00  0.00     0.014 A 
HETATM   13  C6  UNL     1       6.830  35.686  18.998  1.00  0.00     0.037 A 
HETATM   14  C7  UNL     1       6.496  34.719  19.940  1.00  0.00     0.065 A 
HETATM   15  C8  UNL     1       7.421  34.303  20.892  1.00  0.00     0.037 A 
HETATM   16  C9  UNL     1       8.701  34.862  20.898  1.00  0.00     0.014 A 
BRANCH  14  17
HETATM   17  O3  UNL     1       5.237  34.200  19.898  1.00  0.00    -0.361 OA
HETATM   18  H5  UNL     1       5.145  33.548  20.612  1.00  0.00     0.217 HD
ENDBRANCH  14  17
ENDBRANCH   2  11
TORSDOF 6
ENDMDL
MODEL 2
REMARK minimizedAffinity -5.93421268
REMARK  6 active torsions:
REMARK  status: ('A' for Active; 'I' for Inactive)
REMARK    1  A    between atoms: C1_2  and  O2_3 
REMARK    2  A    between atoms: C1_2  and  C2_4 
REMARK    3  A    between atoms: C2_4  and  C10_13 
REMARK    4  A    between atoms: C3_5  and  C4_6 
REMARK    5  A    between atoms: C7_9  and  O3_10 
REMARK    6  A    between atoms: C10_13  and  O5_15 
ROOT
HETATM    1  C2  UNL     1       8.076  30.356  -4.441  1.00  0.00     0.111 C 
HETATM    2  C3  UNL     1       8.148  29.107  -3.939  1.00  0.00     0.036 C 
ENDROOT
BRANCH   1   3
HETATM    3  C1  UNL     1       7.179  30.581  -5.584  1.00  0.00     0.183 C 
HETATM    4  O1  UNL     1       5.961  30.514  -5.573  1.00  0.00    -0.646 OA
BRANCH   3   5
HETATM    5  O2  UNL     1       7.835  30.917  -6.707  1.00  0.00    -0.772 OA
HETATM    6  H1  UNL     1       7.129  31.027  -7.379  1.00  0.00     0.167 HD
ENDBRANCH   3   5
ENDBRANCH   1   3
BRANCH   1   7
HETATM    7  C10 UNL     1       8.892  31.449  -3.902  1.00  0.00     0.183 C 
HETATM    8  O4  UNL     1       9.830  31.332  -3.134  1.00  0.00    -0.646 OA
BRANCH   7   9
HETATM    9  O5  UNL     1       8.487  32.651  -4.351  1.00  0.00    -0.772 OA
HETATM   10  H8  UNL     1       9.087  33.285  -3.906  1.00  0.00     0.167 HD
ENDBRANCH   7   9
ENDBRANCH   1   7
BRANCH   2  11
HETATM   11  C4  UNL     1       9.023  28.669  -2.844  1.00  0.00    -0.035 A 
HETATM   12  C5  UNL     1       8.704  28.937  -1.508  1.00  0.00     0.014 A 
HETATM   13  C6  UNL     1       9.558  28.522  -0.484  1.00  0.00     0.037 A 
HETATM   14  C7  UNL     1      10.733  27.847  -0.799  1.00  0.00     0.065 A 
HETATM   15  C8  UNL     1      11.070  27.582  -2.122  1.00  0.00     0.037 A 
HETATM   16  C9  UNL     1      10.215  27.998  -3.146  1.00  0.00     0.014 A 
BRANCH  14  17
HETATM   17  O3  UNL     1      11.537  27.460   0.231  1.00  0.00    -0.361 OA
HETATM   18  H5  UNL     1      12.316  27.010  -0.135  1.00  0.00     0.217 HD
ENDBRANCH  14  17
ENDBRANCH   2  11
TORSDOF 6
ENDMDL
MODEL 3
REMARK minimizedAffinity -5.92923355
REMARK  6 active torsions:
REMARK  status: ('A' for Active; 'I' for Inactive)
REMARK    1  A    between atoms: C1_2  and  O2_3 
REMARK    2  A    between atoms: C1_2  and  C2_4 
REMARK    3  A    between atoms: C2_4  and  C10_13 
REMARK    4  A    between atoms: C3_5  and  C4_6 
REMARK    5  A    between atoms: C7_9  and  O3_10 
REMARK    6  A    between atoms: C10_13  and  O5_15 
ROOT
HETATM    1  C2  UNL     1      10.243  46.138  -0.979  1.00  0.00     0.111 C 
HETATM    2  C3  UNL     1      11.400  46.804  -1.172  1.00  0.00     0.036 C 
ENDROOT
BRANCH   1   3
HETATM    3  C1  UNL     1      10.318  44.684  -0.781  1.00  0.00     0.183 C 
HETATM    4  O1  UNL     1      11.227  44.072  -0.242  1.00  0.00    -0.646 OA
BRANCH   3   5
HETATM    5  O2  UNL     1       9.233  44.036  -1.236  1.00  0.00    -0.772 OA
HETATM    6  H1  UNL     1       9.417  43.090  -1.050  1.00  0.00     0.167 HD
ENDBRANCH   3   5
ENDBRANCH   1   3
BRANCH   1   7
HETATM    7  C10 UNL     1       8.947  46.826  -1.007  1.00  0.00     0.183 C 
HETATM    8  O4  UNL     1       8.460  47.475  -0.100  1.00  0.00    -0.646 OA
BRANCH   7   9
HETATM    9  O5  UNL     1       8.314  46.662  -2.183  1.00  0.00    -0.772 OA
HETATM   10  H8  UNL     1       7.467  47.139  -2.066  1.00  0.00     0.167 HD
ENDBRANCH   7   9
ENDBRANCH   1   7
BRANCH   2  11
HETATM   11  C4  UNL     1      11.530  48.241  -1.444  1.00  0.00    -0.035 A 
HETATM   12  C5  UNL     1      10.418  49.018  -1.791  1.00  0.00     0.014 A 
HETATM   13  C6  UNL     1      10.568  50.380  -2.058  1.00  0.00     0.037 A 
HETATM   14  C7  UNL     1      11.830  50.961  -1.987  1.00  0.00     0.065 A 
HETATM   15  C8  UNL     1      12.946  50.201  -1.656  1.00  0.00     0.037 A 
HETATM   16  C9  UNL     1      12.795  48.838  -1.388  1.00  0.00     0.014 A 
BRANCH  14  17
HETATM   17  O3  UNL     1      11.930  52.293  -2.256  1.00  0.00    -0.361 OA
HETATM   18  H5  UNL     1      12.862  52.557  -2.175  1.00  0.00     0.217 HD
ENDBRANCH  14  17
ENDBRANCH   2  11
TORSDOF 6
ENDMDL
MODEL 4
REMARK minimizedAffinity -5.80104923
REMARK  6 active torsions:
REMARK  status: ('A' for Active; 'I' for Inactive)
REMARK    1  A    between atoms: C1_2  and  O2_3 
REMARK    2  A    between atoms: C1_2  and  C2_4 
REMARK    3  A    between atoms: C2_4  and  C10_13 
REMARK    4  A    between atoms: C3_5  and  C4_6 
REMARK    5  A    between atoms: C7_9  and  O3_10 
REMARK    6  A    between atoms: C10_13  and  O5_15 
ROOT
HETATM    1  C2  UNL     1      10.300  46.224  -1.073  1.00  0.00     0.111 C 
HETATM    2  C3  UNL     1      11.486  46.864  -1.048  1.00  0.00     0.036 C 
ENDROOT
BRANCH   1   3
HETATM    3  C1  UNL     1      10.290  44.792  -0.742  1.00  0.00     0.183 C 
HETATM    4  O1  UNL     1      11.173  44.176  -0.167  1.00  0.00    -0.646 OA
BRANCH   3   5
HETATM    5  O2  UNL     1       9.157  44.175  -1.114  1.00  0.00    -0.772 OA
HETATM    6  H1  UNL     1       9.286  43.241  -0.845  1.00  0.00     0.167 HD
ENDBRANCH   3   5
ENDBRANCH   1   3
BRANCH   1   7
HETATM    7  C10 UNL     1       9.064  46.913  -1.458  1.00  0.00     0.183 C 
HETATM    8  O4  UNL     1       8.330  47.539  -0.715  1.00  0.00    -0.646 OA
BRANCH   7   9
HETATM    9  O5  UNL     1       8.800  46.782  -2.771  1.00  0.00    -0.772 OA
HETATM   10  H8  UNL     1       7.952  47.257  -2.893  1.00  0.00     0.167 HD
ENDBRANCH   7   9
ENDBRANCH   1   7
BRANCH   2  11
HETATM   11  C4  UNL     1      11.713  48.271  -1.402  1.00  0.00    -0.035 A 
HETATM   12  C5  UNL     1      13.007  48.792  -1.516  1.00  0.00     0.014 A 
HETATM   13  C6  UNL     1      13.198  50.136  -1.842  1.00  0.00     0.037 A 
HETATM   14  C7  UNL     1      12.095  50.958  -2.046  1.00  0.00     0.065 A 
HETATM   15  C8  UNL     1      10.803  50.459  -1.926  1.00  0.00     0.037 A 
HETATM   16  C9  UNL     1      10.612  49.114  -1.600  1.00  0.00     0.014 A 
BRANCH  14  17
HETATM   17  O3  UNL     1      12.327  52.263  -2.362  1.00  0.00    -0.361 OA
HETATM   18  H5  UNL     1      11.473  52.714  -2.468  1.00  0.00     0.217 HD
ENDBRANCH  14  17
ENDBRANCH   2  11
TORSDOF 6
ENDMDL
MODEL 5
REMARK minimizedAffinity -5.71837807
REMARK  6 active torsions:
REMARK  status: ('A' for Active; 'I' for Inactive)
REMARK    1  A    between atoms: C1_2  and  O2_3 
REMARK    2  A    between atoms: C1_2  and  C2_4 
REMARK    3  A    between atoms: C2_4  and  C10_13 
REMARK    4  A    between atoms: C3_5  and  C4_6 
REMARK    5  A    between atoms: C7_9  and  O3_10 
REMARK    6  A    between atoms: C10_13  and  O5_15 
ROOT
HETATM    1  C2  UNL     1      -7.390  31.099   0.535  1.00  0.00     0.111 C 
HETATM    2  C3  UNL     1      -8.185  30.201   1.150  1.00  0.00     0.036 C 
ENDROOT
BRANCH   1   3
HETATM    3  C1  UNL     1      -7.647  31.378  -0.885  1.00  0.00     0.183 C 
HETATM    4  O1  UNL     1      -7.774  32.479  -1.396  1.00  0.00    -0.646 OA
BRANCH   3   5
HETATM    5  O2  UNL     1      -7.707  30.266  -1.636  1.00  0.00    -0.772 OA
HETATM    6  H1  UNL     1      -7.889  30.591  -2.543  1.00  0.00     0.167 HD
ENDBRANCH   3   5
ENDBRANCH   1   3
BRANCH   1   7
HETATM    7  C10 UNL     1      -6.277  31.749   1.237  1.00  0.00     0.183 C 
HETATM    8  O4  UNL     1      -6.374  32.613   2.089  1.00  0.00    -0.646 OA
BRANCH   7   9
HETATM    9  O5  UNL     1      -5.082  31.281   0.831  1.00  0.00    -0.772 OA
HETATM   10  H8  UNL     1      -4.435  31.803   1.348  1.00  0.00     0.167 HD
ENDBRANCH   7   9
ENDBRANCH   1   7
BRANCH   2  11
HETATM   11  C4  UNL     1      -8.053  29.745   2.540  1.00  0.00    -0.035 A 
HETATM   12  C5  UNL     1      -6.978  28.943   2.942  1.00  0.00     0.014 A 
HETATM   13  C6  UNL     1      -6.880  28.511   4.266  1.00  0.00     0.037 A 
HETATM   14  C7  UNL     1      -7.860  28.874   5.183  1.00  0.00     0.065 A 
HETATM   15  C8  UNL     1      -8.940  29.661   4.798  1.00  0.00     0.037 A 
HETATM   16  C9  UNL     1      -9.037  30.094   3.473  1.00  0.00     0.014 A 
BRANCH  14  17
HETATM   17  O3  UNL     1      -7.725  28.430   6.464  1.00  0.00    -0.361 OA
HETATM   18  H5  UNL     1      -8.478  28.753   6.986  1.00  0.00     0.217 HD
ENDBRANCH  14  17
ENDBRANCH   2  11
TORSDOF 6
ENDMDL
MODEL 6
REMARK minimizedAffinity -5.6002593
REMARK  6 active torsions:
REMARK  status: ('A' for Active; 'I' for Inactive)
REMARK    1  A    between atoms: C1_2  and  O2_3 
REMARK    2  A    between atoms: C1_2  and  C2_4 
REMARK    3  A    between atoms: C2_4  and  C10_13 
REMARK    4  A    between atoms: C3_5  and  C4_6 
REMARK    5  A    between atoms: C7_9  and  O3_10 
REMARK    6  A    between atoms: C10_13  and  O5_15 
ROOT
HETATM    1  C2  UNL     1       9.936  34.645  20.035  1.00  0.00     0.111 C 
HETATM    2  C3  UNL     1      10.984  33.931  20.493  1.00  0.00     0.036 C 
ENDROOT
BRANCH   1   3
HETATM    3  C1  UNL     1       8.628  34.416  20.664  1.00  0.00     0.183 C 
HETATM    4  O1  UNL     1       8.390  34.413  21.861  1.00  0.00    -0.646 OA
BRANCH   3   5
HETATM    5  O2  UNL     1       7.642  34.227  19.771  1.00  0.00    -0.772 OA
HETATM    6  H1  UNL     1       6.841  34.081  20.317  1.00  0.00     0.167 HD
ENDBRANCH   3   5
ENDBRANCH   1   3
BRANCH   1   7
HETATM    7  C10 UNL     1      10.078  35.587  18.920  1.00  0.00     0.183 C 
HETATM    8  O4  UNL     1       9.756  35.384  17.763  1.00  0.00    -0.646 OA
BRANCH   7   9
HETATM    9  O5  UNL     1      10.627  36.753  19.310  1.00  0.00    -0.772 OA
HETATM   10  H8  UNL     1      10.688  37.275  18.483  1.00  0.00     0.167 HD
ENDBRANCH   7   9
ENDBRANCH   1   7
BRANCH   2  11
HETATM   11  C4  UNL     1      12.352  33.972  19.960  1.00  0.00    -0.035 A 
HETATM   12  C5  UNL     1      12.607  33.778  18.597  1.00  0.00     0.014 A 
HETATM   13  C6  UNL     1      13.917  33.808  18.116  1.00  0.00     0.037 A 
HETATM   14  C7  UNL     1      14.970  34.025  18.998  1.00  0.00     0.065 A 
HETATM   15  C8  UNL     1      14.735  34.209  20.356  1.00  0.00     0.037 A 
HETATM   16  C9  UNL     1      13.424  34.179  20.838  1.00  0.00     0.014 A 
BRANCH  14  17
HETATM   17  O3  UNL     1      16.232  34.048  18.484  1.00  0.00    -0.361 OA
HETATM   18  H5  UNL     1      16.860  34.200  19.210  1.00  0.00     0.217 HD
ENDBRANCH  14  17
ENDBRANCH   2  11
TORSDOF 6
ENDMDL
MODEL 7
REMARK minimizedAffinity -5.57621574
REMARK  6 active torsions:
REMARK  status: ('A' for Active; 'I' for Inactive)
REMARK    1  A    between atoms: C1_2  and  O2_3 
REMARK    2  A    between atoms: C1_2  and  C2_4 
REMARK    3  A    between atoms: C2_4  and  C10_13 
REMARK    4  A    between atoms: C3_5  and  C4_6 
REMARK    5  A    between atoms: C7_9  and  O3_10 
REMARK    6  A    between atoms: C10_13  and  O5_15 
ROOT
HETATM    1  C2  UNL     1      10.197  35.561  18.433  1.00  0.00     0.111 C 
HETATM    2  C3  UNL     1      11.304  35.602  17.664  1.00  0.00     0.036 C 
ENDROOT
BRANCH   1   3
HETATM    3  C1  UNL     1       8.923  35.957  17.816  1.00  0.00     0.183 C 
HETATM    4  O1  UNL     1       7.883  36.211  18.401  1.00  0.00    -0.646 OA
BRANCH   3   5
HETATM    5  O2  UNL     1       8.997  36.056  16.478  1.00  0.00    -0.772 OA
HETATM    6  H1  UNL     1       8.092  36.315  16.202  1.00  0.00     0.167 HD
ENDBRANCH   3   5
ENDBRANCH   1   3
BRANCH   1   7
HETATM    7  C10 UNL     1      10.259  35.178  19.847  1.00  0.00     0.183 C 
HETATM    8  O4  UNL     1      10.452  34.056  20.279  1.00  0.00    -0.646 OA
BRANCH   7   9
HETATM    9  O5  UNL     1      10.069  36.231  20.664  1.00  0.00    -0.772 OA
HETATM   10  H8  UNL     1      10.108  35.844  21.564  1.00  0.00     0.167 HD
ENDBRANCH   7   9
ENDBRANCH   1   7
BRANCH   2  11
HETATM   11  C4  UNL     1      12.671  35.304  18.108  1.00  0.00    -0.035 A 
HETATM   12  C5  UNL     1      13.264  34.062  17.850  1.00  0.00     0.014 A 
HETATM   13  C6  UNL     1      14.561  33.796  18.293  1.00  0.00     0.037 A 
HETATM   14  C7  UNL     1      15.260  34.769  19.001  1.00  0.00     0.065 A 
HETATM   15  C8  UNL     1      14.682  36.003  19.275  1.00  0.00     0.037 A 
HETATM   16  C9  UNL     1      13.384  36.269  18.831  1.00  0.00     0.014 A 
BRANCH  14  17
HETATM   17  O3  UNL     1      16.523  34.467  19.414  1.00  0.00    -0.361 OA
HETATM   18  H5  UNL     1      16.883  35.230  19.896  1.00  0.00     0.217 HD
ENDBRANCH  14  17
ENDBRANCH   2  11
TORSDOF 6
ENDMDL
MODEL 8
REMARK minimizedAffinity -5.54176712
REMARK  6 active torsions:
REMARK  status: ('A' for Active; 'I' for Inactive)
REMARK    1  A    between atoms: C1_2  and  O2_3 
REMARK    2  A    between atoms: C1_2  and  C2_4 
REMARK    3  A    between atoms: C2_4  and  C10_13 
REMARK    4  A    between atoms: C3_5  and  C4_6 
REMARK    5  A    between atoms: C7_9  and  O3_10 
REMARK    6  A    between atoms: C10_13  and  O5_15 
ROOT
HETATM    1  C2  UNL     1      13.008  36.279  17.239  1.00  0.00     0.111 C 
HETATM    2  C3  UNL     1      11.748  35.803  17.302  1.00  0.00     0.036 C 
ENDROOT
BRANCH   1   3
HETATM    3  C1  UNL     1      13.573  36.539  15.908  1.00  0.00     0.183 C 
HETATM    4  O1  UNL     1      14.755  36.667  15.635  1.00  0.00    -0.646 OA
BRANCH   3   5
HETATM    5  O2  UNL     1      12.639  36.600  14.944  1.00  0.00    -0.772 OA
HETATM    6  H1  UNL     1      13.144  36.784  14.124  1.00  0.00     0.167 HD
ENDBRANCH   3   5
ENDBRANCH   1   3
BRANCH   1   7
HETATM    7  C10 UNL     1      13.810  36.491  18.449  1.00  0.00     0.183 C 
HETATM    8  O4  UNL     1      14.579  35.691  18.949  1.00  0.00    -0.646 OA
BRANCH   7   9
HETATM    9  O5  UNL     1      13.604  37.709  18.984  1.00  0.00    -0.772 OA
HETATM   10  H8  UNL     1      14.168  37.715  19.785  1.00  0.00     0.167 HD
ENDBRANCH   7   9
ENDBRANCH   1   7
BRANCH   2  11
HETATM   11  C4  UNL     1      11.031  35.426  18.527  1.00  0.00    -0.035 A 
HETATM   12  C5  UNL     1       9.985  36.210  19.027  1.00  0.00     0.014 A 
HETATM   13  C6  UNL     1       9.326  35.839  20.200  1.00  0.00     0.037 A 
HETATM   14  C7  UNL     1       9.719  34.689  20.876  1.00  0.00     0.065 A 
HETATM   15  C8  UNL     1      10.763  33.904  20.399  1.00  0.00     0.037 A 
HETATM   16  C9  UNL     1      11.422  34.276  19.224  1.00  0.00     0.014 A 
BRANCH  14  17
HETATM   17  O3  UNL     1       9.048  34.363  22.017  1.00  0.00    -0.361 OA
HETATM   18  H5  UNL     1       9.431  33.548  22.381  1.00  0.00     0.217 HD
ENDBRANCH  14  17
ENDBRANCH   2  11
TORSDOF 6
ENDMDL
MODEL 9
REMARK minimizedAffinity -5.50351334
REMARK  6 active torsions:
REMARK  status: ('A' for Active; 'I' for Inactive)
REMARK    1  A    between atoms: C1_2  and  O2_3 
REMARK    2  A    between atoms: C1_2  and  C2_4 
REMARK    3  A    between atoms: C2_4  and  C10_13 
REMARK    4  A    between atoms: C3_5  and  C4_6 
REMARK    5  A    between atoms: C7_9  and  O3_10 
REMARK    6  A    between atoms: C10_13  and  O5_15 
ROOT
HETATM    1  C2  UNL     1       9.107  34.822  22.391  1.00  0.00     0.111 C 
HETATM    2  C3  UNL     1       8.882  34.454  21.114  1.00  0.00     0.036 C 
ENDROOT
BRANCH   1   3
HETATM    3  C1  UNL     1       8.117  34.421  23.401  1.00  0.00     0.183 C 
HETATM    4  O1  UNL     1       8.013  33.320  23.916  1.00  0.00    -0.646 OA
BRANCH   3   5
HETATM    5  O2  UNL     1       7.301  35.425  23.763  1.00  0.00    -0.772 OA
HETATM    6  H1  UNL     1       6.697  35.024  24.423  1.00  0.00     0.167 HD
ENDBRANCH   3   5
ENDBRANCH   1   3
BRANCH   1   7
HETATM    7  C10 UNL     1      10.272  35.632  22.763  1.00  0.00     0.183 C 
HETATM    8  O4  UNL     1      10.444  36.807  22.496  1.00  0.00    -0.646 OA
BRANCH   7   9
HETATM    9  O5  UNL     1      11.180  34.921  23.457  1.00  0.00    -0.772 OA
HETATM   10  H8  UNL     1      11.907  35.558  23.620  1.00  0.00     0.167 HD
ENDBRANCH   7   9
ENDBRANCH   1   7
BRANCH   2  11
HETATM   11  C4  UNL     1       9.717  34.805  19.958  1.00  0.00    -0.035 A 
HETATM   12  C5  UNL     1       9.258  35.687  18.972  1.00  0.00     0.014 A 
HETATM   13  C6  UNL     1      10.064  35.996  17.875  1.00  0.00     0.037 A 
HETATM   14  C7  UNL     1      11.324  35.418  17.761  1.00  0.00     0.065 A 
HETATM   15  C8  UNL     1      11.790  34.532  18.726  1.00  0.00     0.037 A 
HETATM   16  C9  UNL     1      10.983  34.223  19.824  1.00  0.00     0.014 A 
BRANCH  14  17
HETATM   17  O3  UNL     1      12.077  35.748  16.675  1.00  0.00    -0.361 OA
HETATM   18  H5  UNL     1      12.921  35.269  16.724  1.00  0.00     0.217 HD
ENDBRANCH  14  17
ENDBRANCH   2  11
TORSDOF 6
ENDMDL
