MODEL 1
REMARK minimizedAffinity -5.20893908
REMARK CNNscore 0.700628281
REMARK CNNaffinity 5.36324835
REMARK  2 active torsions:
REMARK  status: ('A' for Active; 'I' for Inactive)
REMARK    1  A    between atoms: C5_6  and  N1_7 
REMARK    2  A    between atoms: N1_7  and  C6_8 
ROOT
HETATM    1  C6  UNL     1       0.241  67.742   0.148  1.00  0.00     0.120 A 
HETATM    2  N2  UNL     1       0.567  68.601  -0.850  1.00  0.00    -0.338 N 
ATOM      3  H2  UNL     1       0.602  68.273  -1.815  1.00  0.00     0.168 HD
HETATM    4  C7  UNL     1       0.842  69.880  -0.565  1.00  0.00     0.182 A 
HETATM    5  N3  UNL     1       0.843  70.456   0.633  1.00  0.00    -0.346 N 
ATOM      6  H3  UNL     1       1.073  71.436   0.791  1.00  0.00     0.167 HD
HETATM    7  C8  UNL     1       0.507  69.600   1.611  1.00  0.00     0.090 A 
HETATM    8  S1  UNL     1       0.459  70.145   3.223  1.00  0.00    -0.075 SA
HETATM    9  C9  UNL     1      -0.017  68.617   3.785  1.00  0.00    -0.008 A 
HETATM   10  C10 UNL     1      -0.160  67.689   2.766  1.00  0.00    -0.028 A 
HETATM   11  C11 UNL     1       0.184  68.254   1.471  1.00  0.00     0.049 A 
HETATM   12  C12 UNL     1      -0.606  66.284   3.063  1.00  0.00     0.041 C 
HETATM   13  C13 UNL     1      -1.205  66.140   4.471  1.00  0.00     0.005 C 
HETATM   14  C14 UNL     1      -0.360  66.866   5.524  1.00  0.00     0.005 C 
HETATM   15  C15 UNL     1      -0.286  68.371   5.238  1.00  0.00     0.047 C 
ENDROOT
BRANCH   1  16
HETATM   16  N1  UNL     1       0.015  66.385  -0.135  1.00  0.00    -0.342 N 
HETATM   17  H4  UNL     1      -0.514  65.914   0.581  1.00  0.00     0.167 HD
BRANCH  16  18
HETATM   18  C5  UNL     1       0.527  65.528  -1.126  1.00  0.00     0.034 A 
HETATM   19  C4  UNL     1      -0.254  64.431  -1.532  1.00  0.00     0.029 A 
HETATM   20  C3  UNL     1       0.193  63.538  -2.510  1.00  0.00     0.004 A 
HETATM   21  C2  UNL     1       1.437  63.727  -3.105  1.00  0.00     0.019 A 
HETATM   22  C1  UNL     1       2.219  64.810  -2.717  1.00  0.00     0.013 A 
HETATM   23 BR1  UNL     1       3.907  65.079  -3.529  1.00  0.00    -0.051 Br
HETATM   24  C16 UNL     1       1.771  65.703  -1.740  1.00  0.00     0.048 A 
ENDBRANCH  16  18
ENDBRANCH   1  16
TORSDOF 2
ENDMDL
MODEL 2
REMARK minimizedAffinity -6.45540476
REMARK CNNscore 0.688196182
REMARK CNNaffinity 5.41876793
REMARK  2 active torsions:
REMARK  status: ('A' for Active; 'I' for Inactive)
REMARK    1  A    between atoms: C5_6  and  N1_7 
REMARK    2  A    between atoms: N1_7  and  C6_8 
ROOT
HETATM    1  C6  UNL     1      17.219  50.389   5.436  1.00  0.00     0.120 A 
HETATM    2  N2  UNL     1      16.825  49.677   4.351  1.00  0.00    -0.338 N 
ATOM      3  H2  UNL     1      16.050  50.008   3.776  1.00  0.00     0.168 HD
HETATM    4  C7  UNL     1      17.455  48.539   4.036  1.00  0.00     0.182 A 
HETATM    5  N3  UNL     1      18.472  47.976   4.682  1.00  0.00    -0.346 N 
ATOM      6  H3  UNL     1      18.907  47.098   4.401  1.00  0.00     0.167 HD
HETATM    7  C8  UNL     1      18.862  48.696   5.746  1.00  0.00     0.090 A 
HETATM    8  S1  UNL     1      20.148  48.138   6.711  1.00  0.00    -0.075 SA
HETATM    9  C9  UNL     1      20.040  49.485   7.735  1.00  0.00    -0.008 A 
HETATM   10  C10 UNL     1      19.048  50.374   7.352  1.00  0.00    -0.028 A 
HETATM   11  C11 UNL     1      18.318  49.896   6.189  1.00  0.00     0.049 A 
HETATM   12  C12 UNL     1      18.819  51.647   8.120  1.00  0.00     0.041 C 
HETATM   13  C13 UNL     1      19.984  51.986   9.063  1.00  0.00     0.005 C 
HETATM   14  C14 UNL     1      20.463  50.753   9.838  1.00  0.00     0.005 C 
HETATM   15  C15 UNL     1      20.978  49.663   8.889  1.00  0.00     0.047 C 
ENDROOT
BRANCH   1  16
HETATM   16  N1  UNL     1      16.521  51.549   5.810  1.00  0.00    -0.342 N 
HETATM   17  H4  UNL     1      15.843  51.387   6.536  1.00  0.00     0.167 HD
BRANCH  16  18
HETATM   18  C5  UNL     1      16.463  52.839   5.250  1.00  0.00     0.034 A 
HETATM   19  C4  UNL     1      17.671  53.504   4.975  1.00  0.00     0.029 A 
HETATM   20  C3  UNL     1      17.688  54.787   4.420  1.00  0.00     0.004 A 
HETATM   21  C2  UNL     1      16.490  55.432   4.128  1.00  0.00     0.019 A 
HETATM   22  C1  UNL     1      15.287  54.784   4.391  1.00  0.00     0.013 A 
HETATM   23 BR1  UNL     1      13.655  55.652   3.985  1.00  0.00    -0.051 Br
HETATM   24  C16 UNL     1      15.270  53.501   4.943  1.00  0.00     0.048 A 
ENDBRANCH  16  18
ENDBRANCH   1  16
TORSDOF 2
ENDMDL
MODEL 3
REMARK minimizedAffinity -6.3749299
REMARK CNNscore 0.604683101
REMARK CNNaffinity 5.13518333
REMARK  2 active torsions:
REMARK  status: ('A' for Active; 'I' for Inactive)
REMARK    1  A    between atoms: C5_6  and  N1_7 
REMARK    2  A    between atoms: N1_7  and  C6_8 
ROOT
HETATM    1  C6  UNL     1      17.478  50.935   6.303  1.00  0.00     0.120 A 
HETATM    2  N2  UNL     1      18.170  51.694   7.189  1.00  0.00    -0.338 N 
ATOM      3  H2  UNL     1      17.937  52.680   7.308  1.00  0.00     0.168 HD
HETATM    4  C7  UNL     1      19.159  51.147   7.906  1.00  0.00     0.182 A 
HETATM    5  N3  UNL     1      19.583  49.887   7.863  1.00  0.00    -0.346 N 
ATOM      6  H3  UNL     1      20.353  49.528   8.427  1.00  0.00     0.167 HD
HETATM    7  C8  UNL     1      18.883  49.143   6.993  1.00  0.00     0.090 A 
HETATM    8  S1  UNL     1      19.279  47.500   6.785  1.00  0.00    -0.075 SA
HETATM    9  C9  UNL     1      18.044  47.287   5.643  1.00  0.00    -0.008 A 
HETATM   10  C10 UNL     1      17.313  48.443   5.418  1.00  0.00    -0.028 A 
HETATM   11  C11 UNL     1      17.827  49.563   6.191  1.00  0.00     0.049 A 
HETATM   12  C12 UNL     1      16.154  48.446   4.460  1.00  0.00     0.041 C 
HETATM   13  C13 UNL     1      15.688  47.029   4.093  1.00  0.00     0.005 C 
HETATM   14  C14 UNL     1      16.872  46.102   3.790  1.00  0.00     0.005 C 
HETATM   15  C15 UNL     1      17.789  45.953   5.011  1.00  0.00     0.047 C 
ENDROOT
BRANCH   1  16
HETATM   16  N1  UNL     1      16.483  51.518   5.501  1.00  0.00    -0.342 N 
HETATM   17  H4  UNL     1      15.945  50.842   4.984  1.00  0.00     0.167 HD
BRANCH  16  18
HETATM   18  C5  UNL     1      16.213  52.854   5.151  1.00  0.00     0.034 A 
HETATM   19  C4  UNL     1      14.882  53.305   5.210  1.00  0.00     0.029 A 
HETATM   20  C3  UNL     1      14.541  54.619   4.875  1.00  0.00     0.004 A 
HETATM   21  C2  UNL     1      15.531  55.511   4.473  1.00  0.00     0.019 A 
HETATM   22  C1  UNL     1      16.853  55.080   4.415  1.00  0.00     0.013 A 
HETATM   23 BR1  UNL     1      18.205  56.291   3.880  1.00  0.00    -0.051 Br
HETATM   24  C16 UNL     1      17.193  53.767   4.751  1.00  0.00     0.048 A 
ENDBRANCH  16  18
ENDBRANCH   1  16
TORSDOF 2
ENDMDL
MODEL 4
REMARK minimizedAffinity -5.65990686
REMARK CNNscore 0.532738447
REMARK CNNaffinity 5.2313199
REMARK  2 active torsions:
REMARK  status: ('A' for Active; 'I' for Inactive)
REMARK    1  A    between atoms: C5_6  and  N1_7 
REMARK    2  A    between atoms: N1_7  and  C6_8 
ROOT
HETATM    1  C6  UNL     1      18.082  51.047   5.187  1.00  0.00     0.120 A 
HETATM    2  N2  UNL     1      19.324  50.503   5.132  1.00  0.00    -0.338 N 
ATOM      3  H2  UNL     1      19.438  49.490   5.128  1.00  0.00     0.168 HD
HETATM    4  C7  UNL     1      20.398  51.300   5.082  1.00  0.00     0.182 A 
HETATM    5  N3  UNL     1      20.416  52.630   5.083  1.00  0.00    -0.346 N 
ATOM      6  H3  UNL     1      21.270  53.187   5.055  1.00  0.00     0.167 HD
HETATM    7  C8  UNL     1      19.181  53.156   5.125  1.00  0.00     0.090 A 
HETATM    8  S1  UNL     1      18.991  54.848   5.142  1.00  0.00    -0.075 SA
HETATM    9  C9  UNL     1      17.301  54.714   5.180  1.00  0.00    -0.008 A 
HETATM   10  C10 UNL     1      16.864  53.399   5.164  1.00  0.00    -0.028 A 
HETATM   11  C11 UNL     1      17.977  52.463   5.167  1.00  0.00     0.049 A 
HETATM   12  C12 UNL     1      15.395  53.077   5.162  1.00  0.00     0.041 C 
HETATM   13  C13 UNL     1      14.524  54.295   4.816  1.00  0.00     0.005 C 
HETATM   14  C14 UNL     1      14.985  55.553   5.561  1.00  0.00     0.005 C 
HETATM   15  C15 UNL     1      16.423  55.928   5.183  1.00  0.00     0.047 C 
ENDROOT
BRANCH   1  16
HETATM   16  N1  UNL     1      16.954  50.218   5.305  1.00  0.00    -0.342 N 
HETATM   17  H4  UNL     1      16.141  50.702   5.650  1.00  0.00     0.167 HD
BRANCH  16  18
HETATM   18  C5  UNL     1      16.791  48.824   5.204  1.00  0.00     0.034 A 
HETATM   19  C4  UNL     1      17.218  48.021   6.276  1.00  0.00     0.029 A 
HETATM   20  C3  UNL     1      17.088  46.629   6.243  1.00  0.00     0.004 A 
HETATM   21  C2  UNL     1      16.523  46.012   5.131  1.00  0.00     0.019 A 
HETATM   22  C1  UNL     1      16.091  46.795   4.065  1.00  0.00     0.013 A 
HETATM   23 BR1  UNL     1      15.312  45.962   2.554  1.00  0.00    -0.051 Br
HETATM   24  C16 UNL     1      16.220  48.185   4.099  1.00  0.00     0.048 A 
ENDBRANCH  16  18
ENDBRANCH   1  16
TORSDOF 2
ENDMDL
MODEL 5
REMARK minimizedAffinity -5.72406626
REMARK CNNscore 0.483473122
REMARK CNNaffinity 5.41761017
REMARK  2 active torsions:
REMARK  status: ('A' for Active; 'I' for Inactive)
REMARK    1  A    between atoms: C5_6  and  N1_7 
REMARK    2  A    between atoms: N1_7  and  C6_8 
ROOT
HETATM    1  C6  UNL     1      13.134  60.188   4.788  1.00  0.00     0.120 A 
HETATM    2  N2  UNL     1      13.018  61.487   5.160  1.00  0.00    -0.338 N 
ATOM      3  H2  UNL     1      12.994  61.735   6.149  1.00  0.00     0.168 HD
HETATM    4  C7  UNL     1      12.936  62.443   4.226  1.00  0.00     0.182 A 
HETATM    5  N3  UNL     1      12.949  62.283   2.906  1.00  0.00    -0.346 N 
ATOM      6  H3  UNL     1      12.871  63.050   2.240  1.00  0.00     0.167 HD
HETATM    7  C8  UNL     1      13.077  60.994   2.550  1.00  0.00     0.090 A 
HETATM    8  S1  UNL     1      13.106  60.579   0.899  1.00  0.00    -0.075 SA
HETATM    9  C9  UNL     1      13.290  58.932   1.258  1.00  0.00    -0.008 A 
HETATM   10  C10 UNL     1      13.347  58.681   2.620  1.00  0.00    -0.028 A 
HETATM   11  C11 UNL     1      13.186  59.898   3.398  1.00  0.00     0.049 A 
HETATM   12  C12 UNL     1      13.539  57.281   3.135  1.00  0.00     0.041 C 
HETATM   13  C13 UNL     1      14.012  56.309   2.043  1.00  0.00     0.005 C 
HETATM   14  C14 UNL     1      13.228  56.496   0.739  1.00  0.00     0.005 C 
HETATM   15  C15 UNL     1      13.418  57.908   0.172  1.00  0.00     0.047 C 
ENDROOT
BRANCH   1  16
HETATM   16  N1  UNL     1      13.156  59.175   5.761  1.00  0.00    -0.342 N 
HETATM   17  H4  UNL     1      13.201  58.249   5.368  1.00  0.00     0.167 HD
BRANCH  16  18
HETATM   18  C5  UNL     1      12.951  59.197   7.153  1.00  0.00     0.034 A 
HETATM   19  C4  UNL     1      13.899  58.566   7.978  1.00  0.00     0.029 A 
HETATM   20  C3  UNL     1      13.758  58.547   9.369  1.00  0.00     0.004 A 
HETATM   21  C2  UNL     1      12.661  59.164   9.964  1.00  0.00     0.019 A 
HETATM   22  C1  UNL     1      11.718  59.797   9.159  1.00  0.00     0.013 A 
HETATM   23 BR1  UNL     1      10.230  60.646   9.962  1.00  0.00    -0.051 Br
HETATM   24  C16 UNL     1      11.860  59.816   7.770  1.00  0.00     0.048 A 
ENDBRANCH  16  18
ENDBRANCH   1  16
TORSDOF 2
ENDMDL
MODEL 6
REMARK minimizedAffinity -5.17708397
REMARK CNNscore 0.446599722
REMARK CNNaffinity 5.00490236
REMARK  2 active torsions:
REMARK  status: ('A' for Active; 'I' for Inactive)
REMARK    1  A    between atoms: C5_6  and  N1_7 
REMARK    2  A    between atoms: N1_7  and  C6_8 
ROOT
HETATM    1  C6  UNL     1       1.932  67.162  -3.865  1.00  0.00     0.120 A 
HETATM    2  N2  UNL     1       3.232  66.953  -4.192  1.00  0.00    -0.338 N 
ATOM      3  H2  UNL     1       3.818  67.736  -4.482  1.00  0.00     0.168 HD
HETATM    4  C7  UNL     1       3.744  65.718  -4.132  1.00  0.00     0.182 A 
HETATM    5  N3  UNL     1       3.115  64.601  -3.779  1.00  0.00    -0.346 N 
ATOM      6  H3  UNL     1       3.555  63.682  -3.763  1.00  0.00     0.167 HD
HETATM    7  C8  UNL     1       1.833  64.822  -3.446  1.00  0.00     0.090 A 
HETATM    8  S1  UNL     1       0.852  63.513  -2.971  1.00  0.00    -0.075 SA
HETATM    9  C9  UNL     1      -0.483  64.529  -2.726  1.00  0.00    -0.008 A 
HETATM   10  C10 UNL     1      -0.200  65.862  -2.982  1.00  0.00    -0.028 A 
HETATM   11  C11 UNL     1       1.166  66.042  -3.445  1.00  0.00     0.049 A 
HETATM   12  C12 UNL     1      -1.251  66.921  -2.791  1.00  0.00     0.041 C 
HETATM   13  C13 UNL     1      -2.451  66.420  -1.973  1.00  0.00     0.005 C 
HETATM   14  C14 UNL     1      -2.906  65.028  -2.425  1.00  0.00     0.005 C 
HETATM   15  C15 UNL     1      -1.792  63.990  -2.237  1.00  0.00     0.047 C 
ENDROOT
BRANCH   1  16
HETATM   16  N1  UNL     1       1.371  68.444  -3.987  1.00  0.00    -0.342 N 
HETATM   17  H4  UNL     1       0.856  68.571  -4.843  1.00  0.00     0.167 HD
BRANCH  16  18
HETATM   18  C5  UNL     1       1.537  69.624  -3.239  1.00  0.00     0.034 A 
HETATM   19  C4  UNL     1       1.034  69.659  -1.926  1.00  0.00     0.029 A 
HETATM   20  C3  UNL     1       1.162  70.799  -1.126  1.00  0.00     0.004 A 
HETATM   21  C2  UNL     1       1.801  71.929  -1.626  1.00  0.00     0.019 A 
HETATM   22  C1  UNL     1       2.309  71.906  -2.922  1.00  0.00     0.013 A 
HETATM   23 BR1  UNL     1       3.188  73.437  -3.604  1.00  0.00    -0.051 Br
HETATM   24  C16 UNL     1       2.182  70.767  -3.721  1.00  0.00     0.048 A 
ENDBRANCH  16  18
ENDBRANCH   1  16
TORSDOF 2
ENDMDL
MODEL 7
REMARK minimizedAffinity -5.95296764
REMARK CNNscore 0.398454756
REMARK CNNaffinity 4.413692
REMARK  2 active torsions:
REMARK  status: ('A' for Active; 'I' for Inactive)
REMARK    1  A    between atoms: C5_6  and  N1_7 
REMARK    2  A    between atoms: N1_7  and  C6_8 
ROOT
HETATM    1  C6  UNL     1       3.249  66.428  -5.087  1.00  0.00     0.120 A 
HETATM    2  N2  UNL     1       2.338  67.361  -5.460  1.00  0.00    -0.338 N 
ATOM      3  H2  UNL     1       1.620  67.666  -4.802  1.00  0.00     0.168 HD
HETATM    4  C7  UNL     1       2.383  67.881  -6.693  1.00  0.00     0.182 A 
HETATM    5  N3  UNL     1       3.247  67.587  -7.660  1.00  0.00    -0.346 N 
ATOM      6  H3  UNL     1       3.226  68.009  -8.588  1.00  0.00     0.167 HD
HETATM    7  C8  UNL     1       4.151  66.673  -7.275  1.00  0.00     0.090 A 
HETATM    8  S1  UNL     1       5.342  66.156  -8.376  1.00  0.00    -0.075 SA
HETATM    9  C9  UNL     1       6.031  65.113  -7.230  1.00  0.00    -0.008 A 
HETATM   10  C10 UNL     1       5.383  65.155  -6.006  1.00  0.00    -0.028 A 
HETATM   11  C11 UNL     1       4.241  66.055  -6.032  1.00  0.00     0.049 A 
HETATM   12  C12 UNL     1       5.867  64.322  -4.851  1.00  0.00     0.041 C 
HETATM   13  C13 UNL     1       7.282  63.767  -5.076  1.00  0.00     0.005 C 
HETATM   14  C14 UNL     1       7.453  63.204  -6.492  1.00  0.00     0.005 C 
HETATM   15  C15 UNL     1       7.242  64.292  -7.552  1.00  0.00     0.047 C 
ENDROOT
BRANCH   1  16
HETATM   16  N1  UNL     1       3.168  65.831  -3.818  1.00  0.00    -0.342 N 
HETATM   17  H4  UNL     1       4.063  65.543  -3.458  1.00  0.00     0.167 HD
BRANCH  16  18
HETATM   18  C5  UNL     1       2.075  65.404  -3.042  1.00  0.00     0.034 A 
HETATM   19  C4  UNL     1       1.574  64.107  -3.247  1.00  0.00     0.029 A 
HETATM   20  C3  UNL     1       0.490  63.618  -2.513  1.00  0.00     0.004 A 
HETATM   21  C2  UNL     1      -0.116  64.422  -1.552  1.00  0.00     0.019 A 
HETATM   22  C1  UNL     1       0.372  65.707  -1.334  1.00  0.00     0.013 A 
HETATM   23 BR1  UNL     1      -0.440  66.801  -0.021  1.00  0.00    -0.051 Br
HETATM   24  C16 UNL     1       1.457  66.194  -2.067  1.00  0.00     0.048 A 
ENDBRANCH  16  18
ENDBRANCH   1  16
TORSDOF 2
ENDMDL
MODEL 8
REMARK minimizedAffinity -5.96003008
REMARK CNNscore 0.394282579
REMARK CNNaffinity 5.03376055
REMARK  2 active torsions:
REMARK  status: ('A' for Active; 'I' for Inactive)
REMARK    1  A    between atoms: C5_6  and  N1_7 
REMARK    2  A    between atoms: N1_7  and  C6_8 
ROOT
HETATM    1  C6  UNL     1       2.104  67.858  -3.913  1.00  0.00     0.120 A 
HETATM    2  N2  UNL     1       2.468  69.107  -3.530  1.00  0.00    -0.338 N 
ATOM      3  H2  UNL     1       3.045  69.682  -4.144  1.00  0.00     0.168 HD
HETATM    4  C7  UNL     1       2.067  69.584  -2.345  1.00  0.00     0.182 A 
HETATM    5  N3  UNL     1       1.320  68.962  -1.438  1.00  0.00    -0.346 N 
ATOM      6  H3  UNL     1       1.054  69.372  -0.543  1.00  0.00     0.167 HD
HETATM    7  C8  UNL     1       0.955  67.732  -1.834  1.00  0.00     0.090 A 
HETATM    8  S1  UNL     1      -0.000  66.769  -0.805  1.00  0.00    -0.075 SA
HETATM    9  C9  UNL     1      -0.034  65.500  -1.930  1.00  0.00    -0.008 A 
HETATM   10  C10 UNL     1       0.657  65.795  -3.094  1.00  0.00    -0.028 A 
HETATM   11  C11 UNL     1       1.280  67.107  -3.033  1.00  0.00     0.049 A 
HETATM   12  C12 UNL     1       0.715  64.805  -4.225  1.00  0.00     0.041 C 
HETATM   13  C13 UNL     1      -0.329  63.686  -4.084  1.00  0.00     0.005 C 
HETATM   14  C14 UNL     1      -0.387  63.141  -2.652  1.00  0.00     0.005 C 
HETATM   15  C15 UNL     1      -0.790  64.236  -1.656  1.00  0.00     0.047 C 
ENDROOT
BRANCH   1  16
HETATM   16  N1  UNL     1       2.574  67.327  -5.126  1.00  0.00    -0.342 N 
HETATM   17  H4  UNL     1       1.916  67.423  -5.882  1.00  0.00     0.167 HD
BRANCH  16  18
HETATM   18  C5  UNL     1       3.697  66.540  -5.441  1.00  0.00     0.034 A 
HETATM   19  C4  UNL     1       4.222  65.695  -4.448  1.00  0.00     0.029 A 
HETATM   20  C3  UNL     1       5.337  64.887  -4.691  1.00  0.00     0.004 A 
HETATM   21  C2  UNL     1       5.950  64.909  -5.940  1.00  0.00     0.019 A 
HETATM   22  C1  UNL     1       5.439  65.738  -6.935  1.00  0.00     0.013 A 
HETATM   23 BR1  UNL     1       6.261  65.764  -8.639  1.00  0.00    -0.051 Br
HETATM   24  C16 UNL     1       4.324  66.543  -6.692  1.00  0.00     0.048 A 
ENDBRANCH  16  18
ENDBRANCH   1  16
TORSDOF 2
ENDMDL
MODEL 9
REMARK minimizedAffinity -6.16879749
REMARK CNNscore 0.360728025
REMARK CNNaffinity 5.17481613
REMARK  2 active torsions:
REMARK  status: ('A' for Active; 'I' for Inactive)
REMARK    1  A    between atoms: C5_6  and  N1_7 
REMARK    2  A    between atoms: N1_7  and  C6_8 
ROOT
HETATM    1  C6  UNL     1      12.894  58.651   1.454  1.00  0.00     0.120 A 
HETATM    2  N2  UNL     1      12.673  59.912   1.008  1.00  0.00    -0.338 N 
ATOM      3  H2  UNL     1      12.237  60.064   0.099  1.00  0.00     0.168 HD
HETATM    4  C7  UNL     1      13.028  60.958   1.765  1.00  0.00     0.182 A 
HETATM    5  N3  UNL     1      13.604  60.927   2.963  1.00  0.00    -0.346 N 
ATOM      6  H3  UNL     1      13.864  61.761   3.490  1.00  0.00     0.167 HD
HETATM    7  C8  UNL     1      13.806  59.674   3.399  1.00  0.00     0.090 A 
HETATM    8  S1  UNL     1      14.544  59.421   4.913  1.00  0.00    -0.075 SA
HETATM    9  C9  UNL     1      14.434  57.737   4.750  1.00  0.00    -0.008 A 
HETATM   10  C10 UNL     1      13.828  57.350   3.565  1.00  0.00    -0.028 A 
HETATM   11  C11 UNL     1      13.483  58.494   2.738  1.00  0.00     0.049 A 
HETATM   12  C12 UNL     1      13.612  55.894   3.252  1.00  0.00     0.041 C 
HETATM   13  C13 UNL     1      13.782  54.994   4.486  1.00  0.00     0.005 C 
HETATM   14  C14 UNL     1      15.020  55.379   5.304  1.00  0.00     0.005 C 
HETATM   15  C15 UNL     1      14.916  56.817   5.829  1.00  0.00     0.047 C 
ENDROOT
BRANCH   1  16
HETATM   16  N1  UNL     1      12.584  57.550   0.639  1.00  0.00    -0.342 N 
HETATM   17  H4  UNL     1      11.618  57.273   0.698  1.00  0.00     0.167 HD
BRANCH  16  18
HETATM   18  C5  UNL     1      13.390  56.663  -0.099  1.00  0.00     0.034 A 
HETATM   19  C4  UNL     1      14.778  56.888  -0.129  1.00  0.00     0.029 A 
HETATM   20  C3  UNL     1      15.638  56.048  -0.843  1.00  0.00     0.004 A 
HETATM   21  C2  UNL     1      15.123  54.960  -1.541  1.00  0.00     0.019 A 
HETATM   22  C1  UNL     1      13.752  54.722  -1.516  1.00  0.00     0.013 A 
HETATM   23 BR1  UNL     1      13.047  53.239  -2.456  1.00  0.00    -0.051 Br
HETATM   24  C16 UNL     1      12.893  55.561  -0.802  1.00  0.00     0.048 A 
ENDBRANCH  16  18
ENDBRANCH   1  16
TORSDOF 2
ENDMDL
