MODEL 1
REMARK minimizedAffinity -8.22182465
REMARK  8 active torsions:
REMARK  status: ('A' for Active; 'I' for Inactive)
REMARK    1  A    between atoms: O1_2  and  C2_3 
REMARK    2  A    between atoms: C6_11  and  N3_12 
REMARK    3  A    between atoms: N3_12  and  C7_13 
REMARK    4  A    between atoms: C15_23  and  O2_24 
REMARK    5  A    between atoms: O2_24  and  C16_25 
REMARK    6  A    between atoms: C16_25  and  C17_26 
REMARK    7  A    between atoms: C17_26  and  C18_27 
REMARK    8  A    between atoms: C18_27  and  N4_28 
ROOT
HETATM    1  C2  UNL     1       5.008  -6.354  28.945  1.00  0.00     0.103 A 
HETATM    2  C3  UNL     1       4.675  -5.069  29.387  1.00  0.00     0.070 A 
HETATM    3  C4  UNL     1       5.515  -4.323  30.209  1.00  0.00     0.050 A 
HETATM    4  N1  UNL     1       5.120  -3.101  30.576  1.00  0.00    -0.351 N 
ATOM      5  H1  UNL     1       4.226  -2.715  30.272  1.00  0.00     0.166 HD
HETATM    6  C5  UNL     1       5.953  -2.409  31.359  1.00  0.00     0.182 A 
HETATM    7  N2  UNL     1       7.134  -2.829  31.822  1.00  0.00    -0.338 N 
ATOM      8  H2  UNL     1       7.713  -2.240  32.420  1.00  0.00     0.168 HD
HETATM    9  C6  UNL     1       7.522  -4.067  31.464  1.00  0.00     0.119 A 
HETATM   10  C13 UNL     1       6.735  -4.877  30.621  1.00  0.00     0.038 A 
HETATM   11  C14 UNL     1       7.091  -6.169  30.169  1.00  0.00     0.057 A 
HETATM   12  C15 UNL     1       6.246  -6.886  29.322  1.00  0.00     0.103 A 
ENDROOT
BRANCH   9  13
HETATM   13  N3  UNL     1       8.762  -4.567  31.940  1.00  0.00    -0.339 N 
HETATM   14  H6  UNL     1       8.648  -5.526  32.264  1.00  0.00     0.167 HD
BRANCH  13  15
HETATM   15  C7  UNL     1       9.748  -3.902  32.709  1.00  0.00     0.074 A 
HETATM   16  C8  UNL     1      10.617  -2.945  32.175  1.00  0.00     0.056 A 
HETATM   17  C9  UNL     1      11.615  -2.370  32.971  1.00  0.00     0.036 A 
HETATM   18 CL1  UNL     1      12.665  -1.180  32.301  1.00  0.00    -0.084 Cl
HETATM   19  C10 UNL     1      11.781  -2.756  34.302  1.00  0.00     0.027 A 
HETATM   20  C11 UNL     1      10.946  -3.731  34.842  1.00  0.00     0.046 A 
HETATM   21  C12 UNL     1       9.950  -4.295  34.045  1.00  0.00     0.143 A 
HETATM   22  F1  UNL     1       9.157  -5.240  34.575  1.00  0.00    -0.204 F 
ENDBRANCH  13  15
ENDBRANCH   9  13
BRANCH  12  23
HETATM   23  O2  UNL     1       6.686  -8.132  28.959  1.00  0.00    -0.348 OA
BRANCH  23  24
HETATM   24  C16 UNL     1       7.576  -8.101  27.832  1.00  0.00     0.177 C 
BRANCH  24  25
HETATM   25  C17 UNL     1       8.890  -8.736  28.277  1.00  0.00     0.057 C 
BRANCH  25  26
HETATM   26  C18 UNL     1       9.941  -7.673  28.621  1.00  0.00     0.274 C 
BRANCH  26  27
HETATM   27  N4  UNL     1       9.887  -6.525  27.701  1.00  0.00     0.092 N 
HETATM   28  C19 UNL     1      10.660  -6.734  26.453  1.00  0.00     0.298 C 
HETATM   29  C20 UNL     1      12.037  -6.038  26.459  1.00  0.00     0.198 C 
HETATM   30  O3  UNL     1      11.955  -4.616  26.631  1.00  0.00    -0.388 OA
HETATM   31  C21 UNL     1      10.795  -4.213  27.380  1.00  0.00     0.198 C 
HETATM   32  C22 UNL     1      10.335  -5.288  28.383  1.00  0.00     0.298 C 
ENDBRANCH  26  27
ENDBRANCH  25  26
ENDBRANCH  24  25
ENDBRANCH  23  24
ENDBRANCH  12  23
BRANCH   1  33
HETATM   33  O1  UNL     1       4.206  -7.130  28.156  1.00  0.00    -0.353 OA
HETATM   34  C1  UNL     1       2.802  -6.905  28.251  1.00  0.00     0.210 C 
ENDBRANCH   1  33
TORSDOF 8
ENDMDL
MODEL 2
REMARK minimizedAffinity -8.09939957
REMARK  8 active torsions:
REMARK  status: ('A' for Active; 'I' for Inactive)
REMARK    1  A    between atoms: O1_2  and  C2_3 
REMARK    2  A    between atoms: C6_11  and  N3_12 
REMARK    3  A    between atoms: N3_12  and  C7_13 
REMARK    4  A    between atoms: C15_23  and  O2_24 
REMARK    5  A    between atoms: O2_24  and  C16_25 
REMARK    6  A    between atoms: C16_25  and  C17_26 
REMARK    7  A    between atoms: C17_26  and  C18_27 
REMARK    8  A    between atoms: C18_27  and  N4_28 
ROOT
HETATM    1  C2  UNL     1       5.176  -7.642  28.193  1.00  0.00     0.103 A 
HETATM    2  C3  UNL     1       4.594  -6.408  28.501  1.00  0.00     0.070 A 
HETATM    3  C4  UNL     1       5.184  -5.505  29.381  1.00  0.00     0.050 A 
HETATM    4  N1  UNL     1       4.562  -4.346  29.610  1.00  0.00    -0.351 N 
ATOM      5  H1  UNL     1       3.674  -4.118  29.162  1.00  0.00     0.166 HD
HETATM    6  C5  UNL     1       5.158  -3.499  30.455  1.00  0.00     0.182 A 
HETATM    7  N2  UNL     1       6.308  -3.709  31.103  1.00  0.00    -0.338 N 
ATOM      8  H2  UNL     1       6.699  -3.011  31.735  1.00  0.00     0.168 HD
HETATM    9  C6  UNL     1       6.925  -4.884  30.882  1.00  0.00     0.119 A 
HETATM   10  C13 UNL     1       6.399  -5.843  29.993  1.00  0.00     0.038 A 
HETATM   11  C14 UNL     1       7.007  -7.081  29.678  1.00  0.00     0.057 A 
HETATM   12  C15 UNL     1       6.411  -7.957  28.770  1.00  0.00     0.103 A 
ENDROOT
BRANCH   9  13
HETATM   13  N3  UNL     1       8.142  -5.163  31.555  1.00  0.00    -0.339 N 
HETATM   14  H6  UNL     1       8.050  -6.018  32.099  1.00  0.00     0.167 HD
BRANCH  13  15
HETATM   15  C7  UNL     1       9.022  -4.261  32.203  1.00  0.00     0.074 A 
HETATM   16  C8  UNL     1       9.415  -3.040  31.642  1.00  0.00     0.056 A 
HETATM   17  C9  UNL     1      10.339  -2.222  32.302  1.00  0.00     0.036 A 
HETATM   18 CL1  UNL     1      10.797  -0.714  31.606  1.00  0.00    -0.084 Cl
HETATM   19  C10 UNL     1      10.906  -2.614  33.516  1.00  0.00     0.027 A 
HETATM   20  C11 UNL     1      10.551  -3.840  34.073  1.00  0.00     0.046 A 
HETATM   21  C12 UNL     1       9.626  -4.649  33.413  1.00  0.00     0.143 A 
HETATM   22  F1  UNL     1       9.299  -5.832  33.956  1.00  0.00    -0.204 F 
ENDBRANCH  13  15
ENDBRANCH   9  13
BRANCH  12  23
HETATM   23  O2  UNL     1       7.081  -9.133  28.553  1.00  0.00    -0.348 OA
BRANCH  23  24
HETATM   24  C16 UNL     1       8.403  -8.930  28.029  1.00  0.00     0.177 C 
BRANCH  24  25
HETATM   25  C17 UNL     1       9.373  -9.649  28.962  1.00  0.00     0.057 C 
BRANCH  25  26
HETATM   26  C18 UNL     1      10.258 -10.642  28.197  1.00  0.00     0.274 C 
BRANCH  26  27
HETATM   27  N4  UNL     1      11.642 -10.648  28.701  1.00  0.00     0.092 N 
HETATM   28  C19 UNL     1      12.011 -11.905  29.394  1.00  0.00     0.298 C 
HETATM   29  C20 UNL     1      11.971 -11.793  30.932  1.00  0.00     0.198 C 
HETATM   30  O3  UNL     1      12.854 -10.790  31.453  1.00  0.00    -0.388 OA
HETATM   31  C21 UNL     1      13.078  -9.712  30.527  1.00  0.00     0.198 C 
HETATM   32  C22 UNL     1      11.881  -9.483  29.585  1.00  0.00     0.298 C 
ENDBRANCH  26  27
ENDBRANCH  25  26
ENDBRANCH  24  25
ENDBRANCH  23  24
ENDBRANCH  12  23
BRANCH   1  33
HETATM   33  O1  UNL     1       4.623  -8.568  27.352  1.00  0.00    -0.353 OA
HETATM   34  C1  UNL     1       3.213  -8.752  27.440  1.00  0.00     0.210 C 
ENDBRANCH   1  33
TORSDOF 8
ENDMDL
MODEL 3
REMARK minimizedAffinity -7.9918685
REMARK  8 active torsions:
REMARK  status: ('A' for Active; 'I' for Inactive)
REMARK    1  A    between atoms: O1_2  and  C2_3 
REMARK    2  A    between atoms: C6_11  and  N3_12 
REMARK    3  A    between atoms: N3_12  and  C7_13 
REMARK    4  A    between atoms: C15_23  and  O2_24 
REMARK    5  A    between atoms: O2_24  and  C16_25 
REMARK    6  A    between atoms: C16_25  and  C17_26 
REMARK    7  A    between atoms: C17_26  and  C18_27 
REMARK    8  A    between atoms: C18_27  and  N4_28 
ROOT
HETATM    1  C2  UNL     1       7.600  -7.290  27.416  1.00  0.00     0.103 A 
HETATM    2  C3  UNL     1       6.554  -6.363  27.480  1.00  0.00     0.070 A 
HETATM    3  C4  UNL     1       6.319  -5.583  28.609  1.00  0.00     0.050 A 
HETATM    4  N1  UNL     1       5.303  -4.717  28.579  1.00  0.00    -0.351 N 
ATOM      5  H1  UNL     1       4.705  -4.623  27.758  1.00  0.00     0.166 HD
HETATM    6  C5  UNL     1       5.109  -3.978  29.676  1.00  0.00     0.182 A 
HETATM    7  N2  UNL     1       5.824  -4.036  30.803  1.00  0.00    -0.338 N 
ATOM      8  H2  UNL     1       5.611  -3.438  31.602  1.00  0.00     0.168 HD
HETATM    9  C6  UNL     1       6.837  -4.921  30.837  1.00  0.00     0.119 A 
HETATM   10  C13 UNL     1       7.149  -5.735  29.728  1.00  0.00     0.038 A 
HETATM   11  C14 UNL     1       8.219  -6.658  29.671  1.00  0.00     0.057 A 
HETATM   12  C15 UNL     1       8.453  -7.407  28.518  1.00  0.00     0.103 A 
ENDROOT
BRANCH   9  13
HETATM   13  N3  UNL     1       7.620  -5.032  32.015  1.00  0.00    -0.339 N 
HETATM   14  H6  UNL     1       7.026  -5.279  32.804  1.00  0.00     0.167 HD
BRANCH  13  15
HETATM   15  C7  UNL     1       8.694  -4.215  32.445  1.00  0.00     0.074 A 
HETATM   16  C8  UNL     1       8.981  -2.969  31.876  1.00  0.00     0.056 A 
HETATM   17  C9  UNL     1      10.096  -2.237  32.299  1.00  0.00     0.036 A 
HETATM   18 CL1  UNL     1      10.425  -0.697  31.600  1.00  0.00    -0.084 Cl
HETATM   19  C10 UNL     1      10.957  -2.741  33.276  1.00  0.00     0.027 A 
HETATM   20  C11 UNL     1      10.705  -3.994  33.830  1.00  0.00     0.046 A 
HETATM   21  C12 UNL     1       9.589  -4.716  33.407  1.00  0.00     0.143 A 
HETATM   22  F1  UNL     1       9.361  -5.925  33.944  1.00  0.00    -0.204 F 
ENDBRANCH  13  15
ENDBRANCH   9  13
BRANCH  12  23
HETATM   23  O2  UNL     1       9.508  -8.280  28.581  1.00  0.00    -0.348 OA
BRANCH  23  24
HETATM   24  C16 UNL     1       9.119  -9.590  29.024  1.00  0.00     0.177 C 
BRANCH  24  25
HETATM   25  C17 UNL     1      10.375 -10.456  29.030  1.00  0.00     0.057 C 
BRANCH  25  26
HETATM   26  C18 UNL     1      11.634  -9.620  29.294  1.00  0.00     0.274 C 
BRANCH  26  27
HETATM   27  N4  UNL     1      12.762 -10.450  29.749  1.00  0.00     0.092 N 
HETATM   28  C19 UNL     1      12.344 -11.765  30.294  1.00  0.00     0.298 C 
HETATM   29  C20 UNL     1      12.325 -11.812  31.835  1.00  0.00     0.198 C 
HETATM   30  O3  UNL     1      13.601 -11.534  32.429  1.00  0.00    -0.388 OA
HETATM   31  C21 UNL     1      14.416 -10.674  31.615  1.00  0.00     0.198 C 
HETATM   32  C22 UNL     1      13.581  -9.718  30.743  1.00  0.00     0.298 C 
ENDBRANCH  26  27
ENDBRANCH  25  26
ENDBRANCH  24  25
ENDBRANCH  23  24
ENDBRANCH  12  23
BRANCH   1  33
HETATM   33  O1  UNL     1       7.855  -8.092  26.338  1.00  0.00    -0.353 OA
HETATM   34  C1  UNL     1       8.782  -7.597  25.376  1.00  0.00     0.210 C 
ENDBRANCH   1  33
TORSDOF 8
ENDMDL
MODEL 4
REMARK minimizedAffinity -7.86582804
REMARK  8 active torsions:
REMARK  status: ('A' for Active; 'I' for Inactive)
REMARK    1  A    between atoms: O1_2  and  C2_3 
REMARK    2  A    between atoms: C6_11  and  N3_12 
REMARK    3  A    between atoms: N3_12  and  C7_13 
REMARK    4  A    between atoms: C15_23  and  O2_24 
REMARK    5  A    between atoms: O2_24  and  C16_25 
REMARK    6  A    between atoms: C16_25  and  C17_26 
REMARK    7  A    between atoms: C17_26  and  C18_27 
REMARK    8  A    between atoms: C18_27  and  N4_28 
ROOT
HETATM    1  C2  UNL     1       5.075  -7.737  28.227  1.00  0.00     0.103 A 
HETATM    2  C3  UNL     1       4.467  -6.527  28.577  1.00  0.00     0.070 A 
HETATM    3  C4  UNL     1       5.084  -5.597  29.410  1.00  0.00     0.050 A 
HETATM    4  N1  UNL     1       4.433  -4.464  29.683  1.00  0.00    -0.351 N 
ATOM      5  H1  UNL     1       3.506  -4.274  29.303  1.00  0.00     0.166 HD
HETATM    6  C5  UNL     1       5.056  -3.589  30.480  1.00  0.00     0.182 A 
HETATM    7  N2  UNL     1       6.258  -3.750  31.041  1.00  0.00    -0.338 N 
ATOM      8  H2  UNL     1       6.666  -3.034  31.642  1.00  0.00     0.168 HD
HETATM    9  C6  UNL     1       6.905  -4.899  30.776  1.00  0.00     0.119 A 
HETATM   10  C13 UNL     1       6.354  -5.882  29.929  1.00  0.00     0.038 A 
HETATM   11  C14 UNL     1       6.986  -7.096  29.570  1.00  0.00     0.057 A 
HETATM   12  C15 UNL     1       6.361  -7.999  28.711  1.00  0.00     0.103 A 
ENDROOT
BRANCH   9  13
HETATM   13  N3  UNL     1       8.179  -5.126  31.356  1.00  0.00    -0.339 N 
HETATM   14  H6  UNL     1       8.197  -6.037  31.810  1.00  0.00     0.167 HD
BRANCH  13  15
HETATM   15  C7  UNL     1       9.009  -4.214  32.053  1.00  0.00     0.074 A 
HETATM   16  C8  UNL     1       9.416  -2.987  31.516  1.00  0.00     0.056 A 
HETATM   17  C9  UNL     1      10.290  -2.157  32.228  1.00  0.00     0.036 A 
HETATM   18 CL1  UNL     1      10.767  -0.643  31.560  1.00  0.00    -0.084 Cl
HETATM   19  C10 UNL     1      10.793  -2.543  33.472  1.00  0.00     0.027 A 
HETATM   20  C11 UNL     1      10.424  -3.775  34.007  1.00  0.00     0.046 A 
HETATM   21  C12 UNL     1       9.548  -4.595  33.295  1.00  0.00     0.143 A 
HETATM   22  F1  UNL     1       9.206  -5.783  33.819  1.00  0.00    -0.204 F 
ENDBRANCH  13  15
ENDBRANCH   9  13
BRANCH  12  23
HETATM   23  O2  UNL     1       7.061  -9.148  28.445  1.00  0.00    -0.348 OA
BRANCH  23  24
HETATM   24  C16 UNL     1       8.226  -9.291  29.272  1.00  0.00     0.177 C 
BRANCH  24  25
HETATM   25  C17 UNL     1       9.404  -9.580  28.346  1.00  0.00     0.057 C 
BRANCH  25  26
HETATM   26  C18 UNL     1      10.217  -8.311  28.057  1.00  0.00     0.274 C 
BRANCH  26  27
HETATM   27  N4  UNL     1      10.229  -7.978  26.623  1.00  0.00     0.092 N 
HETATM   28  C19 UNL     1       9.322  -6.859  26.270  1.00  0.00     0.298 C 
HETATM   29  C20 UNL     1       7.988  -7.322  25.650  1.00  0.00     0.198 C 
HETATM   30  O3  UNL     1       8.154  -8.082  24.445  1.00  0.00    -0.388 OA
HETATM   31  C21 UNL     1       9.403  -8.793  24.404  1.00  0.00     0.198 C 
HETATM   32  C22 UNL     1       9.913  -9.173  25.807  1.00  0.00     0.298 C 
ENDBRANCH  26  27
ENDBRANCH  25  26
ENDBRANCH  24  25
ENDBRANCH  23  24
ENDBRANCH  12  23
BRANCH   1  33
HETATM   33  O1  UNL     1       4.499  -8.688  27.430  1.00  0.00    -0.353 OA
HETATM   34  C1  UNL     1       3.123  -8.506  27.107  1.00  0.00     0.210 C 
ENDBRANCH   1  33
TORSDOF 8
ENDMDL
MODEL 5
REMARK minimizedAffinity -7.85246325
REMARK  8 active torsions:
REMARK  status: ('A' for Active; 'I' for Inactive)
REMARK    1  A    between atoms: O1_2  and  C2_3 
REMARK    2  A    between atoms: C6_11  and  N3_12 
REMARK    3  A    between atoms: N3_12  and  C7_13 
REMARK    4  A    between atoms: C15_23  and  O2_24 
REMARK    5  A    between atoms: O2_24  and  C16_25 
REMARK    6  A    between atoms: C16_25  and  C17_26 
REMARK    7  A    between atoms: C17_26  and  C18_27 
REMARK    8  A    between atoms: C18_27  and  N4_28 
ROOT
HETATM    1  C2  UNL     1       4.789  -6.172  29.158  1.00  0.00     0.103 A 
HETATM    2  C3  UNL     1       4.518  -4.870  29.591  1.00  0.00     0.070 A 
HETATM    3  C4  UNL     1       5.417  -4.140  30.364  1.00  0.00     0.050 A 
HETATM    4  N1  UNL     1       5.079  -2.900  30.726  1.00  0.00    -0.351 N 
ATOM      5  H1  UNL     1       4.186  -2.488  30.454  1.00  0.00     0.166 HD
HETATM    6  C5  UNL     1       5.967  -2.224  31.462  1.00  0.00     0.182 A 
HETATM    7  N2  UNL     1       7.152  -2.678  31.882  1.00  0.00    -0.338 N 
ATOM      8  H2  UNL     1       7.776  -2.099  32.445  1.00  0.00     0.168 HD
HETATM    9  C6  UNL     1       7.483  -3.933  31.529  1.00  0.00     0.119 A 
HETATM   10  C13 UNL     1       6.634  -4.729  30.734  1.00  0.00     0.038 A 
HETATM   11  C14 UNL     1       6.927  -6.040  30.289  1.00  0.00     0.057 A 
HETATM   12  C15 UNL     1       6.023  -6.740  29.491  1.00  0.00     0.103 A 
ENDROOT
BRANCH   9  13
HETATM   13  N3  UNL     1       8.724  -4.468  31.961  1.00  0.00    -0.339 N 
HETATM   14  H6  UNL     1       8.600  -5.431  32.266  1.00  0.00     0.167 HD
BRANCH  13  15
HETATM   15  C7  UNL     1       9.743  -3.840  32.718  1.00  0.00     0.074 A 
HETATM   16  C8  UNL     1      10.622  -2.893  32.181  1.00  0.00     0.056 A 
HETATM   17  C9  UNL     1      11.651  -2.356  32.964  1.00  0.00     0.036 A 
HETATM   18 CL1  UNL     1      12.712  -1.178  32.291  1.00  0.00    -0.084 Cl
HETATM   19  C10 UNL     1      11.838  -2.769  34.284  1.00  0.00     0.027 A 
HETATM   20  C11 UNL     1      10.992  -3.735  34.826  1.00  0.00     0.046 A 
HETATM   21  C12 UNL     1       9.966  -4.262  34.042  1.00  0.00     0.143 A 
HETATM   22  F1  UNL     1       9.163  -5.197  34.573  1.00  0.00    -0.204 F 
ENDBRANCH  13  15
ENDBRANCH   9  13
BRANCH  12  23
HETATM   23  O2  UNL     1       6.405  -8.007  29.131  1.00  0.00    -0.348 OA
BRANCH  23  24
HETATM   24  C16 UNL     1       6.574  -8.154  27.712  1.00  0.00     0.177 C 
BRANCH  24  25
HETATM   25  C17 UNL     1       5.990  -9.510  27.327  1.00  0.00     0.057 C 
BRANCH  25  26
HETATM   26  C18 UNL     1       5.844  -9.649  25.807  1.00  0.00     0.274 C 
BRANCH  26  27
HETATM   27  N4  UNL     1       4.558 -10.259  25.429  1.00  0.00     0.092 N 
HETATM   28  C19 UNL     1       3.690  -9.357  24.634  1.00  0.00     0.298 C 
HETATM   29  C20 UNL     1       2.572  -8.692  25.464  1.00  0.00     0.198 C 
HETATM   30  O3  UNL     1       1.687  -9.634  26.085  1.00  0.00    -0.388 OA
HETATM   31  C21 UNL     1       2.326 -10.890  26.372  1.00  0.00     0.198 C 
HETATM   32  C22 UNL     1       3.837 -10.741  26.631  1.00  0.00     0.298 C 
ENDBRANCH  26  27
ENDBRANCH  25  26
ENDBRANCH  24  25
ENDBRANCH  23  24
ENDBRANCH  12  23
BRANCH   1  33
HETATM   33  O1  UNL     1       3.927  -6.933  28.416  1.00  0.00    -0.353 OA
HETATM   34  C1  UNL     1       2.544  -6.604  28.503  1.00  0.00     0.210 C 
ENDBRANCH   1  33
TORSDOF 8
ENDMDL
MODEL 6
REMARK minimizedAffinity -7.80011988
REMARK  8 active torsions:
REMARK  status: ('A' for Active; 'I' for Inactive)
REMARK    1  A    between atoms: O1_2  and  C2_3 
REMARK    2  A    between atoms: C6_11  and  N3_12 
REMARK    3  A    between atoms: N3_12  and  C7_13 
REMARK    4  A    between atoms: C15_23  and  O2_24 
REMARK    5  A    between atoms: O2_24  and  C16_25 
REMARK    6  A    between atoms: C16_25  and  C17_26 
REMARK    7  A    between atoms: C17_26  and  C18_27 
REMARK    8  A    between atoms: C18_27  and  N4_28 
ROOT
HETATM    1  C2  UNL     1       5.868  -6.518  28.322  1.00  0.00     0.103 A 
HETATM    2  C3  UNL     1       5.281  -5.373  28.871  1.00  0.00     0.070 A 
HETATM    3  C4  UNL     1       5.901  -4.621  29.864  1.00  0.00     0.050 A 
HETATM    4  N1  UNL     1       5.271  -3.537  30.324  1.00  0.00    -0.351 N 
ATOM      5  H1  UNL     1       4.356  -3.260  29.968  1.00  0.00     0.166 HD
HETATM    6  C5  UNL     1       5.897  -2.833  31.272  1.00  0.00     0.182 A 
HETATM    7  N2  UNL     1       7.084  -3.121  31.815  1.00  0.00    -0.338 N 
ATOM      8  H2  UNL     1       7.496  -2.533  32.539  1.00  0.00     0.168 HD
HETATM    9  C6  UNL     1       7.710  -4.222  31.361  1.00  0.00     0.119 A 
HETATM   10  C13 UNL     1       7.154  -5.026  30.345  1.00  0.00     0.038 A 
HETATM   11  C14 UNL     1       7.766  -6.173  29.788  1.00  0.00     0.057 A 
HETATM   12  C15 UNL     1       7.138  -6.894  28.772  1.00  0.00     0.103 A 
ENDROOT
BRANCH   9  13
HETATM   13  N3  UNL     1       8.967  -4.580  31.913  1.00  0.00    -0.339 N 
HETATM   14  H6  UNL     1       8.842  -5.296  32.625  1.00  0.00     0.167 HD
BRANCH  13  15
HETATM   15  C7  UNL     1      10.058  -3.740  32.246  1.00  0.00     0.074 A 
HETATM   16  C8  UNL     1      10.563  -3.623  33.545  1.00  0.00     0.056 A 
HETATM   17  C9  UNL     1      11.601  -2.727  33.824  1.00  0.00     0.036 A 
HETATM   18 CL1  UNL     1      12.223  -2.608  35.426  1.00  0.00    -0.084 Cl
HETATM   19  C10 UNL     1      12.137  -1.915  32.822  1.00  0.00     0.027 A 
HETATM   20  C11 UNL     1      11.625  -1.995  31.529  1.00  0.00     0.046 A 
HETATM   21  C12 UNL     1      10.594  -2.894  31.258  1.00  0.00     0.143 A 
HETATM   22  F1  UNL     1      10.103  -2.956  30.009  1.00  0.00    -0.204 F 
ENDBRANCH  13  15
ENDBRANCH   9  13
BRANCH  12  23
HETATM   23  O2  UNL     1       7.817  -7.996  28.319  1.00  0.00    -0.348 OA
BRANCH  23  24
HETATM   24  C16 UNL     1       9.102  -8.151  28.943  1.00  0.00     0.177 C 
BRANCH  24  25
HETATM   25  C17 UNL     1       9.331  -9.647  29.135  1.00  0.00     0.057 C 
BRANCH  25  26
HETATM   26  C18 UNL     1      10.809  -9.961  29.402  1.00  0.00     0.274 C 
BRANCH  26  27
HETATM   27  N4  UNL     1      11.094 -11.402  29.302  1.00  0.00     0.092 N 
HETATM   28  C19 UNL     1      12.142 -11.862  30.244  1.00  0.00     0.298 C 
HETATM   29  C20 UNL     1      13.525 -12.042  29.584  1.00  0.00     0.198 C 
HETATM   30  O3  UNL     1      13.524 -12.993  28.511  1.00  0.00    -0.388 OA
HETATM   31  C21 UNL     1      12.249 -13.085  27.852  1.00  0.00     0.198 C 
HETATM   32  C22 UNL     1      11.455 -11.767  27.912  1.00  0.00     0.298 C 
ENDBRANCH  26  27
ENDBRANCH  25  26
ENDBRANCH  24  25
ENDBRANCH  23  24
ENDBRANCH  12  23
BRANCH   1  33
HETATM   33  O1  UNL     1       5.287  -7.299  27.361  1.00  0.00    -0.353 OA
HETATM   34  C1  UNL     1       4.165  -8.080  27.762  1.00  0.00     0.210 C 
ENDBRANCH   1  33
TORSDOF 8
ENDMDL
MODEL 7
REMARK minimizedAffinity -7.70089626
REMARK  8 active torsions:
REMARK  status: ('A' for Active; 'I' for Inactive)
REMARK    1  A    between atoms: O1_2  and  C2_3 
REMARK    2  A    between atoms: C6_11  and  N3_12 
REMARK    3  A    between atoms: N3_12  and  C7_13 
REMARK    4  A    between atoms: C15_23  and  O2_24 
REMARK    5  A    between atoms: O2_24  and  C16_25 
REMARK    6  A    between atoms: C16_25  and  C17_26 
REMARK    7  A    between atoms: C17_26  and  C18_27 
REMARK    8  A    between atoms: C18_27  and  N4_28 
ROOT
HETATM    1  C2  UNL     1       5.093  -4.198  30.619  1.00  0.00     0.103 A 
HETATM    2  C3  UNL     1       3.921  -4.716  30.057  1.00  0.00     0.070 A 
HETATM    3  C4  UNL     1       3.929  -5.811  29.198  1.00  0.00     0.050 A 
HETATM    4  N1  UNL     1       2.761  -6.244  28.715  1.00  0.00    -0.351 N 
ATOM      5  H1  UNL     1       1.881  -5.788  28.957  1.00  0.00     0.166 HD
HETATM    6  C5  UNL     1       2.802  -7.302  27.899  1.00  0.00     0.182 A 
HETATM    7  N2  UNL     1       3.900  -7.956  27.510  1.00  0.00    -0.338 N 
ATOM      8  H2  UNL     1       3.849  -8.757  26.880  1.00  0.00     0.168 HD
HETATM    9  C6  UNL     1       5.076  -7.509  27.986  1.00  0.00     0.119 A 
HETATM   10  C13 UNL     1       5.150  -6.416  28.872  1.00  0.00     0.038 A 
HETATM   11  C14 UNL     1       6.341  -5.912  29.447  1.00  0.00     0.057 A 
HETATM   12  C15 UNL     1       6.306  -4.831  30.327  1.00  0.00     0.103 A 
ENDROOT
BRANCH   9  13
HETATM   13  N3  UNL     1       6.274  -8.160  27.593  1.00  0.00    -0.339 N 
HETATM   14  H6  UNL     1       6.142  -9.170  27.610  1.00  0.00     0.167 HD
BRANCH  13  15
HETATM   15  C7  UNL     1       7.610  -7.833  27.930  1.00  0.00     0.074 A 
HETATM   16  C8  UNL     1       8.358  -6.869  27.244  1.00  0.00     0.056 A 
HETATM   17  C9  UNL     1       9.696  -6.637  27.583  1.00  0.00     0.036 A 
HETATM   18 CL1  UNL     1      10.595  -5.434  26.740  1.00  0.00    -0.084 Cl
HETATM   19  C10 UNL     1      10.320  -7.376  28.590  1.00  0.00     0.027 A 
HETATM   20  C11 UNL     1       9.601  -8.362  29.261  1.00  0.00     0.046 A 
HETATM   21  C12 UNL     1       8.266  -8.584  28.922  1.00  0.00     0.143 A 
HETATM   22  F1  UNL     1       7.586  -9.543  29.572  1.00  0.00    -0.204 F 
ENDBRANCH  13  15
ENDBRANCH   9  13
BRANCH  12  23
HETATM   23  O2  UNL     1       7.521  -4.419  30.810  1.00  0.00    -0.348 OA
BRANCH  23  24
HETATM   24  C16 UNL     1       8.033  -5.285  31.837  1.00  0.00     0.177 C 
BRANCH  24  25
HETATM   25  C17 UNL     1       9.533  -5.430  31.598  1.00  0.00     0.057 C 
BRANCH  25  26
HETATM   26  C18 UNL     1      10.073  -4.304  30.707  1.00  0.00     0.274 C 
BRANCH  26  27
HETATM   27  N4  UNL     1      11.297  -3.701  31.261  1.00  0.00     0.092 N 
HETATM   28  C19 UNL     1      11.696  -4.275  32.568  1.00  0.00     0.298 C 
HETATM   29  C20 UNL     1      11.305  -3.393  33.772  1.00  0.00     0.198 C 
HETATM   30  O3  UNL     1      11.887  -2.083  33.729  1.00  0.00    -0.388 OA
HETATM   31  C21 UNL     1      12.136  -1.629  32.388  1.00  0.00     0.198 C 
HETATM   32  C22 UNL     1      11.153  -2.230  31.367  1.00  0.00     0.298 C 
ENDBRANCH  26  27
ENDBRANCH  25  26
ENDBRANCH  24  25
ENDBRANCH  23  24
ENDBRANCH  12  23
BRANCH   1  33
HETATM   33  O1  UNL     1       5.137  -3.112  31.449  1.00  0.00    -0.353 OA
HETATM   34  C1  UNL     1       5.999  -2.045  31.064  1.00  0.00     0.210 C 
ENDBRANCH   1  33
TORSDOF 8
ENDMDL
MODEL 8
REMARK minimizedAffinity -7.61387253
REMARK  8 active torsions:
REMARK  status: ('A' for Active; 'I' for Inactive)
REMARK    1  A    between atoms: O1_2  and  C2_3 
REMARK    2  A    between atoms: C6_11  and  N3_12 
REMARK    3  A    between atoms: N3_12  and  C7_13 
REMARK    4  A    between atoms: C15_23  and  O2_24 
REMARK    5  A    between atoms: O2_24  and  C16_25 
REMARK    6  A    between atoms: C16_25  and  C17_26 
REMARK    7  A    between atoms: C17_26  and  C18_27 
REMARK    8  A    between atoms: C18_27  and  N4_28 
ROOT
HETATM    1  C2  UNL     1       4.512  -7.716  27.989  1.00  0.00     0.103 A 
HETATM    2  C3  UNL     1       4.044  -6.492  28.478  1.00  0.00     0.070 A 
HETATM    3  C4  UNL     1       4.830  -5.655  29.264  1.00  0.00     0.050 A 
HETATM    4  N1  UNL     1       4.304  -4.500  29.680  1.00  0.00    -0.351 N 
ATOM      5  H1  UNL     1       3.351  -4.229  29.439  1.00  0.00     0.166 HD
HETATM    6  C5  UNL     1       5.089  -3.716  30.427  1.00  0.00     0.182 A 
HETATM    7  N2  UNL     1       6.339  -3.986  30.810  1.00  0.00    -0.338 N 
ATOM      8  H2  UNL     1       6.874  -3.334  31.385  1.00  0.00     0.168 HD
HETATM    9  C6  UNL     1       6.862  -5.157  30.403  1.00  0.00     0.119 A 
HETATM   10  C13 UNL     1       6.134  -6.051  29.591  1.00  0.00     0.038 A 
HETATM   11  C14 UNL     1       6.625  -7.280  29.090  1.00  0.00     0.057 A 
HETATM   12  C15 UNL     1       5.829  -8.088  28.280  1.00  0.00     0.103 A 
ENDROOT
BRANCH   9  13
HETATM   13  N3  UNL     1       8.182  -5.499  30.793  1.00  0.00    -0.339 N 
HETATM   14  H6  UNL     1       8.311  -6.507  30.736  1.00  0.00     0.167 HD
BRANCH  13  15
HETATM   15  C7  UNL     1       8.960  -4.962  31.848  1.00  0.00     0.074 A 
HETATM   16  C8  UNL     1       8.537  -4.954  33.182  1.00  0.00     0.056 A 
HETATM   17  C9  UNL     1       9.322  -4.350  34.171  1.00  0.00     0.036 A 
HETATM   18 CL1  UNL     1       8.794  -4.366  35.810  1.00  0.00    -0.084 Cl
HETATM   19  C10 UNL     1      10.527  -3.723  33.847  1.00  0.00     0.027 A 
HETATM   20  C11 UNL     1      10.948  -3.693  32.520  1.00  0.00     0.046 A 
HETATM   21  C12 UNL     1      10.163  -4.301  31.540  1.00  0.00     0.143 A 
HETATM   22  F1  UNL     1      10.576  -4.259  30.263  1.00  0.00    -0.204 F 
ENDBRANCH  13  15
ENDBRANCH   9  13
BRANCH  12  23
HETATM   23  O2  UNL     1       6.403  -9.262  27.865  1.00  0.00    -0.348 OA
BRANCH  23  24
HETATM   24  C16 UNL     1       7.838  -9.231  27.929  1.00  0.00     0.177 C 
BRANCH  24  25
HETATM   25  C17 UNL     1       8.359  -9.585  26.540  1.00  0.00     0.057 C 
BRANCH  25  26
HETATM   26  C18 UNL     1       9.872  -9.355  26.431  1.00  0.00     0.274 C 
BRANCH  26  27
HETATM   27  N4  UNL     1      10.200  -7.934  26.222  1.00  0.00     0.092 N 
HETATM   28  C19 UNL     1      10.787  -7.656  24.889  1.00  0.00     0.298 C 
HETATM   29  C20 UNL     1      12.322  -7.501  24.914  1.00  0.00     0.198 C 
HETATM   30  O3  UNL     1      12.773  -6.439  25.766  1.00  0.00    -0.388 OA
HETATM   31  C21 UNL     1      11.875  -6.185  26.860  1.00  0.00     0.198 C 
HETATM   32  C22 UNL     1      11.099  -7.443  27.293  1.00  0.00     0.298 C 
ENDBRANCH  26  27
ENDBRANCH  25  26
ENDBRANCH  24  25
ENDBRANCH  23  24
ENDBRANCH  12  23
BRANCH   1  33
HETATM   33  O1  UNL     1       3.768  -8.580  27.232  1.00  0.00    -0.353 OA
HETATM   34  C1  UNL     1       2.456  -8.154  26.878  1.00  0.00     0.210 C 
ENDBRANCH   1  33
TORSDOF 8
ENDMDL
MODEL 9
REMARK minimizedAffinity -7.60126877
REMARK  8 active torsions:
REMARK  status: ('A' for Active; 'I' for Inactive)
REMARK    1  A    between atoms: O1_2  and  C2_3 
REMARK    2  A    between atoms: C6_11  and  N3_12 
REMARK    3  A    between atoms: N3_12  and  C7_13 
REMARK    4  A    between atoms: C15_23  and  O2_24 
REMARK    5  A    between atoms: O2_24  and  C16_25 
REMARK    6  A    between atoms: C16_25  and  C17_26 
REMARK    7  A    between atoms: C17_26  and  C18_27 
REMARK    8  A    between atoms: C18_27  and  N4_28 
ROOT
HETATM    1  C2  UNL     1      10.380  -3.798  32.308  1.00  0.00     0.103 A 
HETATM    2  C3  UNL     1       9.266  -2.952  32.286  1.00  0.00     0.070 A 
HETATM    3  C4  UNL     1       8.048  -3.340  31.734  1.00  0.00     0.050 A 
HETATM    4  N1  UNL     1       7.035  -2.470  31.765  1.00  0.00    -0.351 N 
ATOM      5  H1  UNL     1       7.139  -1.541  32.175  1.00  0.00     0.166 HD
HETATM    6  C5  UNL     1       5.877  -2.875  31.234  1.00  0.00     0.182 A 
HETATM    7  N2  UNL     1       5.643  -4.059  30.661  1.00  0.00    -0.338 N 
ATOM      8  H2  UNL     1       4.729  -4.295  30.275  1.00  0.00     0.168 HD
HETATM    9  C6  UNL     1       6.670  -4.928  30.617  1.00  0.00     0.119 A 
HETATM   10  C13 UNL     1       7.929  -4.616  31.169  1.00  0.00     0.038 A 
HETATM   11  C14 UNL     1       9.044  -5.487  31.198  1.00  0.00     0.057 A 
HETATM   12  C15 UNL     1      10.245  -5.088  31.783  1.00  0.00     0.103 A 
ENDROOT
BRANCH   9  13
HETATM   13  N3  UNL     1       6.479  -6.195  30.008  1.00  0.00    -0.339 N 
HETATM   14  H6  UNL     1       6.733  -6.935  30.660  1.00  0.00     0.167 HD
BRANCH  13  15
HETATM   15  C7  UNL     1       6.767  -6.590  28.679  1.00  0.00     0.074 A 
HETATM   16  C8  UNL     1       7.943  -6.229  28.012  1.00  0.00     0.056 A 
HETATM   17  C9  UNL     1       8.141  -6.595  26.676  1.00  0.00     0.036 A 
HETATM   18 CL1  UNL     1       9.603  -6.158  25.876  1.00  0.00    -0.084 Cl
HETATM   19  C10 UNL     1       7.164  -7.303  25.973  1.00  0.00     0.027 A 
HETATM   20  C11 UNL     1       5.973  -7.643  26.611  1.00  0.00     0.046 A 
HETATM   21  C12 UNL     1       5.785  -7.279  27.945  1.00  0.00     0.143 A 
HETATM   22  F1  UNL     1       4.629  -7.606  28.546  1.00  0.00    -0.204 F 
ENDBRANCH  13  15
ENDBRANCH   9  13
BRANCH  12  23
HETATM   23  O2  UNL     1      11.261  -6.008  31.740  1.00  0.00    -0.348 OA
BRANCH  23  24
HETATM   24  C16 UNL     1      11.320  -6.712  30.490  1.00  0.00     0.177 C 
BRANCH  24  25
HETATM   25  C17 UNL     1      12.613  -7.521  30.488  1.00  0.00     0.057 C 
BRANCH  25  26
HETATM   26  C18 UNL     1      12.639  -8.540  29.341  1.00  0.00     0.274 C 
BRANCH  26  27
HETATM   27  N4  UNL     1      13.327  -9.784  29.725  1.00  0.00     0.092 N 
HETATM   28  C19 UNL     1      12.798 -10.986  29.035  1.00  0.00     0.298 C 
HETATM   29  C20 UNL     1      11.840 -11.823  29.906  1.00  0.00     0.198 C 
HETATM   30  O3  UNL     1      12.445 -12.305  31.115  1.00  0.00    -0.388 OA
HETATM   31  C21 UNL     1      13.496 -11.446  31.590  1.00  0.00     0.198 C 
HETATM   32  C22 UNL     1      13.282  -9.974  31.194  1.00  0.00     0.298 C 
ENDBRANCH  26  27
ENDBRANCH  25  26
ENDBRANCH  24  25
ENDBRANCH  23  24
ENDBRANCH  12  23
BRANCH   1  33
HETATM   33  O1  UNL     1      11.601  -3.453  32.819  1.00  0.00    -0.353 OA
HETATM   34  C1  UNL     1      11.614  -2.910  34.136  1.00  0.00     0.210 C 
ENDBRANCH   1  33
TORSDOF 8
ENDMDL
