MODEL 1
REMARK minimizedAffinity -7.12006998
REMARK CNNscore 0.758071482
REMARK CNNaffinity 5.84128189
REMARK  3 active torsions:
REMARK  status: ('A' for Active; 'I' for Inactive)
REMARK    1  A    between atoms: C4_5  and  C5_6 
REMARK    2  A    between atoms: N2_9  and  C6_10 
REMARK    3  A    between atoms: C12_16  and  C13_17 
ROOT
HETATM    1  C5  UNL     1      17.355  52.367   5.524  1.00  0.00     0.038 C 
HETATM    2  N1  UNL     1      16.967  51.133   5.627  1.00  0.00    -0.301 N 
ATOM      3  H1  UNL     1      16.031  50.775   5.434  1.00  0.00     0.187 HD
HETATM    4  N2  UNL     1      18.044  50.403   6.044  1.00  0.00    -0.283 N 
HETATM    5  C12 UNL     1      19.230  51.224   6.313  1.00  0.00     0.148 C 
HETATM    6  C23 UNL     1      18.811  52.606   5.808  1.00  0.00     0.091 C 
ENDROOT
BRANCH   5   7
HETATM    7  C13 UNL     1      19.627  51.291   7.789  1.00  0.00    -0.022 A 
HETATM    8  C14 UNL     1      20.026  50.116   8.459  1.00  0.00     0.010 A 
HETATM    9  C15 UNL     1      20.381  50.137   9.802  1.00  0.00     0.002 A 
HETATM   10  C16 UNL     1      20.331  51.331  10.511  1.00  0.00     0.012 A 
HETATM   11  C17 UNL     1      19.921  52.519   9.891  1.00  0.00    -0.025 A 
HETATM   12  C18 UNL     1      19.870  53.707  10.638  1.00  0.00     0.012 A 
HETATM   13  C22 UNL     1      19.556  52.518   8.518  1.00  0.00    -0.018 A 
HETATM   14  C19 UNL     1      19.458  54.904  10.058  1.00  0.00     0.001 A 
HETATM   15  C20 UNL     1      19.090  54.927   8.721  1.00  0.00     0.001 A 
HETATM   16  C21 UNL     1      19.136  53.752   7.963  1.00  0.00     0.013 A 
ENDBRANCH   5   7
BRANCH   4  17
HETATM   17  C6  UNL     1      18.030  49.008   5.968  1.00  0.00     0.051 A 
HETATM   18  C7  UNL     1      19.199  48.294   5.654  1.00  0.00     0.031 A 
HETATM   19  C8  UNL     1      19.212  46.897   5.567  1.00  0.00     0.002 A 
HETATM   20  C9  UNL     1      18.045  46.176   5.789  1.00  0.00     0.000 A 
HETATM   21  C10 UNL     1      16.870  46.854   6.094  1.00  0.00     0.002 A 
HETATM   22  C11 UNL     1      16.865  48.252   6.180  1.00  0.00     0.031 A 
ENDBRANCH   4  17
BRANCH   1  23
HETATM   23  C4  UNL     1      16.447  53.467   5.121  1.00  0.00    -0.012 A 
HETATM   24  C3  UNL     1      15.061  53.378   5.298  1.00  0.00     0.015 A 
HETATM   25  C2  UNL     1      14.235  54.437   4.905  1.00  0.00     0.024 A 
HETATM   26  C1  UNL     1      14.792  55.582   4.338  1.00  0.00     0.034 A 
HETATM   27 CL1  UNL     1      13.771  56.880   3.857  1.00  0.00    -0.084 Cl
HETATM   28  C25 UNL     1      16.169  55.680   4.159  1.00  0.00     0.024 A 
HETATM   29  C24 UNL     1      16.996  54.624   4.550  1.00  0.00     0.015 A 
ENDBRANCH   1  23
TORSDOF 3
ENDMDL
MODEL 2
REMARK minimizedAffinity -7.01878214
REMARK CNNscore 0.750918627
REMARK CNNaffinity 6.06308699
REMARK  3 active torsions:
REMARK  status: ('A' for Active; 'I' for Inactive)
REMARK    1  A    between atoms: C4_5  and  C5_6 
REMARK    2  A    between atoms: N2_9  and  C6_10 
REMARK    3  A    between atoms: C12_16  and  C13_17 
ROOT
HETATM    1  C5  UNL     1      17.084  52.567   5.144  1.00  0.00     0.038 C 
HETATM    2  N1  UNL     1      16.652  51.343   5.134  1.00  0.00    -0.301 N 
ATOM      3  H1  UNL     1      15.700  51.039   4.931  1.00  0.00     0.187 HD
HETATM    4  N2  UNL     1      17.710  50.538   5.447  1.00  0.00    -0.283 N 
HETATM    5  C12 UNL     1      18.932  51.285   5.765  1.00  0.00     0.148 C 
HETATM    6  C23 UNL     1      18.555  52.725   5.410  1.00  0.00     0.091 C 
ENDROOT
BRANCH   5   7
HETATM    7  C13 UNL     1      19.366  51.190   7.228  1.00  0.00    -0.022 A 
HETATM    8  C14 UNL     1      19.019  52.219   8.128  1.00  0.00     0.010 A 
HETATM    9  C15 UNL     1      19.407  52.172   9.461  1.00  0.00     0.002 A 
HETATM   10  C16 UNL     1      20.165  51.103   9.923  1.00  0.00     0.012 A 
HETATM   11  C17 UNL     1      20.550  50.068   9.060  1.00  0.00    -0.025 A 
HETATM   12  C18 UNL     1      21.326  49.007   9.554  1.00  0.00     0.012 A 
HETATM   13  C22 UNL     1      20.162  50.097   7.694  1.00  0.00    -0.018 A 
HETATM   14  C19 UNL     1      21.736  47.967   8.724  1.00  0.00     0.001 A 
HETATM   15  C20 UNL     1      21.374  47.977   7.385  1.00  0.00     0.001 A 
HETATM   16  C21 UNL     1      20.601  49.026   6.878  1.00  0.00     0.013 A 
ENDBRANCH   5   7
BRANCH   4  17
HETATM   17  C6  UNL     1      17.642  49.159   5.233  1.00  0.00     0.051 A 
HETATM   18  C7  UNL     1      17.048  48.313   6.185  1.00  0.00     0.031 A 
HETATM   19  C8  UNL     1      16.970  46.927   5.998  1.00  0.00     0.002 A 
HETATM   20  C9  UNL     1      17.495  46.351   4.847  1.00  0.00     0.000 A 
HETATM   21  C10 UNL     1      18.096  47.160   3.890  1.00  0.00     0.002 A 
HETATM   22  C11 UNL     1      18.169  48.546   4.084  1.00  0.00     0.031 A 
ENDBRANCH   4  17
BRANCH   1  23
HETATM   23  C4  UNL     1      16.209  53.733   4.876  1.00  0.00    -0.012 A 
HETATM   24  C3  UNL     1      14.838  53.703   5.157  1.00  0.00     0.015 A 
HETATM   25  C2  UNL     1      14.043  54.823   4.891  1.00  0.00     0.024 A 
HETATM   26  C1  UNL     1      14.616  55.971   4.346  1.00  0.00     0.034 A 
HETATM   27 CL1  UNL     1      13.634  57.344   4.022  1.00  0.00    -0.084 Cl
HETATM   28  C25 UNL     1      15.980  56.011   4.064  1.00  0.00     0.024 A 
HETATM   29  C24 UNL     1      16.775  54.893   4.329  1.00  0.00     0.015 A 
ENDBRANCH   1  23
TORSDOF 3
ENDMDL
MODEL 3
REMARK minimizedAffinity -7.38924694
REMARK CNNscore 0.652507007
REMARK CNNaffinity 5.636621
REMARK  3 active torsions:
REMARK  status: ('A' for Active; 'I' for Inactive)
REMARK    1  A    between atoms: C4_5  and  C5_6 
REMARK    2  A    between atoms: N2_9  and  C6_10 
REMARK    3  A    between atoms: C12_16  and  C13_17 
ROOT
HETATM    1  C5  UNL     1      12.619  60.939   5.360  1.00  0.00     0.038 C 
HETATM    2  N1  UNL     1      12.157  61.510   4.291  1.00  0.00    -0.301 N 
ATOM      3  H1  UNL     1      11.332  62.108   4.233  1.00  0.00     0.187 HD
HETATM    4  N2  UNL     1      12.978  61.160   3.257  1.00  0.00    -0.283 N 
HETATM    5  C12 UNL     1      14.033  60.219   3.649  1.00  0.00     0.148 C 
HETATM    6  C23 UNL     1      13.892  60.163   5.172  1.00  0.00     0.091 C 
ENDROOT
BRANCH   5   7
HETATM    7  C13 UNL     1      13.888  58.822   3.046  1.00  0.00    -0.022 A 
HETATM    8  C14 UNL     1      13.429  58.677   1.720  1.00  0.00     0.010 A 
HETATM    9  C15 UNL     1      13.272  57.423   1.144  1.00  0.00     0.002 A 
HETATM   10  C16 UNL     1      13.556  56.282   1.885  1.00  0.00     0.012 A 
HETATM   11  C17 UNL     1      13.994  56.377   3.212  1.00  0.00    -0.025 A 
HETATM   12  C18 UNL     1      14.261  55.205   3.938  1.00  0.00     0.012 A 
HETATM   13  C22 UNL     1      14.162  57.651   3.818  1.00  0.00    -0.018 A 
HETATM   14  C19 UNL     1      14.688  55.261   5.263  1.00  0.00     0.001 A 
HETATM   15  C20 UNL     1      14.853  56.492   5.878  1.00  0.00     0.001 A 
HETATM   16  C21 UNL     1      14.593  57.669   5.168  1.00  0.00     0.013 A 
ENDBRANCH   5   7
BRANCH   4  17
HETATM   17  C6  UNL     1      12.919  61.843   2.040  1.00  0.00     0.051 A 
HETATM   18  C7  UNL     1      12.162  61.339   0.968  1.00  0.00     0.031 A 
HETATM   19  C8  UNL     1      12.090  62.000  -0.263  1.00  0.00     0.002 A 
HETATM   20  C9  UNL     1      12.784  63.189  -0.455  1.00  0.00     0.000 A 
HETATM   21  C10 UNL     1      13.548  63.710   0.583  1.00  0.00     0.002 A 
HETATM   22  C11 UNL     1      13.615  63.042   1.813  1.00  0.00     0.031 A 
ENDBRANCH   4  17
BRANCH   1  23
HETATM   23  C4  UNL     1      11.970  61.065   6.687  1.00  0.00    -0.012 A 
HETATM   24  C3  UNL     1      11.033  60.128   7.138  1.00  0.00     0.015 A 
HETATM   25  C2  UNL     1      10.440  60.279   8.396  1.00  0.00     0.024 A 
HETATM   26  C1  UNL     1      10.785  61.363   9.203  1.00  0.00     0.034 A 
HETATM   27 CL1  UNL     1      10.054  61.543  10.749  1.00  0.00    -0.084 Cl
HETATM   28  C25 UNL     1      11.717  62.299   8.764  1.00  0.00     0.024 A 
HETATM   29  C24 UNL     1      12.310  62.150   7.507  1.00  0.00     0.015 A 
ENDBRANCH   1  23
TORSDOF 3
ENDMDL
MODEL 4
REMARK minimizedAffinity -6.31223917
REMARK CNNscore 0.572885215
REMARK CNNaffinity 5.39700508
REMARK  3 active torsions:
REMARK  status: ('A' for Active; 'I' for Inactive)
REMARK    1  A    between atoms: C4_5  and  C5_6 
REMARK    2  A    between atoms: N2_9  and  C6_10 
REMARK    3  A    between atoms: C12_16  and  C13_17 
ROOT
HETATM    1  C5  UNL     1      11.375  54.980  -4.611  1.00  0.00     0.038 C 
HETATM    2  N1  UNL     1      10.988  54.020  -3.828  1.00  0.00    -0.301 N 
ATOM      3  H1  UNL     1      10.094  53.960  -3.341  1.00  0.00     0.187 HD
HETATM    4  N2  UNL     1      12.001  53.105  -3.778  1.00  0.00    -0.283 N 
HETATM    5  C12 UNL     1      13.193  53.519  -4.527  1.00  0.00     0.148 C 
HETATM    6  C23 UNL     1      12.719  54.780  -5.253  1.00  0.00     0.091 C 
ENDROOT
BRANCH   5   7
HETATM    7  C13 UNL     1      14.410  53.828  -3.654  1.00  0.00    -0.022 A 
HETATM    8  C14 UNL     1      15.674  53.314  -4.011  1.00  0.00     0.010 A 
HETATM    9  C15 UNL     1      16.798  53.564  -3.234  1.00  0.00     0.002 A 
HETATM   10  C16 UNL     1      16.683  54.320  -2.074  1.00  0.00     0.012 A 
HETATM   11  C17 UNL     1      15.443  54.833  -1.670  1.00  0.00    -0.025 A 
HETATM   12  C18 UNL     1      15.357  55.584  -0.487  1.00  0.00     0.012 A 
HETATM   13  C22 UNL     1      14.282  54.591  -2.452  1.00  0.00    -0.018 A 
HETATM   14  C19 UNL     1      14.140  56.101  -0.049  1.00  0.00     0.001 A 
HETATM   15  C20 UNL     1      12.992  55.871  -0.791  1.00  0.00     0.001 A 
HETATM   16  C21 UNL     1      13.061  55.127  -1.973  1.00  0.00     0.013 A 
ENDBRANCH   5   7
BRANCH   4  17
HETATM   17  C6  UNL     1      11.780  51.827  -3.259  1.00  0.00     0.051 A 
HETATM   18  C7  UNL     1      12.539  51.349  -2.177  1.00  0.00     0.031 A 
HETATM   19  C8  UNL     1      12.340  50.072  -1.640  1.00  0.00     0.002 A 
HETATM   20  C9  UNL     1      11.374  49.233  -2.182  1.00  0.00     0.000 A 
HETATM   21  C10 UNL     1      10.612  49.673  -3.258  1.00  0.00     0.002 A 
HETATM   22  C11 UNL     1      10.815  50.954  -3.789  1.00  0.00     0.031 A 
ENDBRANCH   4  17
BRANCH   1  23
HETATM   23  C4  UNL     1      10.547  56.178  -4.890  1.00  0.00    -0.012 A 
HETATM   24  C3  UNL     1       9.986  56.939  -3.858  1.00  0.00     0.015 A 
HETATM   25  C2  UNL     1       9.209  58.063  -4.160  1.00  0.00     0.024 A 
HETATM   26  C1  UNL     1       8.994  58.426  -5.488  1.00  0.00     0.034 A 
HETATM   27 CL1  UNL     1       8.039  59.808  -5.852  1.00  0.00    -0.084 Cl
HETATM   28  C25 UNL     1       9.549  57.674  -6.522  1.00  0.00     0.024 A 
HETATM   29  C24 UNL     1      10.325  56.551  -6.223  1.00  0.00     0.015 A 
ENDBRANCH   1  23
TORSDOF 3
ENDMDL
MODEL 5
REMARK minimizedAffinity -6.77588797
REMARK CNNscore 0.51684618
REMARK CNNaffinity 5.3257618
REMARK  3 active torsions:
REMARK  status: ('A' for Active; 'I' for Inactive)
REMARK    1  A    between atoms: C4_5  and  C5_6 
REMARK    2  A    between atoms: N2_9  and  C6_10 
REMARK    3  A    between atoms: C12_16  and  C13_17 
ROOT
HETATM    1  C5  UNL     1      17.162  49.285   4.938  1.00  0.00     0.038 C 
HETATM    2  N1  UNL     1      16.758  50.405   4.422  1.00  0.00    -0.301 N 
ATOM      3  H1  UNL     1      16.275  50.522   3.531  1.00  0.00     0.187 HD
HETATM    4  N2  UNL     1      17.099  51.400   5.294  1.00  0.00    -0.283 N 
HETATM    5  C12 UNL     1      17.859  50.918   6.453  1.00  0.00     0.148 C 
HETATM    6  C23 UNL     1      17.788  49.397   6.300  1.00  0.00     0.091 C 
ENDROOT
BRANCH   5   7
HETATM    7  C13 UNL     1      19.315  51.385   6.490  1.00  0.00    -0.022 A 
HETATM    8  C14 UNL     1      20.118  51.261   5.337  1.00  0.00     0.010 A 
HETATM    9  C15 UNL     1      21.448  51.662   5.338  1.00  0.00     0.002 A 
HETATM   10  C16 UNL     1      22.011  52.182   6.497  1.00  0.00     0.012 A 
HETATM   11  C17 UNL     1      21.257  52.304   7.671  1.00  0.00    -0.025 A 
HETATM   12  C18 UNL     1      21.859  52.823   8.830  1.00  0.00     0.012 A 
HETATM   13  C22 UNL     1      19.895  51.901   7.690  1.00  0.00    -0.018 A 
HETATM   14  C19 UNL     1      21.144  52.949  10.018  1.00  0.00     0.001 A 
HETATM   15  C20 UNL     1      19.815  52.555  10.061  1.00  0.00     0.001 A 
HETATM   16  C21 UNL     1      19.200  52.038   8.917  1.00  0.00     0.013 A 
ENDBRANCH   5   7
BRANCH   4  17
HETATM   17  C6  UNL     1      16.548  52.677   5.167  1.00  0.00     0.051 A 
HETATM   18  C7  UNL     1      17.359  53.783   4.859  1.00  0.00     0.031 A 
HETATM   19  C8  UNL     1      16.833  55.074   4.730  1.00  0.00     0.002 A 
HETATM   20  C9  UNL     1      15.473  55.291   4.915  1.00  0.00     0.000 A 
HETATM   21  C10 UNL     1      14.645  54.220   5.228  1.00  0.00     0.002 A 
HETATM   22  C11 UNL     1      15.179  52.931   5.354  1.00  0.00     0.031 A 
ENDBRANCH   4  17
BRANCH   1  23
HETATM   23  C4  UNL     1      16.992  47.977   4.261  1.00  0.00    -0.012 A 
HETATM   24  C3  UNL     1      15.726  47.430   4.028  1.00  0.00     0.015 A 
HETATM   25  C2  UNL     1      15.604  46.193   3.387  1.00  0.00     0.024 A 
HETATM   26  C1  UNL     1      16.745  45.505   2.977  1.00  0.00     0.034 A 
HETATM   27 CL1  UNL     1      16.589  43.985   2.189  1.00  0.00    -0.084 Cl
HETATM   28  C25 UNL     1      18.010  46.042   3.203  1.00  0.00     0.024 A 
HETATM   29  C24 UNL     1      18.134  47.277   3.844  1.00  0.00     0.015 A 
ENDBRANCH   1  23
TORSDOF 3
ENDMDL
MODEL 6
REMARK minimizedAffinity -7.70610285
REMARK CNNscore 0.504171193
REMARK CNNaffinity 5.24718332
REMARK  3 active torsions:
REMARK  status: ('A' for Active; 'I' for Inactive)
REMARK    1  A    between atoms: C4_5  and  C5_6 
REMARK    2  A    between atoms: N2_9  and  C6_10 
REMARK    3  A    between atoms: C12_16  and  C13_17 
ROOT
HETATM    1  C5  UNL     1      13.531  58.685   5.556  1.00  0.00     0.038 C 
HETATM    2  N1  UNL     1      12.934  58.429   4.433  1.00  0.00    -0.301 N 
ATOM      3  H1  UNL     1      11.977  58.681   4.185  1.00  0.00     0.187 HD
HETATM    4  N2  UNL     1      13.825  57.759   3.643  1.00  0.00    -0.283 N 
HETATM    5  C12 UNL     1      15.097  57.477   4.317  1.00  0.00     0.148 C 
HETATM    6  C23 UNL     1      14.970  58.256   5.627  1.00  0.00     0.091 C 
ENDROOT
BRANCH   5   7
HETATM    7  C13 UNL     1      15.346  55.994   4.597  1.00  0.00    -0.022 A 
HETATM    8  C14 UNL     1      14.277  55.172   5.009  1.00  0.00     0.010 A 
HETATM    9  C15 UNL     1      14.469  53.824   5.285  1.00  0.00     0.002 A 
HETATM   10  C16 UNL     1      15.738  53.270   5.171  1.00  0.00     0.012 A 
HETATM   11  C17 UNL     1      16.833  54.054   4.786  1.00  0.00    -0.025 A 
HETATM   12  C18 UNL     1      18.106  53.466   4.692  1.00  0.00     0.012 A 
HETATM   13  C22 UNL     1      16.657  55.433   4.498  1.00  0.00    -0.018 A 
HETATM   14  C19 UNL     1      19.219  54.216   4.322  1.00  0.00     0.001 A 
HETATM   15  C20 UNL     1      19.072  55.566   4.042  1.00  0.00     0.001 A 
HETATM   16  C21 UNL     1      17.812  56.166   4.130  1.00  0.00     0.013 A 
ENDBRANCH   5   7
BRANCH   4  17
HETATM   17  C6  UNL     1      13.586  57.603   2.276  1.00  0.00     0.051 A 
HETATM   18  C7  UNL     1      13.241  58.705   1.475  1.00  0.00     0.031 A 
HETATM   19  C8  UNL     1      12.992  58.575   0.103  1.00  0.00     0.002 A 
HETATM   20  C9  UNL     1      13.078  57.328  -0.503  1.00  0.00     0.000 A 
HETATM   21  C10 UNL     1      13.410  56.217   0.263  1.00  0.00     0.002 A 
HETATM   22  C11 UNL     1      13.659  56.355   1.634  1.00  0.00     0.031 A 
ENDBRANCH   4  17
BRANCH   1  23
HETATM   23  C4  UNL     1      12.866  59.381   6.683  1.00  0.00    -0.012 A 
HETATM   24  C3  UNL     1      13.098  59.013   8.013  1.00  0.00     0.015 A 
HETATM   25  C2  UNL     1      12.453  59.693   9.051  1.00  0.00     0.024 A 
HETATM   26  C1  UNL     1      11.579  60.740   8.762  1.00  0.00     0.034 A 
HETATM   27 CL1  UNL     1      10.790  61.572  10.042  1.00  0.00    -0.084 Cl
HETATM   28  C25 UNL     1      11.343  61.115   7.441  1.00  0.00     0.024 A 
HETATM   29  C24 UNL     1      11.986  60.436   6.403  1.00  0.00     0.015 A 
ENDBRANCH   1  23
TORSDOF 3
ENDMDL
MODEL 7
REMARK minimizedAffinity -7.44388676
REMARK CNNscore 0.488139749
REMARK CNNaffinity 4.99526072
REMARK  3 active torsions:
REMARK  status: ('A' for Active; 'I' for Inactive)
REMARK    1  A    between atoms: C4_5  and  C5_6 
REMARK    2  A    between atoms: N2_9  and  C6_10 
REMARK    3  A    between atoms: C12_16  and  C13_17 
ROOT
HETATM    1  C5  UNL     1      13.656  58.943   5.052  1.00  0.00     0.038 C 
HETATM    2  N1  UNL     1      13.060  58.369   4.052  1.00  0.00    -0.301 N 
ATOM      3  H1  UNL     1      12.067  58.141   3.990  1.00  0.00     0.187 HD
HETATM    4  N2  UNL     1      14.008  58.125   3.100  1.00  0.00    -0.283 N 
HETATM    5  C12 UNL     1      15.363  58.498   3.524  1.00  0.00     0.148 C 
HETATM    6  C23 UNL     1      15.119  59.221   4.850  1.00  0.00     0.091 C 
ENDROOT
BRANCH   5   7
HETATM    7  C13 UNL     1      16.308  57.313   3.726  1.00  0.00    -0.022 A 
HETATM    8  C14 UNL     1      17.664  57.430   3.357  1.00  0.00     0.010 A 
HETATM    9  C15 UNL     1      18.548  56.369   3.513  1.00  0.00     0.002 A 
HETATM   10  C16 UNL     1      18.094  55.162   4.029  1.00  0.00     0.012 A 
HETATM   11  C17 UNL     1      16.751  54.994   4.390  1.00  0.00    -0.025 A 
HETATM   12  C18 UNL     1      16.320  53.757   4.897  1.00  0.00     0.012 A 
HETATM   13  C22 UNL     1      15.832  56.066   4.238  1.00  0.00    -0.018 A 
HETATM   14  C19 UNL     1      14.990  53.550   5.256  1.00  0.00     0.001 A 
HETATM   15  C20 UNL     1      14.074  54.580   5.111  1.00  0.00     0.001 A 
HETATM   16  C21 UNL     1      14.487  55.818   4.609  1.00  0.00     0.013 A 
ENDBRANCH   5   7
BRANCH   4  17
HETATM   17  C6  UNL     1      13.637  57.785   1.797  1.00  0.00     0.051 A 
HETATM   18  C7  UNL     1      13.670  56.448   1.366  1.00  0.00     0.031 A 
HETATM   19  C8  UNL     1      13.307  56.081   0.064  1.00  0.00     0.002 A 
HETATM   20  C9  UNL     1      12.906  57.052  -0.845  1.00  0.00     0.000 A 
HETATM   21  C10 UNL     1      12.870  58.384  -0.452  1.00  0.00     0.002 A 
HETATM   22  C11 UNL     1      13.233  58.744   0.853  1.00  0.00     0.031 A 
ENDBRANCH   4  17
BRANCH   1  23
HETATM   23  C4  UNL     1      12.950  59.336   6.295  1.00  0.00    -0.012 A 
HETATM   24  C3  UNL     1      13.311  58.811   7.541  1.00  0.00     0.015 A 
HETATM   25  C2  UNL     1      12.622  59.205   8.693  1.00  0.00     0.024 A 
HETATM   26  C1  UNL     1      11.576  60.122   8.601  1.00  0.00     0.034 A 
HETATM   27 CL1  UNL     1      10.733  60.602  10.020  1.00  0.00    -0.084 Cl
HETATM   28  C25 UNL     1      11.210  60.650   7.365  1.00  0.00     0.024 A 
HETATM   29  C24 UNL     1      11.896  60.258   6.213  1.00  0.00     0.015 A 
ENDBRANCH   1  23
TORSDOF 3
ENDMDL
MODEL 8
REMARK minimizedAffinity -7.10672426
REMARK CNNscore 0.436524034
REMARK CNNaffinity 4.8596797
REMARK  3 active torsions:
REMARK  status: ('A' for Active; 'I' for Inactive)
REMARK    1  A    between atoms: C4_5  and  C5_6 
REMARK    2  A    between atoms: N2_9  and  C6_10 
REMARK    3  A    between atoms: C12_16  and  C13_17 
ROOT
HETATM    1  C5  UNL     1       4.944  65.262  -5.093  1.00  0.00     0.038 C 
HETATM    2  N1  UNL     1       4.739  65.266  -6.374  1.00  0.00    -0.301 N 
ATOM      3  H1  UNL     1       3.857  65.469  -6.845  1.00  0.00     0.187 HD
HETATM    4  N2  UNL     1       5.923  64.947  -6.975  1.00  0.00    -0.283 N 
HETATM    5  C12 UNL     1       6.991  64.630  -6.019  1.00  0.00     0.148 C 
HETATM    6  C23 UNL     1       6.362  64.993  -4.672  1.00  0.00     0.091 C 
ENDROOT
BRANCH   5   7
HETATM    7  C13 UNL     1       7.430  63.166  -6.028  1.00  0.00    -0.022 A 
HETATM    8  C14 UNL     1       6.695  62.211  -5.295  1.00  0.00     0.010 A 
HETATM    9  C15 UNL     1       7.074  60.875  -5.269  1.00  0.00     0.002 A 
HETATM   10  C16 UNL     1       8.204  60.463  -5.963  1.00  0.00     0.012 A 
HETATM   11  C17 UNL     1       8.976  61.381  -6.689  1.00  0.00    -0.025 A 
HETATM   12  C18 UNL     1      10.121  60.935  -7.371  1.00  0.00     0.012 A 
HETATM   13  C22 UNL     1       8.605  62.751  -6.728  1.00  0.00    -0.018 A 
HETATM   14  C19 UNL     1      10.918  61.820  -8.093  1.00  0.00     0.001 A 
HETATM   15  C20 UNL     1      10.579  63.164  -8.140  1.00  0.00     0.001 A 
HETATM   16  C21 UNL     1       9.442  63.623  -7.468  1.00  0.00     0.013 A 
ENDBRANCH   5   7
BRANCH   4  17
HETATM   17  C6  UNL     1       6.104  65.153  -8.344  1.00  0.00     0.051 A 
HETATM   18  C7  UNL     1       5.200  64.619  -9.278  1.00  0.00     0.031 A 
HETATM   19  C8  UNL     1       5.360  64.807 -10.656  1.00  0.00     0.002 A 
HETATM   20  C9  UNL     1       6.442  65.536 -11.136  1.00  0.00     0.000 A 
HETATM   21  C10 UNL     1       7.358  66.072 -10.239  1.00  0.00     0.002 A 
HETATM   22  C11 UNL     1       7.190  65.880  -8.861  1.00  0.00     0.031 A 
ENDBRANCH   4  17
BRANCH   1  23
HETATM   23  C4  UNL     1       3.875  65.537  -4.103  1.00  0.00    -0.012 A 
HETATM   24  C3  UNL     1       3.675  64.713  -2.990  1.00  0.00     0.015 A 
HETATM   25  C2  UNL     1       2.655  65.004  -2.077  1.00  0.00     0.024 A 
HETATM   26  C1  UNL     1       1.838  66.116  -2.275  1.00  0.00     0.034 A 
HETATM   27 CL1  UNL     1       0.587  66.469  -1.150  1.00  0.00    -0.084 Cl
HETATM   28  C25 UNL     1       2.030  66.943  -3.380  1.00  0.00     0.024 A 
HETATM   29  C24 UNL     1       3.048  66.654  -4.293  1.00  0.00     0.015 A 
ENDBRANCH   1  23
TORSDOF 3
ENDMDL
MODEL 9
REMARK minimizedAffinity -6.22190714
REMARK CNNscore 0.423708647
REMARK CNNaffinity 5.13962793
REMARK  3 active torsions:
REMARK  status: ('A' for Active; 'I' for Inactive)
REMARK    1  A    between atoms: C4_5  and  C5_6 
REMARK    2  A    between atoms: N2_9  and  C6_10 
REMARK    3  A    between atoms: C12_16  and  C13_17 
ROOT
HETATM    1  C5  UNL     1      12.024  52.638  -4.154  1.00  0.00     0.038 C 
HETATM    2  N1  UNL     1      11.411  53.626  -3.578  1.00  0.00    -0.301 N 
ATOM      3  H1  UNL     1      11.274  53.750  -2.574  1.00  0.00     0.187 HD
HETATM    4  N2  UNL     1      10.983  54.468  -4.564  1.00  0.00    -0.283 N 
HETATM    5  C12 UNL     1      11.266  53.970  -5.914  1.00  0.00     0.148 C 
HETATM    6  C23 UNL     1      12.140  52.742  -5.649  1.00  0.00     0.091 C 
ENDROOT
BRANCH   5   7
HETATM    7  C13 UNL     1      10.023  53.579  -6.715  1.00  0.00    -0.022 A 
HETATM    8  C14 UNL     1       9.658  54.333  -7.851  1.00  0.00     0.010 A 
HETATM    9  C15 UNL     1       8.528  54.015  -8.594  1.00  0.00     0.002 A 
HETATM   10  C16 UNL     1       7.728  52.946  -8.211  1.00  0.00     0.012 A 
HETATM   11  C17 UNL     1       8.040  52.183  -7.078  1.00  0.00    -0.025 A 
HETATM   12  C18 UNL     1       7.204  51.115  -6.711  1.00  0.00     0.012 A 
HETATM   13  C22 UNL     1       9.192  52.490  -6.306  1.00  0.00    -0.018 A 
HETATM   14  C19 UNL     1       7.478  50.342  -5.586  1.00  0.00     0.001 A 
HETATM   15  C20 UNL     1       8.593  50.628  -4.813  1.00  0.00     0.001 A 
HETATM   16  C21 UNL     1       9.436  51.686  -5.166  1.00  0.00     0.013 A 
ENDBRANCH   5   7
BRANCH   4  17
HETATM   17  C6  UNL     1      10.550  55.760  -4.257  1.00  0.00     0.051 A 
HETATM   18  C7  UNL     1       9.893  56.546  -5.220  1.00  0.00     0.031 A 
HETATM   19  C8  UNL     1       9.452  57.845  -4.941  1.00  0.00     0.002 A 
HETATM   20  C9  UNL     1       9.665  58.395  -3.682  1.00  0.00     0.000 A 
HETATM   21  C10 UNL     1      10.318  57.646  -2.710  1.00  0.00     0.002 A 
HETATM   22  C11 UNL     1      10.755  56.347  -2.997  1.00  0.00     0.031 A 
ENDBRANCH   4  17
BRANCH   1  23
HETATM   23  C4  UNL     1      12.607  51.501  -3.403  1.00  0.00    -0.012 A 
HETATM   24  C3  UNL     1      13.824  50.920  -3.777  1.00  0.00     0.015 A 
HETATM   25  C2  UNL     1      14.344  49.848  -3.044  1.00  0.00     0.024 A 
HETATM   26  C1  UNL     1      13.649  49.357  -1.939  1.00  0.00     0.034 A 
HETATM   27 CL1  UNL     1      14.293  48.039  -1.042  1.00  0.00    -0.084 Cl
HETATM   28  C25 UNL     1      12.438  49.929  -1.558  1.00  0.00     0.024 A 
HETATM   29  C24 UNL     1      11.917  51.000  -2.289  1.00  0.00     0.015 A 
ENDBRANCH   1  23
TORSDOF 3
ENDMDL
