MODEL 1
REMARK minimizedAffinity -8.56243992
REMARK CNNscore 0.492553771
REMARK CNNaffinity 7.70315933
REMARK  11 active torsions:
REMARK  status: ('A' for Active; 'I' for Inactive)
REMARK    1  A    between atoms: C2_2  and  N1_3 
REMARK    2  A    between atoms: N1_3  and  C3_4 
REMARK    3  A    between atoms: N1_3  and  C5_6 
REMARK    4  A    between atoms: C5_6  and  C6_7 
REMARK    5  A    between atoms: C6_7  and  O1_8 
REMARK    6  A    between atoms: C6_7  and  C7_9 
REMARK    7  A    between atoms: C7_9  and  N2_10 
REMARK       I    between atoms: N2_10  and  C8_11 
REMARK    8  A    between atoms: C8_11  and  C9_13 
REMARK    9  A    between atoms: C13_17  and  C14_18 
REMARK   10  A    between atoms: C19_29  and  N6_30 
REMARK   11  A    between atoms: N6_30  and  C20_31 
ROOT
HETATM    1  C14 UNL     1      -3.646   5.490  12.963  1.00  0.00     0.048 C 
HETATM    2  C15 UNL     1      -3.741   4.343  12.270  1.00  0.00     0.052 A 
HETATM    3  C16 UNL     1      -2.750   3.697  11.334  1.00  0.00     0.258 A 
HETATM    4  O3  UNL     1      -1.602   4.025  11.111  1.00  0.00    -0.267 OA
HETATM    5  N3  UNL     1      -3.417   2.633  10.771  1.00  0.00    -0.308 N 
HETATM    6  C17 UNL     1      -4.696   2.503  11.284  1.00  0.00     0.124 A 
HETATM    7  N4  UNL     1      -5.526   1.532  10.914  1.00  0.00    -0.338 N 
ATOM      8  H4  UNL     1      -5.293   0.830  10.211  1.00  0.00     0.168 HD
HETATM    9  C18 UNL     1      -6.695   1.570  11.559  1.00  0.00     0.183 A 
HETATM   10  N5  UNL     1      -7.046   2.452  12.517  1.00  0.00    -0.338 N 
ATOM     11  H5  UNL     1      -7.962   2.400  12.964  1.00  0.00     0.168 HD
HETATM   12  C19 UNL     1      -6.157   3.406  12.871  1.00  0.00     0.121 A 
HETATM   13  C26 UNL     1      -4.943   3.485  12.227  1.00  0.00     0.068 A 
HETATM   14  H23 UNL     1      -3.019   2.001  10.095  1.00  0.00     0.170 HD
ENDROOT
BRANCH   1  15
HETATM   15  C13 UNL     1      -2.565   6.411  13.071  1.00  0.00     0.039 A 
HETATM   16  C11 UNL     1      -2.566   7.801  13.040  1.00  0.00    -0.033 A 
HETATM   17  C10 UNL     1      -1.219   8.229  13.217  1.00  0.00     0.044 A 
HETATM   18  C12 UNL     1      -3.739   8.700  12.857  1.00  0.00     0.050 C 
HETATM   19  C9  UNL     1      -0.420   7.108  13.353  1.00  0.00     0.101 A 
HETATM   20  N7  UNL     1      -1.263   6.020  13.267  1.00  0.00    -0.351 N 
HETATM   21  H29 UNL     1      -0.925   5.062  13.319  1.00  0.00     0.166 HD
BRANCH  19  22
HETATM   22  C8  UNL     1       1.002   6.955  13.560  1.00  0.00     0.268 C 
HETATM   23  N2  UNL     1       1.537   7.726  14.562  1.00  0.00    -0.353 N 
HETATM   24  H17 UNL     1       0.983   8.490  14.922  1.00  0.00     0.162 HD
HETATM   25  O2  UNL     1       1.706   6.224  12.868  1.00  0.00    -0.266 OA
BRANCH  23  26
HETATM   26  C7  UNL     1       2.964   7.770  14.842  1.00  0.00     0.156 C 
BRANCH  26  27
HETATM   27  C6  UNL     1       3.796   8.590  13.834  1.00  0.00     0.164 C 
BRANCH  27  28
HETATM   28  C5  UNL     1       5.326   8.468  14.025  1.00  0.00     0.305 C 
BRANCH  28  29
HETATM   29  N1  UNL     1       5.960   7.353  13.281  1.00  0.00     0.090 N 
BRANCH  29  30
HETATM   30  C2  UNL     1       7.400   7.645  13.125  1.00  0.00     0.268 C 
HETATM   31  C1  UNL     1       8.159   7.769  14.442  1.00  0.00     0.037 C 
ENDBRANCH  29  30
BRANCH  29  32
HETATM   32  C3  UNL     1       5.293   7.143  11.982  1.00  0.00     0.268 C 
HETATM   33  C4  UNL     1       6.213   7.549  10.835  1.00  0.00     0.037 C 
ENDBRANCH  29  32
ENDBRANCH  28  29
ENDBRANCH  27  28
BRANCH  27  34
HETATM   34  O1  UNL     1       3.432   9.978  13.875  1.00  0.00    -0.392 OA
HETATM   35  H14 UNL     1       3.197  10.198  14.804  1.00  0.00     0.210 HD
ENDBRANCH  27  34
ENDBRANCH  26  27
ENDBRANCH  23  26
ENDBRANCH  19  22
ENDBRANCH   1  15
BRANCH  12  36
HETATM   36  N6  UNL     1      -6.464   4.293  13.930  1.00  0.00    -0.342 N 
HETATM   37  H25 UNL     1      -6.351   3.800  14.811  1.00  0.00     0.167 HD
BRANCH  36  38
HETATM   38  C20 UNL     1      -7.513   5.239  14.001  1.00  0.00     0.035 A 
HETATM   39  C21 UNL     1      -8.393   5.359  12.912  1.00  0.00     0.032 A 
HETATM   40  C22 UNL     1      -9.473   6.245  12.953  1.00  0.00     0.046 A 
HETATM   41  C23 UNL     1      -9.698   7.000  14.098  1.00  0.00     0.138 A 
HETATM   42  F1  UNL     1     -10.737   7.846  14.117  1.00  0.00    -0.204 F 
HETATM   43  C24 UNL     1      -8.865   6.866  15.203  1.00  0.00     0.074 A 
HETATM   44 CL1  UNL     1      -9.157   7.775  16.636  1.00  0.00    -0.081 Cl
HETATM   45  C25 UNL     1      -7.785   5.979  15.160  1.00  0.00     0.056 A 
ENDBRANCH  36  38
ENDBRANCH  12  36
TORSDOF 11
ENDMDL
MODEL 2
REMARK minimizedAffinity -9.13449383
REMARK CNNscore 0.365390658
REMARK CNNaffinity 7.60201883
REMARK  11 active torsions:
REMARK  status: ('A' for Active; 'I' for Inactive)
REMARK    1  A    between atoms: C2_2  and  N1_3 
REMARK    2  A    between atoms: N1_3  and  C3_4 
REMARK    3  A    between atoms: N1_3  and  C5_6 
REMARK    4  A    between atoms: C5_6  and  C6_7 
REMARK    5  A    between atoms: C6_7  and  O1_8 
REMARK    6  A    between atoms: C6_7  and  C7_9 
REMARK    7  A    between atoms: C7_9  and  N2_10 
REMARK       I    between atoms: N2_10  and  C8_11 
REMARK    8  A    between atoms: C8_11  and  C9_13 
REMARK    9  A    between atoms: C13_17  and  C14_18 
REMARK   10  A    between atoms: C19_29  and  N6_30 
REMARK   11  A    between atoms: N6_30  and  C20_31 
ROOT
HETATM    1  C14 UNL     1      -3.244   5.117  13.022  1.00  0.00     0.048 C 
HETATM    2  C15 UNL     1      -3.815   3.985  12.575  1.00  0.00     0.052 A 
HETATM    3  C16 UNL     1      -3.214   2.848  11.787  1.00  0.00     0.258 A 
HETATM    4  O3  UNL     1      -2.049   2.665  11.499  1.00  0.00    -0.267 OA
HETATM    5  N3  UNL     1      -4.273   2.035  11.452  1.00  0.00    -0.308 N 
HETATM    6  C17 UNL     1      -5.464   2.502  11.983  1.00  0.00     0.124 A 
HETATM    7  N4  UNL     1      -6.622   1.871  11.819  1.00  0.00    -0.338 N 
ATOM      8  H4  UNL     1      -6.725   1.016  11.272  1.00  0.00     0.168 HD
HETATM    9  C18 UNL     1      -7.638   2.472  12.446  1.00  0.00     0.183 A 
HETATM   10  N5  UNL     1      -7.556   3.582  13.207  1.00  0.00    -0.338 N 
ATOM     11  H5  UNL     1      -8.387   3.969  13.657  1.00  0.00     0.168 HD
HETATM   12  C19 UNL     1      -6.350   4.172  13.358  1.00  0.00     0.121 A 
HETATM   13  C26 UNL     1      -5.249   3.660  12.709  1.00  0.00     0.068 A 
HETATM   14  H23 UNL     1      -4.196   1.186  10.916  1.00  0.00     0.170 HD
ENDROOT
BRANCH   1  15
HETATM   15  C13 UNL     1      -1.892   5.557  12.939  1.00  0.00     0.039 A 
HETATM   16  C11 UNL     1      -1.250   6.609  13.585  1.00  0.00    -0.033 A 
HETATM   17  C10 UNL     1       0.111   6.595  13.165  1.00  0.00     0.044 A 
HETATM   18  C12 UNL     1      -1.849   7.582  14.539  1.00  0.00     0.050 C 
HETATM   19  C9  UNL     1       0.284   5.548  12.280  1.00  0.00     0.101 A 
HETATM   20  N7  UNL     1      -0.945   4.931  12.165  1.00  0.00    -0.351 N 
HETATM   21  H29 UNL     1      -1.100   4.133  11.554  1.00  0.00     0.166 HD
BRANCH  19  22
HETATM   22  C8  UNL     1       1.443   5.072  11.561  1.00  0.00     0.268 C 
HETATM   23  N2  UNL     1       2.470   5.975  11.438  1.00  0.00    -0.353 N 
HETATM   24  H17 UNL     1       2.277   6.946  11.639  1.00  0.00     0.162 HD
HETATM   25  O2  UNL     1       1.506   3.957  11.049  1.00  0.00    -0.266 OA
BRANCH  23  26
HETATM   26  C7  UNL     1       3.671   5.699  10.663  1.00  0.00     0.156 C 
BRANCH  26  27
HETATM   27  C6  UNL     1       3.439   5.539   9.146  1.00  0.00     0.164 C 
BRANCH  27  28
HETATM   28  C5  UNL     1       2.177   6.261   8.618  1.00  0.00     0.305 C 
BRANCH  28  29
HETATM   29  N1  UNL     1       2.242   7.742   8.663  1.00  0.00     0.090 N 
BRANCH  29  30
HETATM   30  C2  UNL     1       1.129   8.241   9.498  1.00  0.00     0.268 C 
HETATM   31  C1  UNL     1      -0.159   8.508   8.729  1.00  0.00     0.037 C 
ENDBRANCH  29  30
BRANCH  29  32
HETATM   32  C3  UNL     1       2.211   8.311   7.302  1.00  0.00     0.268 C 
HETATM   33  C4  UNL     1       1.831   7.242   6.283  1.00  0.00     0.037 C 
ENDBRANCH  29  32
ENDBRANCH  28  29
ENDBRANCH  27  28
BRANCH  27  34
HETATM   34  O1  UNL     1       3.368   4.153   8.780  1.00  0.00    -0.392 OA
HETATM   35  H14 UNL     1       2.944   3.669   9.524  1.00  0.00     0.210 HD
ENDBRANCH  27  34
ENDBRANCH  26  27
ENDBRANCH  23  26
ENDBRANCH  19  22
ENDBRANCH   1  15
BRANCH  12  36
HETATM   36  N6  UNL     1      -6.218   5.289  14.217  1.00  0.00    -0.342 N 
HETATM   37  H25 UNL     1      -5.723   4.999  15.056  1.00  0.00     0.167 HD
BRANCH  36  38
HETATM   38  C20 UNL     1      -7.178   6.287  14.507  1.00  0.00     0.035 A 
HETATM   39  C21 UNL     1      -6.736   7.540  14.964  1.00  0.00     0.032 A 
HETATM   40  C22 UNL     1      -7.641   8.574  15.219  1.00  0.00     0.046 A 
HETATM   41  C23 UNL     1      -8.997   8.372  14.989  1.00  0.00     0.138 A 
HETATM   42  F1  UNL     1      -9.849   9.374  15.242  1.00  0.00    -0.204 F 
HETATM   43  C24 UNL     1      -9.451   7.153  14.496  1.00  0.00     0.074 A 
HETATM   44 CL1  UNL     1     -11.126   6.906  14.181  1.00  0.00    -0.081 Cl
HETATM   45  C25 UNL     1      -8.545   6.120  14.243  1.00  0.00     0.056 A 
ENDBRANCH  36  38
ENDBRANCH  12  36
TORSDOF 11
ENDMDL
MODEL 3
REMARK minimizedAffinity -9.13130093
REMARK CNNscore 0.357970506
REMARK CNNaffinity 7.67579269
REMARK  11 active torsions:
REMARK  status: ('A' for Active; 'I' for Inactive)
REMARK    1  A    between atoms: C2_2  and  N1_3 
REMARK    2  A    between atoms: N1_3  and  C3_4 
REMARK    3  A    between atoms: N1_3  and  C5_6 
REMARK    4  A    between atoms: C5_6  and  C6_7 
REMARK    5  A    between atoms: C6_7  and  O1_8 
REMARK    6  A    between atoms: C6_7  and  C7_9 
REMARK    7  A    between atoms: C7_9  and  N2_10 
REMARK       I    between atoms: N2_10  and  C8_11 
REMARK    8  A    between atoms: C8_11  and  C9_13 
REMARK    9  A    between atoms: C13_17  and  C14_18 
REMARK   10  A    between atoms: C19_29  and  N6_30 
REMARK   11  A    between atoms: N6_30  and  C20_31 
ROOT
HETATM    1  C14 UNL     1      -3.687   5.282  12.706  1.00  0.00     0.048 C 
HETATM    2  C15 UNL     1      -4.182   4.114  12.260  1.00  0.00     0.052 A 
HETATM    3  C16 UNL     1      -3.589   3.122  11.292  1.00  0.00     0.258 A 
HETATM    4  O3  UNL     1      -2.475   3.118  10.807  1.00  0.00    -0.267 OA
HETATM    5  N3  UNL     1      -4.581   2.196  11.062  1.00  0.00    -0.308 N 
HETATM    6  C17 UNL     1      -5.712   2.461  11.815  1.00  0.00     0.124 A 
HETATM    7  N4  UNL     1      -6.795   1.691  11.785  1.00  0.00    -0.338 N 
ATOM      8  H4  UNL     1      -6.883   0.867  11.189  1.00  0.00     0.168 HD
HETATM    9  C18 UNL     1      -7.755   2.107  12.614  1.00  0.00     0.183 A 
HETATM   10  N5  UNL     1      -7.684   3.167  13.445  1.00  0.00    -0.338 N 
ATOM     11  H5  UNL     1      -8.466   3.408  14.054  1.00  0.00     0.168 HD
HETATM   12  C19 UNL     1      -6.551   3.904  13.452  1.00  0.00     0.121 A 
HETATM   13  C26 UNL     1      -5.521   3.590  12.593  1.00  0.00     0.068 A 
HETATM   14  H23 UNL     1      -4.491   1.401  10.449  1.00  0.00     0.170 HD
ENDROOT
BRANCH   1  15
HETATM   15  C13 UNL     1      -2.434   5.905  12.445  1.00  0.00     0.039 A 
HETATM   16  C11 UNL     1      -1.959   7.156  12.825  1.00  0.00    -0.033 A 
HETATM   17  C10 UNL     1      -0.631   7.275  12.325  1.00  0.00     0.044 A 
HETATM   18  C12 UNL     1      -2.682   8.196  13.608  1.00  0.00     0.050 C 
HETATM   19  C9  UNL     1      -0.312   6.109  11.654  1.00  0.00     0.101 A 
HETATM   20  N7  UNL     1      -1.421   5.293  11.747  1.00  0.00    -0.351 N 
HETATM   21  H29 UNL     1      -1.459   4.372  11.318  1.00  0.00     0.166 HD
BRANCH  19  22
HETATM   22  C8  UNL     1       0.886   5.687  10.966  1.00  0.00     0.268 C 
HETATM   23  N2  UNL     1       1.485   6.646  10.186  1.00  0.00    -0.353 N 
HETATM   24  H17 UNL     1       0.955   7.476   9.961  1.00  0.00     0.162 HD
HETATM   25  O2  UNL     1       1.328   4.543  11.026  1.00  0.00    -0.266 OA
BRANCH  23  26
HETATM   26  C7  UNL     1       2.642   6.368   9.348  1.00  0.00     0.156 C 
BRANCH  26  27
HETATM   27  C6  UNL     1       3.791   7.390   9.473  1.00  0.00     0.164 C 
BRANCH  27  28
HETATM   28  C5  UNL     1       3.989   7.950  10.902  1.00  0.00     0.305 C 
BRANCH  28  29
HETATM   29  N1  UNL     1       4.934   7.180  11.747  1.00  0.00     0.090 N 
BRANCH  29  30
HETATM   30  C2  UNL     1       5.030   7.834  13.068  1.00  0.00     0.268 C 
HETATM   31  C1  UNL     1       6.390   7.689  13.741  1.00  0.00     0.037 C 
ENDBRANCH  29  30
BRANCH  29  32
HETATM   32  C3  UNL     1       6.250   7.062  11.090  1.00  0.00     0.268 C 
HETATM   33  C4  UNL     1       6.652   5.598  10.955  1.00  0.00     0.037 C 
ENDBRANCH  29  32
ENDBRANCH  28  29
ENDBRANCH  27  28
BRANCH  27  34
HETATM   34  O1  UNL     1       3.604   8.487   8.567  1.00  0.00    -0.392 OA
HETATM   35  H14 UNL     1       2.638   8.651   8.491  1.00  0.00     0.210 HD
ENDBRANCH  27  34
ENDBRANCH  26  27
ENDBRANCH  23  26
ENDBRANCH  19  22
ENDBRANCH   1  15
BRANCH  12  36
HETATM   36  N6  UNL     1      -6.414   4.971  14.371  1.00  0.00    -0.342 N 
HETATM   37  H25 UNL     1      -5.762   4.693  15.100  1.00  0.00     0.167 HD
BRANCH  36  38
HETATM   38  C20 UNL     1      -7.424   5.820  14.882  1.00  0.00     0.035 A 
HETATM   39  C21 UNL     1      -7.301   6.304  16.196  1.00  0.00     0.032 A 
HETATM   40  C22 UNL     1      -8.247   7.182  16.731  1.00  0.00     0.046 A 
HETATM   41  C23 UNL     1      -9.311   7.608  15.944  1.00  0.00     0.138 A 
HETATM   42  F1  UNL     1     -10.209   8.448  16.476  1.00  0.00    -0.204 F 
HETATM   43  C24 UNL     1      -9.428   7.175  14.627  1.00  0.00     0.074 A 
HETATM   44 CL1  UNL     1     -10.726   7.722  13.637  1.00  0.00    -0.081 Cl
HETATM   45  C25 UNL     1      -8.481   6.296  14.095  1.00  0.00     0.056 A 
ENDBRANCH  36  38
ENDBRANCH  12  36
TORSDOF 11
ENDMDL
MODEL 4
REMARK minimizedAffinity -9.65620041
REMARK CNNscore 0.348754823
REMARK CNNaffinity 7.49702454
REMARK  11 active torsions:
REMARK  status: ('A' for Active; 'I' for Inactive)
REMARK    1  A    between atoms: C2_2  and  N1_3 
REMARK    2  A    between atoms: N1_3  and  C3_4 
REMARK    3  A    between atoms: N1_3  and  C5_6 
REMARK    4  A    between atoms: C5_6  and  C6_7 
REMARK    5  A    between atoms: C6_7  and  O1_8 
REMARK    6  A    between atoms: C6_7  and  C7_9 
REMARK    7  A    between atoms: C7_9  and  N2_10 
REMARK       I    between atoms: N2_10  and  C8_11 
REMARK    8  A    between atoms: C8_11  and  C9_13 
REMARK    9  A    between atoms: C13_17  and  C14_18 
REMARK   10  A    between atoms: C19_29  and  N6_30 
REMARK   11  A    between atoms: N6_30  and  C20_31 
ROOT
HETATM    1  C14 UNL     1      -2.182   4.922  12.514  1.00  0.00     0.048 C 
HETATM    2  C15 UNL     1      -2.652   3.731  12.105  1.00  0.00     0.052 A 
HETATM    3  C16 UNL     1      -1.917   2.560  11.501  1.00  0.00     0.258 A 
HETATM    4  O3  UNL     1      -0.719   2.408  11.374  1.00  0.00    -0.267 OA
HETATM    5  N3  UNL     1      -2.897   1.673  11.115  1.00  0.00    -0.308 N 
HETATM    6  C17 UNL     1      -4.160   2.127  11.453  1.00  0.00     0.124 A 
HETATM    7  N4  UNL     1      -5.266   1.431  11.208  1.00  0.00    -0.338 N 
ATOM      8  H4  UNL     1      -5.269   0.529  10.731  1.00  0.00     0.168 HD
HETATM    9  C18 UNL     1      -6.372   2.035  11.650  1.00  0.00     0.183 A 
HETATM   10  N5  UNL     1      -6.426   3.209  12.312  1.00  0.00    -0.338 N 
ATOM     11  H5  UNL     1      -7.320   3.593  12.621  1.00  0.00     0.168 HD
HETATM   12  C19 UNL     1      -5.270   3.865  12.555  1.00  0.00     0.121 A 
HETATM   13  C26 UNL     1      -4.079   3.352  12.093  1.00  0.00     0.068 A 
HETATM   14  H23 UNL     1      -2.722   0.786  10.671  1.00  0.00     0.170 HD
ENDROOT
BRANCH   1  15
HETATM   15  C13 UNL     1      -0.847   5.416  12.556  1.00  0.00     0.039 A 
HETATM   16  C11 UNL     1      -0.169   6.082  13.571  1.00  0.00    -0.033 A 
HETATM   17  C10 UNL     1       1.154   6.329  13.106  1.00  0.00     0.044 A 
HETATM   18  C12 UNL     1      -0.702   6.476  14.904  1.00  0.00     0.050 C 
HETATM   19  C9  UNL     1       1.268   5.816  11.827  1.00  0.00     0.101 A 
HETATM   20  N7  UNL     1       0.043   5.263  11.520  1.00  0.00    -0.351 N 
HETATM   21  H29 UNL     1      -0.151   4.828  10.621  1.00  0.00     0.166 HD
BRANCH  19  22
HETATM   22  C8  UNL     1       2.373   5.782  10.896  1.00  0.00     0.268 C 
HETATM   23  N2  UNL     1       3.584   6.182  11.404  1.00  0.00    -0.353 N 
HETATM   24  H17 UNL     1       3.590   6.677  12.285  1.00  0.00     0.162 HD
HETATM   25  O2  UNL     1       2.247   5.462   9.716  1.00  0.00    -0.266 OA
BRANCH  23  26
HETATM   26  C7  UNL     1       4.779   6.302  10.583  1.00  0.00     0.156 C 
BRANCH  26  27
HETATM   27  C6  UNL     1       6.081   6.558  11.371  1.00  0.00     0.164 C 
BRANCH  27  28
HETATM   28  C5  UNL     1       5.963   7.659  12.451  1.00  0.00     0.305 C 
BRANCH  28  29
HETATM   29  N1  UNL     1       6.668   7.364  13.722  1.00  0.00     0.090 N 
BRANCH  29  30
HETATM   30  C2  UNL     1       5.754   7.646  14.849  1.00  0.00     0.268 C 
HETATM   31  C1  UNL     1       4.407   8.224  14.431  1.00  0.00     0.037 C 
ENDBRANCH  29  30
BRANCH  29  32
HETATM   32  C3  UNL     1       7.922   8.135  13.818  1.00  0.00     0.268 C 
HETATM   33  C4  UNL     1       8.688   7.758  15.082  1.00  0.00     0.037 C 
ENDBRANCH  29  32
ENDBRANCH  28  29
ENDBRANCH  27  28
BRANCH  27  34
HETATM   34  O1  UNL     1       7.161   6.889  10.487  1.00  0.00    -0.392 OA
HETATM   35  H14 UNL     1       6.786   7.398   9.734  1.00  0.00     0.210 HD
ENDBRANCH  27  34
ENDBRANCH  26  27
ENDBRANCH  23  26
ENDBRANCH  19  22
ENDBRANCH   1  15
BRANCH  12  36
HETATM   36  N6  UNL     1      -5.287   5.056  13.319  1.00  0.00    -0.342 N 
HETATM   37  H25 UNL     1      -4.388   5.160  13.781  1.00  0.00     0.167 HD
BRANCH  36  38
HETATM   38  C20 UNL     1      -6.336   5.567  14.119  1.00  0.00     0.035 A 
HETATM   39  C21 UNL     1      -6.094   5.809  15.482  1.00  0.00     0.032 A 
HETATM   40  C22 UNL     1      -7.083   6.358  16.302  1.00  0.00     0.046 A 
HETATM   41  C23 UNL     1      -8.316   6.696  15.759  1.00  0.00     0.138 A 
HETATM   42  F1  UNL     1      -9.252   7.218  16.563  1.00  0.00    -0.204 F 
HETATM   43  C24 UNL     1      -8.563   6.504  14.403  1.00  0.00     0.074 A 
HETATM   44 CL1  UNL     1     -10.078   6.950  13.717  1.00  0.00    -0.081 Cl
HETATM   45  C25 UNL     1      -7.573   5.955  13.585  1.00  0.00     0.056 A 
ENDBRANCH  36  38
ENDBRANCH  12  36
TORSDOF 11
ENDMDL
MODEL 5
REMARK minimizedAffinity -8.37929916
REMARK CNNscore 0.294849694
REMARK CNNaffinity 7.61265039
REMARK  11 active torsions:
REMARK  status: ('A' for Active; 'I' for Inactive)
REMARK    1  A    between atoms: C2_2  and  N1_3 
REMARK    2  A    between atoms: N1_3  and  C3_4 
REMARK    3  A    between atoms: N1_3  and  C5_6 
REMARK    4  A    between atoms: C5_6  and  C6_7 
REMARK    5  A    between atoms: C6_7  and  O1_8 
REMARK    6  A    between atoms: C6_7  and  C7_9 
REMARK    7  A    between atoms: C7_9  and  N2_10 
REMARK       I    between atoms: N2_10  and  C8_11 
REMARK    8  A    between atoms: C8_11  and  C9_13 
REMARK    9  A    between atoms: C13_17  and  C14_18 
REMARK   10  A    between atoms: C19_29  and  N6_30 
REMARK   11  A    between atoms: N6_30  and  C20_31 
ROOT
HETATM    1  C14 UNL     1      -3.064   5.442  12.537  1.00  0.00     0.048 C 
HETATM    2  C15 UNL     1      -3.644   4.328  12.057  1.00  0.00     0.052 A 
HETATM    3  C16 UNL     1      -3.165   3.374  10.992  1.00  0.00     0.258 A 
HETATM    4  O3  UNL     1      -2.087   3.351  10.432  1.00  0.00    -0.267 OA
HETATM    5  N3  UNL     1      -4.214   2.509  10.775  1.00  0.00    -0.308 N 
HETATM    6  C17 UNL     1      -5.279   2.777  11.618  1.00  0.00     0.124 A 
HETATM    7  N4  UNL     1      -6.398   2.059  11.616  1.00  0.00    -0.338 N 
ATOM      8  H4  UNL     1      -6.565   1.279  10.980  1.00  0.00     0.168 HD
HETATM    9  C18 UNL     1      -7.280   2.464  12.534  1.00  0.00     0.183 A 
HETATM   10  N5  UNL     1      -7.102   3.465  13.420  1.00  0.00    -0.338 N 
ATOM     11  H5  UNL     1      -7.830   3.701  14.095  1.00  0.00     0.168 HD
HETATM   12  C19 UNL     1      -5.937   4.149  13.394  1.00  0.00     0.121 A 
HETATM   13  C26 UNL     1      -4.983   3.844  12.449  1.00  0.00     0.068 A 
HETATM   14  H23 UNL     1      -4.203   1.752  10.111  1.00  0.00     0.170 HD
ENDROOT
BRANCH   1  15
HETATM   15  C13 UNL     1      -1.802   6.024  12.229  1.00  0.00     0.039 A 
HETATM   16  C11 UNL     1      -1.385   7.349  12.302  1.00  0.00    -0.033 A 
HETATM   17  C10 UNL     1      -0.018   7.384  11.905  1.00  0.00     0.044 A 
HETATM   18  C12 UNL     1      -2.195   8.529  12.712  1.00  0.00     0.050 C 
HETATM   19  C9  UNL     1       0.381   6.096  11.600  1.00  0.00     0.101 A 
HETATM   20  N7  UNL     1      -0.718   5.291  11.810  1.00  0.00    -0.351 N 
HETATM   21  H29 UNL     1      -0.701   4.288  11.641  1.00  0.00     0.166 HD
BRANCH  19  22
HETATM   22  C8  UNL     1       1.645   5.556  11.155  1.00  0.00     0.268 C 
HETATM   23  N2  UNL     1       2.670   6.465  11.052  1.00  0.00    -0.353 N 
HETATM   24  H17 UNL     1       2.437   7.448  11.063  1.00  0.00     0.162 HD
HETATM   25  O2  UNL     1       1.801   4.378  10.845  1.00  0.00    -0.266 OA
BRANCH  23  26
HETATM   26  C7  UNL     1       3.981   6.115  10.528  1.00  0.00     0.156 C 
BRANCH  26  27
HETATM   27  C6  UNL     1       5.018   7.257  10.565  1.00  0.00     0.164 C 
BRANCH  27  28
HETATM   28  C5  UNL     1       5.635   7.508  11.961  1.00  0.00     0.305 C 
BRANCH  28  29
HETATM   29  N1  UNL     1       5.009   8.612  12.729  1.00  0.00     0.090 N 
BRANCH  29  30
HETATM   30  C2  UNL     1       6.069   9.540  13.175  1.00  0.00     0.268 C 
HETATM   31  C1  UNL     1       7.457   8.914  13.250  1.00  0.00     0.037 C 
ENDBRANCH  29  30
BRANCH  29  32
HETATM   32  C3  UNL     1       4.222   8.085  13.860  1.00  0.00     0.268 C 
HETATM   33  C4  UNL     1       2.817   8.675  13.856  1.00  0.00     0.037 C 
ENDBRANCH  29  32
ENDBRANCH  28  29
ENDBRANCH  27  28
BRANCH  27  34
HETATM   34  O1  UNL     1       4.451   8.483  10.081  1.00  0.00    -0.392 OA
HETATM   35  H14 UNL     1       3.504   8.500  10.347  1.00  0.00     0.210 HD
ENDBRANCH  27  34
ENDBRANCH  26  27
ENDBRANCH  23  26
ENDBRANCH  19  22
ENDBRANCH   1  15
BRANCH  12  36
HETATM   36  N6  UNL     1      -5.688   5.148  14.364  1.00  0.00    -0.342 N 
HETATM   37  H25 UNL     1      -5.364   4.701  15.217  1.00  0.00     0.167 HD
BRANCH  36  38
HETATM   38  C20 UNL     1      -6.456   6.301  14.649  1.00  0.00     0.035 A 
HETATM   39  C21 UNL     1      -5.797   7.532  14.809  1.00  0.00     0.032 A 
HETATM   40  C22 UNL     1      -6.515   8.708  15.044  1.00  0.00     0.046 A 
HETATM   41  C23 UNL     1      -7.903   8.667  15.092  1.00  0.00     0.138 A 
HETATM   42  F1  UNL     1      -8.574   9.804  15.321  1.00  0.00    -0.204 F 
HETATM   43  C24 UNL     1      -8.577   7.466  14.893  1.00  0.00     0.074 A 
HETATM   44 CL1  UNL     1     -10.299   7.413  14.920  1.00  0.00    -0.081 Cl
HETATM   45  C25 UNL     1      -7.858   6.292  14.659  1.00  0.00     0.056 A 
ENDBRANCH  36  38
ENDBRANCH  12  36
TORSDOF 11
ENDMDL
MODEL 6
REMARK minimizedAffinity -9.53308392
REMARK CNNscore 0.25795871
REMARK CNNaffinity 7.31206512
REMARK  11 active torsions:
REMARK  status: ('A' for Active; 'I' for Inactive)
REMARK    1  A    between atoms: C2_2  and  N1_3 
REMARK    2  A    between atoms: N1_3  and  C3_4 
REMARK    3  A    between atoms: N1_3  and  C5_6 
REMARK    4  A    between atoms: C5_6  and  C6_7 
REMARK    5  A    between atoms: C6_7  and  O1_8 
REMARK    6  A    between atoms: C6_7  and  C7_9 
REMARK    7  A    between atoms: C7_9  and  N2_10 
REMARK       I    between atoms: N2_10  and  C8_11 
REMARK    8  A    between atoms: C8_11  and  C9_13 
REMARK    9  A    between atoms: C13_17  and  C14_18 
REMARK   10  A    between atoms: C19_29  and  N6_30 
REMARK   11  A    between atoms: N6_30  and  C20_31 
ROOT
HETATM    1  C14 UNL     1      -2.074   4.738  12.367  1.00  0.00     0.048 C 
HETATM    2  C15 UNL     1      -2.490   3.509  12.016  1.00  0.00     0.052 A 
HETATM    3  C16 UNL     1      -1.696   2.330  11.512  1.00  0.00     0.258 A 
HETATM    4  O3  UNL     1      -0.490   2.211  11.439  1.00  0.00    -0.267 OA
HETATM    5  N3  UNL     1      -2.631   1.388  11.146  1.00  0.00    -0.308 N 
HETATM    6  C17 UNL     1      -3.920   1.819  11.410  1.00  0.00     0.124 A 
HETATM    7  N4  UNL     1      -4.993   1.072  11.167  1.00  0.00    -0.338 N 
ATOM      8  H4  UNL     1      -4.950   0.144  10.748  1.00  0.00     0.168 HD
HETATM    9  C18 UNL     1      -6.134   1.664  11.530  1.00  0.00     0.183 A 
HETATM   10  N5  UNL     1      -6.251   2.874  12.116  1.00  0.00    -0.338 N 
ATOM     11  H5  UNL     1      -7.167   3.246  12.368  1.00  0.00     0.168 HD
HETATM   12  C19 UNL     1      -5.126   3.582  12.360  1.00  0.00     0.121 A 
HETATM   13  C26 UNL     1      -3.903   3.083  11.974  1.00  0.00     0.068 A 
HETATM   14  H23 UNL     1      -2.412   0.482  10.765  1.00  0.00     0.170 HD
ENDROOT
BRANCH   1  15
HETATM   15  C13 UNL     1      -0.758   5.279  12.427  1.00  0.00     0.039 A 
HETATM   16  C11 UNL     1      -0.112   5.954  13.457  1.00  0.00    -0.033 A 
HETATM   17  C10 UNL     1       1.205   6.255  13.006  1.00  0.00     0.044 A 
HETATM   18  C12 UNL     1      -0.670   6.311  14.791  1.00  0.00     0.050 C 
HETATM   19  C9  UNL     1       1.348   5.764  11.721  1.00  0.00     0.101 A 
HETATM   20  N7  UNL     1       0.146   5.172  11.397  1.00  0.00    -0.351 N 
HETATM   21  H29 UNL     1      -0.025   4.743  10.490  1.00  0.00     0.166 HD
BRANCH  19  22
HETATM   22  C8  UNL     1       2.460   5.782  10.799  1.00  0.00     0.268 C 
HETATM   23  N2  UNL     1       3.678   6.093  11.352  1.00  0.00    -0.353 N 
HETATM   24  H17 UNL     1       3.691   6.501  12.276  1.00  0.00     0.162 HD
HETATM   25  O2  UNL     1       2.337   5.579   9.594  1.00  0.00    -0.266 OA
BRANCH  23  26
HETATM   26  C7  UNL     1       4.886   6.251  10.555  1.00  0.00     0.156 C 
BRANCH  26  27
HETATM   27  C6  UNL     1       6.198   6.260  11.366  1.00  0.00     0.164 C 
BRANCH  27  28
HETATM   28  C5  UNL     1       6.090   6.961  12.741  1.00  0.00     0.305 C 
BRANCH  28  29
HETATM   29  N1  UNL     1       6.545   8.372  12.759  1.00  0.00     0.090 N 
BRANCH  29  30
HETATM   30  C2  UNL     1       6.356   8.949  11.412  1.00  0.00     0.268 C 
HETATM   31  C1  UNL     1       5.390  10.127  11.366  1.00  0.00     0.037 C 
ENDBRANCH  29  30
BRANCH  29  32
HETATM   32  C3  UNL     1       7.946   8.466  13.211  1.00  0.00     0.268 C 
HETATM   33  C4  UNL     1       8.156   7.648  14.480  1.00  0.00     0.037 C 
ENDBRANCH  29  32
ENDBRANCH  28  29
ENDBRANCH  27  28
BRANCH  27  34
HETATM   34  O1  UNL     1       7.261   6.868  10.618  1.00  0.00    -0.392 OA
HETATM   35  H14 UNL     1       6.869   7.585  10.071  1.00  0.00     0.210 HD
ENDBRANCH  27  34
ENDBRANCH  26  27
ENDBRANCH  23  26
ENDBRANCH  19  22
ENDBRANCH   1  15
BRANCH  12  36
HETATM   36  N6  UNL     1      -5.210   4.816  13.048  1.00  0.00    -0.342 N 
HETATM   37  H25 UNL     1      -4.430   4.882  13.696  1.00  0.00     0.167 HD
BRANCH  36  38
HETATM   38  C20 UNL     1      -6.363   5.452  13.565  1.00  0.00     0.035 A 
HETATM   39  C21 UNL     1      -7.521   5.506  12.771  1.00  0.00     0.032 A 
HETATM   40  C22 UNL     1      -8.699   6.081  13.254  1.00  0.00     0.046 A 
HETATM   41  C23 UNL     1      -8.738   6.582  14.550  1.00  0.00     0.138 A 
HETATM   42  F1  UNL     1      -9.876   7.132  14.994  1.00  0.00    -0.204 F 
HETATM   43  C24 UNL     1      -7.616   6.500  15.368  1.00  0.00     0.074 A 
HETATM   44 CL1  UNL     1      -7.666   7.090  16.985  1.00  0.00    -0.081 Cl
HETATM   45  C25 UNL     1      -6.438   5.925  14.883  1.00  0.00     0.056 A 
ENDBRANCH  36  38
ENDBRANCH  12  36
TORSDOF 11
ENDMDL
MODEL 7
REMARK minimizedAffinity -8.92225647
REMARK CNNscore 0.217891946
REMARK CNNaffinity 7.40635157
REMARK  11 active torsions:
REMARK  status: ('A' for Active; 'I' for Inactive)
REMARK    1  A    between atoms: C2_2  and  N1_3 
REMARK    2  A    between atoms: N1_3  and  C3_4 
REMARK    3  A    between atoms: N1_3  and  C5_6 
REMARK    4  A    between atoms: C5_6  and  C6_7 
REMARK    5  A    between atoms: C6_7  and  O1_8 
REMARK    6  A    between atoms: C6_7  and  C7_9 
REMARK    7  A    between atoms: C7_9  and  N2_10 
REMARK       I    between atoms: N2_10  and  C8_11 
REMARK    8  A    between atoms: C8_11  and  C9_13 
REMARK    9  A    between atoms: C13_17  and  C14_18 
REMARK   10  A    between atoms: C19_29  and  N6_30 
REMARK   11  A    between atoms: N6_30  and  C20_31 
ROOT
HETATM    1  C14 UNL     1      -3.527   5.393  12.951  1.00  0.00     0.048 C 
HETATM    2  C15 UNL     1      -3.633   4.205  12.330  1.00  0.00     0.052 A 
HETATM    3  C16 UNL     1      -4.862   3.399  11.996  1.00  0.00     0.258 A 
HETATM    4  O3  UNL     1      -6.028   3.721  12.110  1.00  0.00    -0.267 OA
HETATM    5  N3  UNL     1      -4.393   2.196  11.518  1.00  0.00    -0.308 N 
HETATM    6  C17 UNL     1      -3.010   2.172  11.465  1.00  0.00     0.124 A 
HETATM    7  N4  UNL     1      -2.324   1.127  11.012  1.00  0.00    -0.338 N 
ATOM      8  H4  UNL     1      -2.761   0.260  10.698  1.00  0.00     0.168 HD
HETATM    9  C18 UNL     1      -1.003   1.329  11.013  1.00  0.00     0.183 A 
HETATM   10  N5  UNL     1      -0.372   2.461  11.387  1.00  0.00    -0.338 N 
ATOM     11  H5  UNL     1       0.645   2.530  11.346  1.00  0.00     0.168 HD
HETATM   12  C19 UNL     1      -1.119   3.501  11.819  1.00  0.00     0.121 A 
HETATM   13  C26 UNL     1      -2.487   3.375  11.907  1.00  0.00     0.068 A 
HETATM   14  H23 UNL     1      -4.977   1.435  11.211  1.00  0.00     0.170 HD
ENDROOT
BRANCH   1  15
HETATM   15  C13 UNL     1      -4.540   6.273  13.427  1.00  0.00     0.039 A 
HETATM   16  C11 UNL     1      -4.601   7.662  13.408  1.00  0.00    -0.033 A 
HETATM   17  C10 UNL     1      -5.847   8.039  13.987  1.00  0.00     0.044 A 
HETATM   18  C12 UNL     1      -3.572   8.604  12.888  1.00  0.00     0.050 C 
HETATM   19  C9  UNL     1      -6.525   6.889  14.347  1.00  0.00     0.101 A 
HETATM   20  N7  UNL     1      -5.713   5.833  13.991  1.00  0.00    -0.351 N 
HETATM   21  H29 UNL     1      -5.970   4.864  14.163  1.00  0.00     0.166 HD
BRANCH  19  22
HETATM   22  C8  UNL     1      -7.817   6.682  14.961  1.00  0.00     0.268 C 
HETATM   23  N2  UNL     1      -8.863   7.344  14.367  1.00  0.00    -0.353 N 
HETATM   24  H17 UNL     1      -8.649   8.085  13.715  1.00  0.00     0.162 HD
HETATM   25  O2  UNL     1      -7.979   6.000  15.970  1.00  0.00    -0.266 OA
BRANCH  23  26
HETATM   26  C7  UNL     1     -10.213   7.326  14.910  1.00  0.00     0.156 C 
BRANCH  26  27
HETATM   27  C6  UNL     1     -11.311   6.936  13.898  1.00  0.00     0.164 C 
BRANCH  27  28
HETATM   28  C5  UNL     1     -12.260   8.096  13.514  1.00  0.00     0.305 C 
BRANCH  28  29
HETATM   29  N1  UNL     1     -13.189   8.523  14.588  1.00  0.00     0.090 N 
BRANCH  29  30
HETATM   30  C2  UNL     1     -14.577   8.300  14.131  1.00  0.00     0.268 C 
HETATM   31  C1  UNL     1     -14.691   7.819  12.689  1.00  0.00     0.037 C 
ENDBRANCH  29  30
BRANCH  29  32
HETATM   32  C3  UNL     1     -12.948   9.929  14.964  1.00  0.00     0.268 C 
HETATM   33  C4  UNL     1     -11.946  10.574  14.012  1.00  0.00     0.037 C 
ENDBRANCH  29  32
ENDBRANCH  28  29
ENDBRANCH  27  28
BRANCH  27  34
HETATM   34  O1  UNL     1     -12.095   5.839  14.388  1.00  0.00    -0.392 OA
HETATM   35  H14 UNL     1     -12.160   5.929  15.365  1.00  0.00     0.210 HD
ENDBRANCH  27  34
ENDBRANCH  26  27
ENDBRANCH  23  26
ENDBRANCH  19  22
ENDBRANCH   1  15
BRANCH  12  36
HETATM   36  N6  UNL     1      -0.492   4.729  12.139  1.00  0.00    -0.342 N 
HETATM   37  H25 UNL     1      -1.143   5.299  12.672  1.00  0.00     0.167 HD
BRANCH  36  38
HETATM   38  C20 UNL     1       0.335   5.529  11.316  1.00  0.00     0.035 A 
HETATM   39  C21 UNL     1       1.690   5.184  11.178  1.00  0.00     0.032 A 
HETATM   40  C22 UNL     1       2.537   5.914  10.340  1.00  0.00     0.046 A 
HETATM   41  C23 UNL     1       2.028   6.980   9.608  1.00  0.00     0.138 A 
HETATM   42  F1  UNL     1       2.856   7.669   8.812  1.00  0.00    -0.204 F 
HETATM   43  C24 UNL     1       0.679   7.311   9.696  1.00  0.00     0.074 A 
HETATM   44 CL1  UNL     1       0.034   8.610   8.768  1.00  0.00    -0.081 Cl
HETATM   45  C25 UNL     1      -0.166   6.580  10.535  1.00  0.00     0.056 A 
ENDBRANCH  36  38
ENDBRANCH  12  36
TORSDOF 11
ENDMDL
MODEL 8
REMARK minimizedAffinity -8.79736996
REMARK CNNscore 0.173541978
REMARK CNNaffinity 6.5688386
REMARK  11 active torsions:
REMARK  status: ('A' for Active; 'I' for Inactive)
REMARK    1  A    between atoms: C2_2  and  N1_3 
REMARK    2  A    between atoms: N1_3  and  C3_4 
REMARK    3  A    between atoms: N1_3  and  C5_6 
REMARK    4  A    between atoms: C5_6  and  C6_7 
REMARK    5  A    between atoms: C6_7  and  O1_8 
REMARK    6  A    between atoms: C6_7  and  C7_9 
REMARK    7  A    between atoms: C7_9  and  N2_10 
REMARK       I    between atoms: N2_10  and  C8_11 
REMARK    8  A    between atoms: C8_11  and  C9_13 
REMARK    9  A    between atoms: C13_17  and  C14_18 
REMARK   10  A    between atoms: C19_29  and  N6_30 
REMARK   11  A    between atoms: N6_30  and  C20_31 
ROOT
HETATM    1  C14 UNL     1     -10.091   6.860  14.139  1.00  0.00     0.048 C 
HETATM    2  C15 UNL     1      -9.223   7.772  14.611  1.00  0.00     0.052 A 
HETATM    3  C16 UNL     1      -9.450   9.215  14.985  1.00  0.00     0.258 A 
HETATM    4  O3  UNL     1     -10.502   9.818  15.055  1.00  0.00    -0.267 OA
HETATM    5  N3  UNL     1      -8.199   9.727  15.244  1.00  0.00    -0.308 N 
HETATM    6  C17 UNL     1      -7.216   8.759  15.126  1.00  0.00     0.124 A 
HETATM    7  N4  UNL     1      -5.930   9.007  15.355  1.00  0.00    -0.338 N 
ATOM      8  H4  UNL     1      -5.570   9.928  15.606  1.00  0.00     0.168 HD
HETATM    9  C18 UNL     1      -5.158   7.925  15.221  1.00  0.00     0.183 A 
HETATM   10  N5  UNL     1      -5.580   6.679  14.921  1.00  0.00    -0.338 N 
ATOM     11  H5  UNL     1      -4.918   5.907  14.848  1.00  0.00     0.168 HD
HETATM   12  C19 UNL     1      -6.901   6.478  14.720  1.00  0.00     0.121 A 
HETATM   13  C26 UNL     1      -7.775   7.541  14.783  1.00  0.00     0.068 A 
HETATM   14  H23 UNL     1      -8.016  10.679  15.519  1.00  0.00     0.170 HD
ENDROOT
BRANCH   1  15
HETATM   15  C13 UNL     1     -11.492   6.961  13.907  1.00  0.00     0.039 A 
HETATM   16  C11 UNL     1     -12.199   7.787  13.040  1.00  0.00    -0.033 A 
HETATM   17  C10 UNL     1     -13.580   7.466  13.181  1.00  0.00     0.044 A 
HETATM   18  C12 UNL     1     -11.644   8.823  12.126  1.00  0.00     0.050 C 
HETATM   19  C9  UNL     1     -13.698   6.458  14.120  1.00  0.00     0.101 A 
HETATM   20  N7  UNL     1     -12.417   6.166  14.539  1.00  0.00    -0.351 N 
HETATM   21  H29 UNL     1     -12.221   5.465  15.249  1.00  0.00     0.166 HD
BRANCH  19  22
HETATM   22  C8  UNL     1     -14.848   5.754  14.641  1.00  0.00     0.268 C 
HETATM   23  N2  UNL     1     -14.730   4.387  14.686  1.00  0.00    -0.353 N 
HETATM   24  H17 UNL     1     -13.981   3.956  14.162  1.00  0.00     0.162 HD
HETATM   25  O2  UNL     1     -15.883   6.319  14.983  1.00  0.00    -0.266 OA
BRANCH  23  26
HETATM   26  C7  UNL     1     -15.823   3.517  15.090  1.00  0.00     0.156 C 
BRANCH  26  27
HETATM   27  C6  UNL     1     -15.661   2.039  14.675  1.00  0.00     0.164 C 
BRANCH  27  28
HETATM   28  C5  UNL     1     -16.662   1.076  15.357  1.00  0.00     0.305 C 
BRANCH  28  29
HETATM   29  N1  UNL     1     -16.592  -0.329  14.887  1.00  0.00     0.090 N 
BRANCH  29  30
HETATM   30  C2  UNL     1     -17.885  -0.686  14.266  1.00  0.00     0.268 C 
HETATM   31  C1  UNL     1     -19.001   0.320  14.523  1.00  0.00     0.037 C 
ENDBRANCH  29  30
BRANCH  29  32
HETATM   32  C3  UNL     1     -16.239  -1.237  15.995  1.00  0.00     0.268 C 
HETATM   33  C4  UNL     1     -16.397  -0.531  17.337  1.00  0.00     0.037 C 
ENDBRANCH  29  32
ENDBRANCH  28  29
ENDBRANCH  27  28
BRANCH  27  34
HETATM   34  O1  UNL     1     -14.326   1.577  14.929  1.00  0.00    -0.392 OA
HETATM   35  H14 UNL     1     -14.002   2.030  15.739  1.00  0.00     0.210 HD
ENDBRANCH  27  34
ENDBRANCH  26  27
ENDBRANCH  23  26
ENDBRANCH  19  22
ENDBRANCH   1  15
BRANCH  12  36
HETATM   36  N6  UNL     1      -7.384   5.169  14.487  1.00  0.00    -0.342 N 
HETATM   37  H25 UNL     1      -7.624   4.746  15.380  1.00  0.00     0.167 HD
BRANCH  36  38
HETATM   38  C20 UNL     1      -6.891   4.204  13.578  1.00  0.00     0.035 A 
HETATM   39  C21 UNL     1      -7.638   3.035  13.359  1.00  0.00     0.032 A 
HETATM   40  C22 UNL     1      -7.218   2.074  12.435  1.00  0.00     0.046 A 
HETATM   41  C23 UNL     1      -6.058   2.289  11.700  1.00  0.00     0.138 A 
HETATM   42  F1  UNL     1      -5.670   1.355  10.822  1.00  0.00    -0.204 F 
HETATM   43  C24 UNL     1      -5.326   3.460  11.870  1.00  0.00     0.074 A 
HETATM   44 CL1  UNL     1      -3.905   3.747  10.941  1.00  0.00    -0.081 Cl
HETATM   45  C25 UNL     1      -5.748   4.419  12.794  1.00  0.00     0.056 A 
ENDBRANCH  36  38
ENDBRANCH  12  36
TORSDOF 11
ENDMDL
MODEL 9
REMARK minimizedAffinity -8.40949726
REMARK CNNscore 0.155913085
REMARK CNNaffinity 7.34279823
REMARK  11 active torsions:
REMARK  status: ('A' for Active; 'I' for Inactive)
REMARK    1  A    between atoms: C2_2  and  N1_3 
REMARK    2  A    between atoms: N1_3  and  C3_4 
REMARK    3  A    between atoms: N1_3  and  C5_6 
REMARK    4  A    between atoms: C5_6  and  C6_7 
REMARK    5  A    between atoms: C6_7  and  O1_8 
REMARK    6  A    between atoms: C6_7  and  C7_9 
REMARK    7  A    between atoms: C7_9  and  N2_10 
REMARK       I    between atoms: N2_10  and  C8_11 
REMARK    8  A    between atoms: C8_11  and  C9_13 
REMARK    9  A    between atoms: C13_17  and  C14_18 
REMARK   10  A    between atoms: C19_29  and  N6_30 
REMARK   11  A    between atoms: N6_30  and  C20_31 
ROOT
HETATM    1  C14 UNL     1      -1.862   5.590  12.598  1.00  0.00     0.048 C 
HETATM    2  C15 UNL     1      -2.230   4.393  12.109  1.00  0.00     0.052 A 
HETATM    3  C16 UNL     1      -1.404   3.342  11.411  1.00  0.00     0.258 A 
HETATM    4  O3  UNL     1      -0.200   3.310  11.257  1.00  0.00    -0.267 OA
HETATM    5  N3  UNL     1      -2.306   2.398  10.974  1.00  0.00    -0.308 N 
HETATM    6  C17 UNL     1      -3.598   2.708  11.362  1.00  0.00     0.124 A 
HETATM    7  N4  UNL     1      -4.641   1.932  11.081  1.00  0.00    -0.338 N 
ATOM      8  H4  UNL     1      -4.572   1.070  10.540  1.00  0.00     0.168 HD
HETATM    9  C18 UNL     1      -5.788   2.398  11.581  1.00  0.00     0.183 A 
HETATM   10  N5  UNL     1      -5.936   3.512  12.328  1.00  0.00    -0.338 N 
ATOM     11  H5  UNL     1      -6.854   3.788  12.677  1.00  0.00     0.168 HD
HETATM   12  C19 UNL     1      -4.840   4.253  12.603  1.00  0.00     0.121 A 
HETATM   13  C26 UNL     1      -3.617   3.886  12.088  1.00  0.00     0.068 A 
HETATM   14  H23 UNL     1      -2.060   1.565  10.464  1.00  0.00     0.170 HD
ENDROOT
BRANCH   1  15
HETATM   15  C13 UNL     1      -0.578   6.201  12.657  1.00  0.00     0.039 A 
HETATM   16  C11 UNL     1       0.215   6.722  11.641  1.00  0.00    -0.033 A 
HETATM   17  C10 UNL     1       1.396   7.238  12.247  1.00  0.00     0.044 A 
HETATM   18  C12 UNL     1      -0.088   6.748  10.183  1.00  0.00     0.050 C 
HETATM   19  C9  UNL     1       1.312   7.031  13.611  1.00  0.00     0.101 A 
HETATM   20  N7  UNL     1       0.103   6.405  13.834  1.00  0.00    -0.351 N 
HETATM   21  H29 UNL     1      -0.203   6.121  14.761  1.00  0.00     0.166 HD
BRANCH  19  22
HETATM   22  C8  UNL     1       2.211   7.355  14.695  1.00  0.00     0.268 C 
HETATM   23  N2  UNL     1       3.533   7.481  14.344  1.00  0.00    -0.353 N 
HETATM   24  H17 UNL     1       3.822   7.128  13.443  1.00  0.00     0.162 HD
HETATM   25  O2  UNL     1       1.844   7.468  15.861  1.00  0.00    -0.266 OA
BRANCH  23  26
HETATM   26  C7  UNL     1       4.587   7.708  15.322  1.00  0.00     0.156 C 
BRANCH  26  27
HETATM   27  C6  UNL     1       6.016   7.718  14.741  1.00  0.00     0.164 C 
BRANCH  27  28
HETATM   28  C5  UNL     1       6.195   8.642  13.513  1.00  0.00     0.305 C 
BRANCH  28  29
HETATM   29  N1  UNL     1       6.151  10.094  13.814  1.00  0.00     0.090 N 
BRANCH  29  30
HETATM   30  C2  UNL     1       5.263  10.754  12.835  1.00  0.00     0.268 C 
HETATM   31  C1  UNL     1       5.887  11.959  12.139  1.00  0.00     0.037 C 
ENDBRANCH  29  30
BRANCH  29  32
HETATM   32  C3  UNL     1       7.508  10.672  13.810  1.00  0.00     0.268 C 
HETATM   33  C4  UNL     1       7.868  11.204  15.193  1.00  0.00     0.037 C 
ENDBRANCH  29  32
ENDBRANCH  28  29
ENDBRANCH  27  28
BRANCH  27  34
HETATM   34  O1  UNL     1       6.438   6.392  14.389  1.00  0.00    -0.392 OA
HETATM   35  H14 UNL     1       5.647   5.901  14.073  1.00  0.00     0.210 HD
ENDBRANCH  27  34
ENDBRANCH  26  27
ENDBRANCH  23  26
ENDBRANCH  19  22
ENDBRANCH   1  15
BRANCH  12  36
HETATM   36  N6  UNL     1      -4.949   5.379  13.453  1.00  0.00    -0.342 N 
HETATM   37  H25 UNL     1      -4.098   5.457  14.002  1.00  0.00     0.167 HD
BRANCH  36  38
HETATM   38  C20 UNL     1      -6.077   5.812  14.188  1.00  0.00     0.035 A 
HETATM   39  C21 UNL     1      -5.903   6.208  15.526  1.00  0.00     0.032 A 
HETATM   40  C22 UNL     1      -6.977   6.688  16.280  1.00  0.00     0.046 A 
HETATM   41  C23 UNL     1      -8.231   6.805  15.693  1.00  0.00     0.138 A 
HETATM   42  F1  UNL     1      -9.248   7.265  16.433  1.00  0.00    -0.204 F 
HETATM   43  C24 UNL     1      -8.416   6.460  14.358  1.00  0.00     0.074 A 
HETATM   44 CL1  UNL     1      -9.960   6.631  13.615  1.00  0.00    -0.081 Cl
HETATM   45  C25 UNL     1      -7.341   5.979  13.606  1.00  0.00     0.056 A 
ENDBRANCH  36  38
ENDBRANCH  12  36
TORSDOF 11
ENDMDL
