MODEL 1
REMARK minimizedAffinity -6.99739933
REMARK CNNscore 0.507178009
REMARK CNNaffinity 6.8678031
REMARK  10 active torsions:
REMARK  status: ('A' for Active; 'I' for Inactive)
REMARK    1  A    between atoms: C2_2  and  C3_3 
REMARK       I    between atoms: C3_3  and  N1_5 
REMARK    2  A    between atoms: N1_5  and  C4_6 
REMARK    3  A    between atoms: C7_9  and  N2_10 
REMARK    4  A    between atoms: N2_10  and  C8_11 
REMARK    5  A    between atoms: C17_26  and  O2_27 
REMARK    6  A    between atoms: O2_27  and  C18_28 
REMARK    7  A    between atoms: C18_28  and  C19_29 
REMARK    8  A    between atoms: C19_29  and  N5_30 
REMARK       I    between atoms: N5_30  and  C20_31 
REMARK    9  A    between atoms: C20_31  and  C21_33 
REMARK       I    between atoms: N6_37  and  C25_38 
REMARK   10  A    between atoms: C25_38  and  C26_40 
ROOT
HETATM    1  C4  UNL     1      15.030  53.953  -1.977  1.00  0.00     0.069 A 
HETATM    2  C5  UNL     1      14.666  55.113  -1.295  1.00  0.00     0.050 A 
HETATM    3  C6  UNL     1      13.334  55.596  -1.337  1.00  0.00     0.037 A 
HETATM    4  C7  UNL     1      12.878  56.769  -0.701  1.00  0.00     0.119 A 
HETATM    5  N3  UNL     1      11.598  57.175  -0.788  1.00  0.00    -0.338 N 
ATOM      6  H3  UNL     1      11.278  58.034  -0.340  1.00  0.00     0.168 HD
HETATM    7  C14 UNL     1      10.768  56.399  -1.486  1.00  0.00     0.182 A 
HETATM    8  N4  UNL     1      11.093  55.275  -2.131  1.00  0.00    -0.351 N 
ATOM      9  H4  UNL     1      10.402  54.743  -2.658  1.00  0.00     0.166 HD
HETATM   10  C15 UNL     1      12.366  54.881  -2.053  1.00  0.00     0.049 A 
HETATM   11  C16 UNL     1      12.738  53.714  -2.714  1.00  0.00     0.069 A 
HETATM   12  C17 UNL     1      14.052  53.240  -2.690  1.00  0.00     0.097 A 
ENDROOT
BRANCH  12  13
HETATM   13  O2  UNL     1      14.504  52.107  -3.328  1.00  0.00    -0.347 OA
BRANCH  13  14
HETATM   14  C18 UNL     1      13.639  50.969  -3.409  1.00  0.00     0.195 C 
BRANCH  14  15
HETATM   15  C19 UNL     1      13.328  50.416  -2.014  1.00  0.00     0.149 C 
BRANCH  15  16
HETATM   16  N5  UNL     1      11.917  50.176  -1.791  1.00  0.00    -0.357 N 
HETATM   17  C20 UNL     1      11.456  48.902  -1.519  1.00  0.00     0.240 C 
HETATM   18  O3  UNL     1      12.215  47.942  -1.388  1.00  0.00    -0.271 OA
HETATM   19  H16 UNL     1      11.257  50.843  -2.176  1.00  0.00     0.162 HD
BRANCH  17  20
HETATM   20  C21 UNL     1       9.926  48.805  -1.347  1.00  0.00     0.179 C 
HETATM   21  C22 UNL     1       9.577  47.976  -0.112  1.00  0.00     0.037 C 
HETATM   22  C23 UNL     1       9.487  46.550  -0.654  1.00  0.00     0.022 C 
HETATM   23  C24 UNL     1       8.906  46.738  -2.049  1.00  0.00     0.127 C 
HETATM   24  N6  UNL     1       9.329  48.068  -2.453  1.00  0.00    -0.339 N 
HETATM   25  C25 UNL     1       9.143  48.670  -3.675  1.00  0.00     0.220 C 
HETATM   26  O4  UNL     1       9.489  49.835  -3.876  1.00  0.00    -0.273 OA
BRANCH  25  27
HETATM   27  C26 UNL     1       8.491  47.811  -4.747  1.00  0.00     0.098 C 
HETATM   28  C27 UNL     1       6.996  48.061  -4.861  1.00  0.00     0.014 C 
ENDBRANCH  25  27
ENDBRANCH  17  20
ENDBRANCH  15  16
ENDBRANCH  14  15
ENDBRANCH  13  14
ENDBRANCH  12  13
BRANCH   1  29
HETATM   29  N1  UNL     1      16.346  53.440  -1.994  1.00  0.00    -0.321 N 
HETATM   30  C3  UNL     1      17.527  54.140  -2.006  1.00  0.00     0.245 C 
HETATM   31  O1  UNL     1      17.670  55.355  -2.055  1.00  0.00    -0.268 OA
HETATM   32  H4  UNL     1      16.386  52.431  -2.088  1.00  0.00     0.169 HD
BRANCH  30  33
HETATM   33  C2  UNL     1      18.745  53.281  -2.041  1.00  0.00     0.064 C 
HETATM   34  C1  UNL     1      19.695  53.244  -1.098  1.00  0.00     0.017 C 
ENDBRANCH  30  33
ENDBRANCH   1  29
BRANCH   4  35
HETATM   35  N2  UNL     1      13.802  57.564   0.030  1.00  0.00    -0.339 N 
HETATM   36  H6  UNL     1      13.823  58.497  -0.369  1.00  0.00     0.167 HD
BRANCH  35  37
HETATM   37  C8  UNL     1      13.976  57.570   1.433  1.00  0.00     0.072 A 
HETATM   38  C9  UNL     1      14.666  56.508   2.041  1.00  0.00     0.034 A 
HETATM   39  C10 UNL     1      14.853  56.469   3.427  1.00  0.00     0.021 A 
HETATM   40  C11 UNL     1      14.334  57.488   4.224  1.00  0.00     0.014 A 
HETATM   41 BR1  UNL     1      14.586  57.436   6.097  1.00  0.00    -0.051 Br
HETATM   42  C12 UNL     1      13.619  58.534   3.652  1.00  0.00     0.063 A 
HETATM   43  C13 UNL     1      13.437  58.564   2.270  1.00  0.00     0.144 A 
HETATM   44  F1  UNL     1      12.679  59.552   1.766  1.00  0.00    -0.204 F 
ENDBRANCH  35  37
ENDBRANCH   4  35
TORSDOF 10
ENDMDL
MODEL 2
REMARK minimizedAffinity -6.63691092
REMARK CNNscore 0.483990729
REMARK CNNaffinity 6.36367035
REMARK  10 active torsions:
REMARK  status: ('A' for Active; 'I' for Inactive)
REMARK    1  A    between atoms: C2_2  and  C3_3 
REMARK       I    between atoms: C3_3  and  N1_5 
REMARK    2  A    between atoms: N1_5  and  C4_6 
REMARK    3  A    between atoms: C7_9  and  N2_10 
REMARK    4  A    between atoms: N2_10  and  C8_11 
REMARK    5  A    between atoms: C17_26  and  O2_27 
REMARK    6  A    between atoms: O2_27  and  C18_28 
REMARK    7  A    between atoms: C18_28  and  C19_29 
REMARK    8  A    between atoms: C19_29  and  N5_30 
REMARK       I    between atoms: N5_30  and  C20_31 
REMARK    9  A    between atoms: C20_31  and  C21_33 
REMARK       I    between atoms: N6_37  and  C25_38 
REMARK   10  A    between atoms: C25_38  and  C26_40 
ROOT
HETATM    1  C4  UNL     1      11.107  56.302  -4.276  1.00  0.00     0.069 A 
HETATM    2  C5  UNL     1      10.766  57.511  -4.880  1.00  0.00     0.050 A 
HETATM    3  C6  UNL     1      10.177  57.542  -6.169  1.00  0.00     0.037 A 
HETATM    4  C7  UNL     1       9.820  58.714  -6.868  1.00  0.00     0.119 A 
HETATM    5  N3  UNL     1       9.269  58.672  -8.095  1.00  0.00    -0.338 N 
ATOM      6  H3  UNL     1       9.030  59.523  -8.603  1.00  0.00     0.168 HD
HETATM    7  C14 UNL     1       9.051  57.464  -8.614  1.00  0.00     0.182 A 
HETATM    8  N4  UNL     1       9.354  56.293  -8.044  1.00  0.00    -0.351 N 
ATOM      9  H4  UNL     1       9.168  55.407  -8.513  1.00  0.00     0.166 HD
HETATM   10  C15 UNL     1       9.911  56.338  -6.832  1.00  0.00     0.049 A 
HETATM   11  C16 UNL     1      10.238  55.137  -6.211  1.00  0.00     0.069 A 
HETATM   12  C17 UNL     1      10.833  55.098  -4.947  1.00  0.00     0.097 A 
ENDROOT
BRANCH  12  13
HETATM   13  O2  UNL     1      11.202  53.957  -4.272  1.00  0.00    -0.347 OA
BRANCH  13  14
HETATM   14  C18 UNL     1      11.493  52.774  -5.025  1.00  0.00     0.195 C 
BRANCH  14  15
HETATM   15  C19 UNL     1      10.626  51.600  -4.558  1.00  0.00     0.149 C 
BRANCH  15  16
HETATM   16  N5  UNL     1      11.011  51.081  -3.261  1.00  0.00    -0.357 N 
HETATM   17  C20 UNL     1      11.859  49.993  -3.164  1.00  0.00     0.240 C 
HETATM   18  O3  UNL     1      12.371  49.468  -4.152  1.00  0.00    -0.271 OA
HETATM   19  H16 UNL     1      10.402  51.274  -2.473  1.00  0.00     0.162 HD
BRANCH  17  20
HETATM   20  C21 UNL     1      12.140  49.537  -1.717  1.00  0.00     0.179 C 
HETATM   21  C22 UNL     1      13.636  49.304  -1.509  1.00  0.00     0.037 C 
HETATM   22  C23 UNL     1      13.823  47.835  -1.884  1.00  0.00     0.022 C 
HETATM   23  C24 UNL     1      12.534  47.181  -1.403  1.00  0.00     0.127 C 
HETATM   24  N6  UNL     1      11.537  48.236  -1.461  1.00  0.00    -0.339 N 
HETATM   25  C25 UNL     1      10.187  48.125  -1.222  1.00  0.00     0.220 C 
HETATM   26  O4  UNL     1       9.450  49.112  -1.236  1.00  0.00    -0.273 OA
BRANCH  25  27
HETATM   27  C26 UNL     1       9.674  46.721  -0.946  1.00  0.00     0.098 C 
HETATM   28  C27 UNL     1       9.344  46.502   0.521  1.00  0.00     0.014 C 
ENDBRANCH  25  27
ENDBRANCH  17  20
ENDBRANCH  15  16
ENDBRANCH  14  15
ENDBRANCH  13  14
ENDBRANCH  12  13
BRANCH   1  29
HETATM   29  N1  UNL     1      11.721  56.210  -3.007  1.00  0.00    -0.321 N 
HETATM   30  C3  UNL     1      11.136  56.345  -1.773  1.00  0.00     0.245 C 
HETATM   31  O1  UNL     1       9.968  56.621  -1.530  1.00  0.00    -0.268 OA
HETATM   32  H4  UNL     1      12.730  56.111  -3.052  1.00  0.00     0.169 HD
BRANCH  30  33
HETATM   33  C2  UNL     1      12.084  56.206  -0.630  1.00  0.00     0.064 C 
HETATM   34  C1  UNL     1      12.705  57.218  -0.010  1.00  0.00     0.017 C 
ENDBRANCH  30  33
ENDBRANCH   1  29
BRANCH   4  35
HETATM   35  N2  UNL     1      10.075  59.979  -6.273  1.00  0.00    -0.339 N 
HETATM   36  H6  UNL     1      10.946  60.348  -6.643  1.00  0.00     0.167 HD
BRANCH  35  37
HETATM   37  C8  UNL     1       9.123  60.992  -6.016  1.00  0.00     0.072 A 
HETATM   38  C9  UNL     1       9.469  62.332  -6.258  1.00  0.00     0.034 A 
HETATM   39  C10 UNL     1       8.561  63.367  -6.009  1.00  0.00     0.021 A 
HETATM   40  C11 UNL     1       7.299  63.072  -5.497  1.00  0.00     0.014 A 
HETATM   41 BR1  UNL     1       6.072  64.470  -5.159  1.00  0.00    -0.051 Br
HETATM   42  C12 UNL     1       6.942  61.758  -5.217  1.00  0.00     0.063 A 
HETATM   43  C13 UNL     1       7.854  60.733  -5.468  1.00  0.00     0.144 A 
HETATM   44  F1  UNL     1       7.498  59.487  -5.117  1.00  0.00    -0.204 F 
ENDBRANCH  35  37
ENDBRANCH   4  35
TORSDOF 10
ENDMDL
MODEL 3
REMARK minimizedAffinity -7.37327194
REMARK CNNscore 0.452497542
REMARK CNNaffinity 7.06148767
REMARK  10 active torsions:
REMARK  status: ('A' for Active; 'I' for Inactive)
REMARK    1  A    between atoms: C2_2  and  C3_3 
REMARK       I    between atoms: C3_3  and  N1_5 
REMARK    2  A    between atoms: N1_5  and  C4_6 
REMARK    3  A    between atoms: C7_9  and  N2_10 
REMARK    4  A    between atoms: N2_10  and  C8_11 
REMARK    5  A    between atoms: C17_26  and  O2_27 
REMARK    6  A    between atoms: O2_27  and  C18_28 
REMARK    7  A    between atoms: C18_28  and  C19_29 
REMARK    8  A    between atoms: C19_29  and  N5_30 
REMARK       I    between atoms: N5_30  and  C20_31 
REMARK    9  A    between atoms: C20_31  and  C21_33 
REMARK       I    between atoms: N6_37  and  C25_38 
REMARK   10  A    between atoms: C25_38  and  C26_40 
ROOT
HETATM    1  C4  UNL     1      14.019  56.804   1.555  1.00  0.00     0.069 A 
HETATM    2  C5  UNL     1      13.308  56.163   0.542  1.00  0.00     0.050 A 
HETATM    3  C6  UNL     1      12.631  56.907  -0.457  1.00  0.00     0.037 A 
HETATM    4  C7  UNL     1      11.870  56.350  -1.505  1.00  0.00     0.119 A 
HETATM    5  N3  UNL     1      11.245  57.116  -2.418  1.00  0.00    -0.338 N 
ATOM      6  H3  UNL     1      10.681  56.707  -3.163  1.00  0.00     0.168 HD
HETATM    7  C14 UNL     1      11.400  58.435  -2.302  1.00  0.00     0.182 A 
HETATM    8  N4  UNL     1      12.091  59.068  -1.348  1.00  0.00    -0.351 N 
ATOM      9  H4  UNL     1      12.150  60.085  -1.318  1.00  0.00     0.166 HD
HETATM   10  C15 UNL     1      12.699  58.305  -0.438  1.00  0.00     0.049 A 
HETATM   11  C16 UNL     1      13.428  58.933   0.568  1.00  0.00     0.069 A 
HETATM   12  C17 UNL     1      14.086  58.208   1.565  1.00  0.00     0.097 A 
ENDROOT
BRANCH  12  13
HETATM   13  O2  UNL     1      14.811  58.751   2.601  1.00  0.00    -0.347 OA
BRANCH  13  14
HETATM   14  C18 UNL     1      14.171  59.688   3.474  1.00  0.00     0.195 C 
BRANCH  14  15
HETATM   15  C19 UNL     1      13.059  59.013   4.283  1.00  0.00     0.149 C 
BRANCH  15  16
HETATM   16  N5  UNL     1      12.844  59.618   5.582  1.00  0.00    -0.357 N 
HETATM   17  C20 UNL     1      13.281  58.984   6.731  1.00  0.00     0.240 C 
HETATM   18  O3  UNL     1      13.919  57.934   6.700  1.00  0.00    -0.271 OA
HETATM   19  H16 UNL     1      12.091  60.291   5.673  1.00  0.00     0.162 HD
BRANCH  17  20
HETATM   20  C21 UNL     1      12.941  59.735   8.035  1.00  0.00     0.179 C 
HETATM   21  C22 UNL     1      11.952  58.929   8.877  1.00  0.00     0.037 C 
HETATM   22  C23 UNL     1      10.589  59.410   8.382  1.00  0.00     0.022 C 
HETATM   23  C24 UNL     1      10.823  60.884   8.079  1.00  0.00     0.127 C 
HETATM   24  N6  UNL     1      12.234  60.976   7.746  1.00  0.00    -0.339 N 
HETATM   25  C25 UNL     1      12.918  62.083   7.299  1.00  0.00     0.220 C 
HETATM   26  O4  UNL     1      14.135  62.054   7.115  1.00  0.00    -0.273 OA
BRANCH  25  27
HETATM   27  C26 UNL     1      12.079  63.327   7.051  1.00  0.00     0.098 C 
HETATM   28  C27 UNL     1      11.848  63.585   5.571  1.00  0.00     0.014 C 
ENDBRANCH  25  27
ENDBRANCH  17  20
ENDBRANCH  15  16
ENDBRANCH  14  15
ENDBRANCH  13  14
ENDBRANCH  12  13
BRANCH   1  29
HETATM   29  N1  UNL     1      14.690  56.117   2.591  1.00  0.00    -0.321 N 
HETATM   30  C3  UNL     1      14.147  55.537   3.711  1.00  0.00     0.245 C 
HETATM   31  O1  UNL     1      12.972  55.545   4.057  1.00  0.00    -0.268 OA
HETATM   32  H4  UNL     1      15.700  56.143   2.506  1.00  0.00     0.169 HD
BRANCH  30  33
HETATM   33  C2  UNL     1      15.148  54.904   4.616  1.00  0.00     0.064 C 
HETATM   34  C1  UNL     1      15.028  53.696   5.182  1.00  0.00     0.017 C 
ENDBRANCH  30  33
ENDBRANCH   1  29
BRANCH   4  35
HETATM   35  N2  UNL     1      11.733  54.937  -1.585  1.00  0.00    -0.339 N 
HETATM   36  H6  UNL     1      10.752  54.694  -1.483  1.00  0.00     0.167 HD
BRANCH  35  37
HETATM   37  C8  UNL     1      12.414  54.078  -2.477  1.00  0.00     0.072 A 
HETATM   38  C9  UNL     1      13.615  53.477  -2.064  1.00  0.00     0.034 A 
HETATM   39  C10 UNL     1      14.327  52.628  -2.917  1.00  0.00     0.021 A 
HETATM   40  C11 UNL     1      13.852  52.383  -4.205  1.00  0.00     0.014 A 
HETATM   41 BR1  UNL     1      14.815  51.236  -5.359  1.00  0.00    -0.051 Br
HETATM   42  C12 UNL     1      12.684  52.991  -4.651  1.00  0.00     0.063 A 
HETATM   43  C13 UNL     1      11.982  53.836  -3.794  1.00  0.00     0.144 A 
HETATM   44  F1  UNL     1      10.899  54.459  -4.287  1.00  0.00    -0.204 F 
ENDBRANCH  35  37
ENDBRANCH   4  35
TORSDOF 10
ENDMDL
MODEL 4
REMARK minimizedAffinity -6.3617239
REMARK CNNscore 0.452133179
REMARK CNNaffinity 6.70533609
REMARK  10 active torsions:
REMARK  status: ('A' for Active; 'I' for Inactive)
REMARK    1  A    between atoms: C2_2  and  C3_3 
REMARK       I    between atoms: C3_3  and  N1_5 
REMARK    2  A    between atoms: N1_5  and  C4_6 
REMARK    3  A    between atoms: C7_9  and  N2_10 
REMARK    4  A    between atoms: N2_10  and  C8_11 
REMARK    5  A    between atoms: C17_26  and  O2_27 
REMARK    6  A    between atoms: O2_27  and  C18_28 
REMARK    7  A    between atoms: C18_28  and  C19_29 
REMARK    8  A    between atoms: C19_29  and  N5_30 
REMARK       I    between atoms: N5_30  and  C20_31 
REMARK    9  A    between atoms: C20_31  and  C21_33 
REMARK       I    between atoms: N6_37  and  C25_38 
REMARK   10  A    between atoms: C25_38  and  C26_40 
ROOT
HETATM    1  C4  UNL     1      12.552  60.224   5.544  1.00  0.00     0.069 A 
HETATM    2  C5  UNL     1      12.972  58.931   5.234  1.00  0.00     0.050 A 
HETATM    3  C6  UNL     1      13.268  58.561   3.898  1.00  0.00     0.037 A 
HETATM    4  C7  UNL     1      13.677  57.275   3.486  1.00  0.00     0.119 A 
HETATM    5  N3  UNL     1      13.936  56.989   2.197  1.00  0.00    -0.338 N 
ATOM      6  H3  UNL     1      14.213  56.053   1.902  1.00  0.00     0.168 HD
HETATM    7  C14 UNL     1      13.813  57.989   1.324  1.00  0.00     0.182 A 
HETATM    8  N4  UNL     1      13.429  59.238   1.603  1.00  0.00    -0.351 N 
ATOM      9  H4  UNL     1      13.344  59.947   0.874  1.00  0.00     0.166 HD
HETATM   10  C15 UNL     1      13.161  59.516   2.881  1.00  0.00     0.049 A 
HETATM   11  C16 UNL     1      12.759  60.808   3.205  1.00  0.00     0.069 A 
HETATM   12  C17 UNL     1      12.451  61.177   4.517  1.00  0.00     0.097 A 
ENDROOT
BRANCH  12  13
HETATM   13  O2  UNL     1      12.031  62.425   4.918  1.00  0.00    -0.347 OA
BRANCH  13  14
HETATM   14  C18 UNL     1      12.984  63.493   4.960  1.00  0.00     0.195 C 
BRANCH  14  15
HETATM   15  C19 UNL     1      12.573  64.632   4.022  1.00  0.00     0.149 C 
BRANCH  15  16
HETATM   16  N5  UNL     1      12.799  64.335   2.622  1.00  0.00    -0.357 N 
HETATM   17  C20 UNL     1      13.935  64.795   1.982  1.00  0.00     0.240 C 
HETATM   18  O3  UNL     1      14.823  65.406   2.575  1.00  0.00    -0.271 OA
HETATM   19  H16 UNL     1      11.992  64.115   2.048  1.00  0.00     0.162 HD
BRANCH  17  20
HETATM   20  C21 UNL     1      14.009  64.430   0.485  1.00  0.00     0.179 C 
HETATM   21  C22 UNL     1      13.870  62.920   0.293  1.00  0.00     0.037 C 
HETATM   22  C23 UNL     1      15.311  62.417   0.366  1.00  0.00     0.022 C 
HETATM   23  C24 UNL     1      16.109  63.537  -0.289  1.00  0.00     0.127 C 
HETATM   24  N6  UNL     1      15.327  64.738  -0.056  1.00  0.00    -0.339 N 
HETATM   25  C25 UNL     1      15.670  66.034  -0.366  1.00  0.00     0.220 C 
HETATM   26  O4  UNL     1      14.887  66.967  -0.180  1.00  0.00    -0.273 OA
BRANCH  25  27
HETATM   27  C26 UNL     1      17.062  66.232  -0.943  1.00  0.00     0.098 C 
HETATM   28  C27 UNL     1      18.050  66.750   0.089  1.00  0.00     0.014 C 
ENDBRANCH  25  27
ENDBRANCH  17  20
ENDBRANCH  15  16
ENDBRANCH  14  15
ENDBRANCH  13  14
ENDBRANCH  12  13
BRANCH   1  29
HETATM   29  N1  UNL     1      12.217  60.642   6.851  1.00  0.00    -0.321 N 
HETATM   30  C3  UNL     1      11.177  60.210   7.637  1.00  0.00     0.245 C 
HETATM   31  O1  UNL     1      10.301  59.408   7.336  1.00  0.00    -0.268 OA
HETATM   32  H4  UNL     1      12.786  61.410   7.189  1.00  0.00     0.169 HD
BRANCH  30  33
HETATM   33  C2  UNL     1      11.101  60.877   8.968  1.00  0.00     0.064 C 
HETATM   34  C1  UNL     1      10.219  60.585   9.933  1.00  0.00     0.017 C 
ENDBRANCH  30  33
ENDBRANCH   1  29
BRANCH   4  35
HETATM   35  N2  UNL     1      13.790  56.242   4.455  1.00  0.00    -0.339 N 
HETATM   36  H6  UNL     1      12.903  55.754   4.524  1.00  0.00     0.167 HD
BRANCH  35  37
HETATM   37  C8  UNL     1      14.897  55.381   4.636  1.00  0.00     0.072 A 
HETATM   38  C9  UNL     1      16.173  55.816   4.240  1.00  0.00     0.034 A 
HETATM   39  C10 UNL     1      17.294  54.994   4.392  1.00  0.00     0.021 A 
HETATM   40  C11 UNL     1      17.147  53.715   4.928  1.00  0.00     0.014 A 
HETATM   41 BR1  UNL     1      18.662  52.603   5.133  1.00  0.00    -0.051 Br
HETATM   42  C12 UNL     1      15.892  53.247   5.298  1.00  0.00     0.063 A 
HETATM   43  C13 UNL     1      14.780  54.074   5.142  1.00  0.00     0.144 A 
HETATM   44  F1  UNL     1      13.577  53.558   5.443  1.00  0.00    -0.204 F 
ENDBRANCH  35  37
ENDBRANCH   4  35
TORSDOF 10
ENDMDL
MODEL 5
REMARK minimizedAffinity -6.89302778
REMARK CNNscore 0.423373103
REMARK CNNaffinity 6.45256662
REMARK  10 active torsions:
REMARK  status: ('A' for Active; 'I' for Inactive)
REMARK    1  A    between atoms: C2_2  and  C3_3 
REMARK       I    between atoms: C3_3  and  N1_5 
REMARK    2  A    between atoms: N1_5  and  C4_6 
REMARK    3  A    between atoms: C7_9  and  N2_10 
REMARK    4  A    between atoms: N2_10  and  C8_11 
REMARK    5  A    between atoms: C17_26  and  O2_27 
REMARK    6  A    between atoms: O2_27  and  C18_28 
REMARK    7  A    between atoms: C18_28  and  C19_29 
REMARK    8  A    between atoms: C19_29  and  N5_30 
REMARK       I    between atoms: N5_30  and  C20_31 
REMARK    9  A    between atoms: C20_31  and  C21_33 
REMARK       I    between atoms: N6_37  and  C25_38 
REMARK   10  A    between atoms: C25_38  and  C26_40 
ROOT
HETATM    1  C4  UNL     1      13.067  58.701   1.489  1.00  0.00     0.069 A 
HETATM    2  C5  UNL     1      13.459  58.858   2.818  1.00  0.00     0.050 A 
HETATM    3  C6  UNL     1      13.868  57.745   3.594  1.00  0.00     0.037 A 
HETATM    4  C7  UNL     1      14.259  57.802   4.948  1.00  0.00     0.119 A 
HETATM    5  N3  UNL     1      14.630  56.702   5.630  1.00  0.00    -0.338 N 
ATOM      6  H3  UNL     1      14.894  56.747   6.614  1.00  0.00     0.168 HD
HETATM    7  C14 UNL     1      14.636  55.552   4.956  1.00  0.00     0.182 A 
HETATM    8  N4  UNL     1      14.281  55.383   3.678  1.00  0.00    -0.351 N 
ATOM      9  H4  UNL     1      14.298  54.464   3.236  1.00  0.00     0.166 HD
HETATM   10  C15 UNL     1      13.902  56.473   3.009  1.00  0.00     0.049 A 
HETATM   11  C16 UNL     1      13.526  56.332   1.676  1.00  0.00     0.069 A 
HETATM   12  C17 UNL     1      13.107  57.422   0.908  1.00  0.00     0.097 A 
ENDROOT
BRANCH  12  13
HETATM   13  O2  UNL     1      12.705  57.365  -0.407  1.00  0.00    -0.347 OA
BRANCH  13  14
HETATM   14  C18 UNL     1      13.086  56.233  -1.197  1.00  0.00     0.195 C 
BRANCH  14  15
HETATM   15  C19 UNL     1      11.876  55.638  -1.922  1.00  0.00     0.149 C 
BRANCH  15  16
HETATM   16  N5  UNL     1      11.854  54.189  -1.912  1.00  0.00    -0.357 N 
HETATM   17  C20 UNL     1      12.243  53.474  -3.030  1.00  0.00     0.240 C 
HETATM   18  O3  UNL     1      12.682  54.021  -4.040  1.00  0.00    -0.271 OA
HETATM   19  H16 UNL     1      11.239  53.729  -1.250  1.00  0.00     0.162 HD
BRANCH  17  20
HETATM   20  C21 UNL     1      12.124  51.944  -2.874  1.00  0.00     0.179 C 
HETATM   21  C22 UNL     1      13.339  51.384  -2.133  1.00  0.00     0.037 C 
HETATM   22  C23 UNL     1      14.329  51.076  -3.256  1.00  0.00     0.022 C 
HETATM   23  C24 UNL     1      13.435  50.616  -4.399  1.00  0.00     0.127 C 
HETATM   24  N6  UNL     1      12.167  51.289  -4.175  1.00  0.00    -0.339 N 
HETATM   25  C25 UNL     1      11.059  51.281  -4.991  1.00  0.00     0.220 C 
HETATM   26  O4  UNL     1      10.013  51.838  -4.657  1.00  0.00    -0.273 OA
BRANCH  25  27
HETATM   27  C26 UNL     1      11.215  50.549  -6.314  1.00  0.00     0.098 C 
HETATM   28  C27 UNL     1      11.415  51.500  -7.483  1.00  0.00     0.014 C 
ENDBRANCH  25  27
ENDBRANCH  17  20
ENDBRANCH  15  16
ENDBRANCH  14  15
ENDBRANCH  13  14
ENDBRANCH  12  13
BRANCH   1  29
HETATM   29  N1  UNL     1      12.624  59.767   0.676  1.00  0.00    -0.321 N 
HETATM   30  C3  UNL     1      12.746  61.115   0.908  1.00  0.00     0.245 C 
HETATM   31  O1  UNL     1      13.223  61.659   1.896  1.00  0.00    -0.268 OA
HETATM   32  H4  UNL     1      12.086  59.466  -0.129  1.00  0.00     0.169 HD
BRANCH  30  33
HETATM   33  C2  UNL     1      12.149  61.973  -0.155  1.00  0.00     0.064 C 
HETATM   34  C1  UNL     1      12.598  63.181  -0.520  1.00  0.00     0.017 C 
ENDBRANCH  30  33
ENDBRANCH   1  29
BRANCH   4  35
HETATM   35  N2  UNL     1      14.233  59.052   5.623  1.00  0.00    -0.339 N 
HETATM   36  H6  UNL     1      14.461  59.789   4.963  1.00  0.00     0.167 HD
BRANCH  35  37
HETATM   37  C8  UNL     1      13.285  59.464   6.588  1.00  0.00     0.072 A 
HETATM   38  C9  UNL     1      13.339  58.910   7.878  1.00  0.00     0.034 A 
HETATM   39  C10 UNL     1      12.416  59.281   8.861  1.00  0.00     0.021 A 
HETATM   40  C11 UNL     1      11.414  60.202   8.558  1.00  0.00     0.014 A 
HETATM   41 BR1  UNL     1      10.166  60.704   9.886  1.00  0.00    -0.051 Br
HETATM   42  C12 UNL     1      11.318  60.741   7.280  1.00  0.00     0.063 A 
HETATM   43  C13 UNL     1      12.242  60.364   6.307  1.00  0.00     0.144 A 
HETATM   44  F1  UNL     1      12.071  60.852   5.067  1.00  0.00    -0.204 F 
ENDBRANCH  35  37
ENDBRANCH   4  35
TORSDOF 10
ENDMDL
MODEL 6
REMARK minimizedAffinity -7.81465769
REMARK CNNscore 0.409109175
REMARK CNNaffinity 6.56936026
REMARK  10 active torsions:
REMARK  status: ('A' for Active; 'I' for Inactive)
REMARK    1  A    between atoms: C2_2  and  C3_3 
REMARK       I    between atoms: C3_3  and  N1_5 
REMARK    2  A    between atoms: N1_5  and  C4_6 
REMARK    3  A    between atoms: C7_9  and  N2_10 
REMARK    4  A    between atoms: N2_10  and  C8_11 
REMARK    5  A    between atoms: C17_26  and  O2_27 
REMARK    6  A    between atoms: O2_27  and  C18_28 
REMARK    7  A    between atoms: C18_28  and  C19_29 
REMARK    8  A    between atoms: C19_29  and  N5_30 
REMARK       I    between atoms: N5_30  and  C20_31 
REMARK    9  A    between atoms: C20_31  and  C21_33 
REMARK       I    between atoms: N6_37  and  C25_38 
REMARK   10  A    between atoms: C25_38  and  C26_40 
ROOT
HETATM    1  C4  UNL     1      13.012  59.315   4.887  1.00  0.00     0.069 A 
HETATM    2  C5  UNL     1      12.381  60.003   5.922  1.00  0.00     0.050 A 
HETATM    3  C6  UNL     1      12.111  61.391   5.817  1.00  0.00     0.037 A 
HETATM    4  C7  UNL     1      11.500  62.174   6.818  1.00  0.00     0.119 A 
HETATM    5  N3  UNL     1      11.279  63.491   6.656  1.00  0.00    -0.338 N 
ATOM      6  H3  UNL     1      10.853  64.056   7.390  1.00  0.00     0.168 HD
HETATM    7  C14 UNL     1      11.643  64.022   5.489  1.00  0.00     0.182 A 
HETATM    8  N4  UNL     1      12.232  63.376   4.477  1.00  0.00    -0.351 N 
ATOM      9  H4  UNL     1      12.495  63.858   3.618  1.00  0.00     0.166 HD
HETATM   10  C15 UNL     1      12.461  62.073   4.646  1.00  0.00     0.049 A 
HETATM   11  C16 UNL     1      13.074  61.371   3.612  1.00  0.00     0.069 A 
HETATM   12  C17 UNL     1      13.357  60.006   3.713  1.00  0.00     0.097 A 
ENDROOT
BRANCH  12  13
HETATM   13  O2  UNL     1      13.973  59.244   2.746  1.00  0.00    -0.347 OA
BRANCH  13  14
HETATM   14  C18 UNL     1      13.262  58.135   2.186  1.00  0.00     0.195 C 
BRANCH  14  15
HETATM   15  C19 UNL     1      13.048  58.324   0.681  1.00  0.00     0.149 C 
BRANCH  15  16
HETATM   16  N5  UNL     1      12.430  57.180   0.040  1.00  0.00    -0.357 N 
HETATM   17  C20 UNL     1      13.118  56.455  -0.915  1.00  0.00     0.240 C 
HETATM   18  O3  UNL     1      14.288  56.698  -1.209  1.00  0.00    -0.271 OA
HETATM   19  H16 UNL     1      11.417  57.136   0.025  1.00  0.00     0.162 HD
BRANCH  17  20
HETATM   20  C21 UNL     1      12.310  55.295  -1.531  1.00  0.00     0.179 C 
HETATM   21  C22 UNL     1      13.247  54.238  -2.115  1.00  0.00     0.037 C 
HETATM   22  C23 UNL     1      13.455  54.703  -3.555  1.00  0.00     0.022 C 
HETATM   23  C24 UNL     1      12.106  55.300  -3.933  1.00  0.00     0.127 C 
HETATM   24  N6  UNL     1      11.537  55.758  -2.677  1.00  0.00    -0.339 N 
HETATM   25  C25 UNL     1      10.368  56.460  -2.494  1.00  0.00     0.220 C 
HETATM   26  O4  UNL     1       9.954  56.734  -1.367  1.00  0.00    -0.273 OA
BRANCH  25  27
HETATM   27  C26 UNL     1       9.637  56.872  -3.761  1.00  0.00     0.098 C 
HETATM   28  C27 UNL     1       9.863  58.334  -4.113  1.00  0.00     0.014 C 
ENDBRANCH  25  27
ENDBRANCH  17  20
ENDBRANCH  15  16
ENDBRANCH  14  15
ENDBRANCH  13  14
ENDBRANCH  12  13
BRANCH   1  29
HETATM   29  N1  UNL     1      13.331  57.940   4.945  1.00  0.00    -0.321 N 
HETATM   30  C3  UNL     1      14.481  57.358   5.419  1.00  0.00     0.245 C 
HETATM   31  O1  UNL     1      15.482  57.924   5.841  1.00  0.00    -0.268 OA
HETATM   32  H4  UNL     1      12.639  57.345   4.504  1.00  0.00     0.169 HD
BRANCH  30  33
HETATM   33  C2  UNL     1      14.498  55.871   5.318  1.00  0.00     0.064 C 
HETATM   34  C1  UNL     1      13.959  55.155   4.323  1.00  0.00     0.017 C 
ENDBRANCH  30  33
ENDBRANCH   1  29
BRANCH   4  35
HETATM   35  N2  UNL     1      11.132  61.562   8.047  1.00  0.00    -0.339 N 
HETATM   36  H6  UNL     1      10.210  61.149   7.947  1.00  0.00     0.167 HD
BRANCH  35  37
HETATM   37  C8  UNL     1      11.976  60.806   8.892  1.00  0.00     0.072 A 
HETATM   38  C9  UNL     1      13.145  61.399   9.398  1.00  0.00     0.034 A 
HETATM   39  C10 UNL     1      14.014  60.685  10.230  1.00  0.00     0.021 A 
HETATM   40  C11 UNL     1      13.729  59.359  10.553  1.00  0.00     0.014 A 
HETATM   41 BR1  UNL     1      14.902  58.393  11.677  1.00  0.00    -0.051 Br
HETATM   42  C12 UNL     1      12.596  58.738  10.040  1.00  0.00     0.063 A 
HETATM   43  C13 UNL     1      11.737  59.457   9.211  1.00  0.00     0.144 A 
HETATM   44  F1  UNL     1      10.693  58.799   8.679  1.00  0.00    -0.204 F 
ENDBRANCH  35  37
ENDBRANCH   4  35
TORSDOF 10
ENDMDL
MODEL 7
REMARK minimizedAffinity -6.9652977
REMARK CNNscore 0.396357238
REMARK CNNaffinity 6.80988264
REMARK  10 active torsions:
REMARK  status: ('A' for Active; 'I' for Inactive)
REMARK    1  A    between atoms: C2_2  and  C3_3 
REMARK       I    between atoms: C3_3  and  N1_5 
REMARK    2  A    between atoms: N1_5  and  C4_6 
REMARK    3  A    between atoms: C7_9  and  N2_10 
REMARK    4  A    between atoms: N2_10  and  C8_11 
REMARK    5  A    between atoms: C17_26  and  O2_27 
REMARK    6  A    between atoms: O2_27  and  C18_28 
REMARK    7  A    between atoms: C18_28  and  C19_29 
REMARK    8  A    between atoms: C19_29  and  N5_30 
REMARK       I    between atoms: N5_30  and  C20_31 
REMARK    9  A    between atoms: C20_31  and  C21_33 
REMARK       I    between atoms: N6_37  and  C25_38 
REMARK   10  A    between atoms: C25_38  and  C26_40 
ROOT
HETATM    1  C4  UNL     1      14.079  56.822   1.471  1.00  0.00     0.069 A 
HETATM    2  C5  UNL     1      13.424  56.079   0.490  1.00  0.00     0.050 A 
HETATM    3  C6  UNL     1      12.704  56.719  -0.550  1.00  0.00     0.037 A 
HETATM    4  C7  UNL     1      11.994  56.053  -1.571  1.00  0.00     0.119 A 
HETATM    5  N3  UNL     1      11.324  56.724  -2.526  1.00  0.00    -0.338 N 
ATOM      6  H3  UNL     1      10.797  56.237  -3.251  1.00  0.00     0.168 HD
HETATM    7  C14 UNL     1      11.384  58.055  -2.480  1.00  0.00     0.182 A 
HETATM    8  N4  UNL     1      12.020  58.785  -1.558  1.00  0.00    -0.351 N 
ATOM      9  H4  UNL     1      12.006  59.804  -1.582  1.00  0.00     0.166 HD
HETATM   10  C15 UNL     1      12.673  58.117  -0.605  1.00  0.00     0.049 A 
HETATM   11  C16 UNL     1      13.346  58.848   0.369  1.00  0.00     0.069 A 
HETATM   12  C17 UNL     1      14.046  58.225   1.406  1.00  0.00     0.097 A 
ENDROOT
BRANCH  12  13
HETATM   13  O2  UNL     1      14.722  58.872   2.416  1.00  0.00    -0.347 OA
BRANCH  13  14
HETATM   14  C18 UNL     1      14.378  60.229   2.716  1.00  0.00     0.195 C 
BRANCH  14  15
HETATM   15  C19 UNL     1      12.877  60.367   2.991  1.00  0.00     0.149 C 
BRANCH  15  16
HETATM   16  N5  UNL     1      12.578  61.133   4.184  1.00  0.00    -0.357 N 
HETATM   17  C20 UNL     1      12.459  60.504   5.409  1.00  0.00     0.240 C 
HETATM   18  O3  UNL     1      12.665  59.300   5.554  1.00  0.00    -0.271 OA
HETATM   19  H16 UNL     1      12.118  62.029   4.068  1.00  0.00     0.162 HD
BRANCH  17  20
HETATM   20  C21 UNL     1      12.098  61.451   6.573  1.00  0.00     0.179 C 
HETATM   21  C22 UNL     1      13.065  62.634   6.621  1.00  0.00     0.037 C 
HETATM   22  C23 UNL     1      14.190  62.138   7.529  1.00  0.00     0.022 C 
HETATM   23  C24 UNL     1      13.464  61.273   8.550  1.00  0.00     0.127 C 
HETATM   24  N6  UNL     1      12.285  60.785   7.855  1.00  0.00    -0.339 N 
HETATM   25  C25 UNL     1      11.356  59.882   8.317  1.00  0.00     0.220 C 
HETATM   26  O4  UNL     1      10.355  59.597   7.656  1.00  0.00    -0.273 OA
BRANCH  25  27
HETATM   27  C26 UNL     1      11.645  59.267   9.676  1.00  0.00     0.098 C 
HETATM   28  C27 UNL     1      12.684  58.159   9.602  1.00  0.00     0.014 C 
ENDBRANCH  25  27
ENDBRANCH  17  20
ENDBRANCH  15  16
ENDBRANCH  14  15
ENDBRANCH  13  14
ENDBRANCH  12  13
BRANCH   1  29
HETATM   29  N1  UNL     1      14.788  56.240   2.546  1.00  0.00    -0.321 N 
HETATM   30  C3  UNL     1      14.283  55.742   3.721  1.00  0.00     0.245 C 
HETATM   31  O1  UNL     1      13.115  55.751   4.092  1.00  0.00    -0.268 OA
HETATM   32  H4  UNL     1      15.795  56.282   2.436  1.00  0.00     0.169 HD
BRANCH  30  33
HETATM   33  C2  UNL     1      15.318  55.212   4.654  1.00  0.00     0.064 C 
HETATM   34  C1  UNL     1      16.590  54.943   4.329  1.00  0.00     0.017 C 
ENDBRANCH  30  33
ENDBRANCH   1  29
BRANCH   4  35
HETATM   35  N2  UNL     1      11.958  54.633  -1.576  1.00  0.00    -0.339 N 
HETATM   36  H6  UNL     1      11.007  54.327  -1.754  1.00  0.00     0.167 HD
BRANCH  35  37
HETATM   37  C8  UNL     1      12.921  53.772  -2.152  1.00  0.00     0.072 A 
HETATM   38  C9  UNL     1      14.102  54.323  -2.677  1.00  0.00     0.034 A 
HETATM   39  C10 UNL     1      15.077  53.509  -3.264  1.00  0.00     0.021 A 
HETATM   40  C11 UNL     1      14.872  52.133  -3.348  1.00  0.00     0.014 A 
HETATM   41 BR1  UNL     1      16.189  51.034  -4.143  1.00  0.00    -0.051 Br
HETATM   42  C12 UNL     1      13.698  51.566  -2.866  1.00  0.00     0.063 A 
HETATM   43  C13 UNL     1      12.731  52.385  -2.284  1.00  0.00     0.144 A 
HETATM   44  F1  UNL     1      11.582  51.808  -1.897  1.00  0.00    -0.204 F 
ENDBRANCH  35  37
ENDBRANCH   4  35
TORSDOF 10
ENDMDL
MODEL 8
REMARK minimizedAffinity -7.18324089
REMARK CNNscore 0.360444903
REMARK CNNaffinity 6.17957354
REMARK  10 active torsions:
REMARK  status: ('A' for Active; 'I' for Inactive)
REMARK    1  A    between atoms: C2_2  and  C3_3 
REMARK       I    between atoms: C3_3  and  N1_5 
REMARK    2  A    between atoms: N1_5  and  C4_6 
REMARK    3  A    between atoms: C7_9  and  N2_10 
REMARK    4  A    between atoms: N2_10  and  C8_11 
REMARK    5  A    between atoms: C17_26  and  O2_27 
REMARK    6  A    between atoms: O2_27  and  C18_28 
REMARK    7  A    between atoms: C18_28  and  C19_29 
REMARK    8  A    between atoms: C19_29  and  N5_30 
REMARK       I    between atoms: N5_30  and  C20_31 
REMARK    9  A    between atoms: C20_31  and  C21_33 
REMARK       I    between atoms: N6_37  and  C25_38 
REMARK   10  A    between atoms: C25_38  and  C26_40 
ROOT
HETATM    1  C4  UNL     1      13.212  56.909  -0.086  1.00  0.00     0.069 A 
HETATM    2  C5  UNL     1      13.219  56.749   1.299  1.00  0.00     0.050 A 
HETATM    3  C6  UNL     1      13.283  57.871   2.162  1.00  0.00     0.037 A 
HETATM    4  C7  UNL     1      13.318  57.807   3.571  1.00  0.00     0.119 A 
HETATM    5  N3  UNL     1      13.386  58.914   4.333  1.00  0.00    -0.338 N 
ATOM      6  H3  UNL     1      13.430  58.861   5.350  1.00  0.00     0.168 HD
HETATM    7  C14 UNL     1      13.393  60.084   3.693  1.00  0.00     0.182 A 
HETATM    8  N4  UNL     1      13.369  60.259   2.368  1.00  0.00    -0.351 N 
ATOM      9  H4  UNL     1      13.392  61.190   1.952  1.00  0.00     0.166 HD
HETATM   10  C15 UNL     1      13.314  59.159   1.615  1.00  0.00     0.049 A 
HETATM   11  C16 UNL     1      13.287  59.307   0.231  1.00  0.00     0.069 A 
HETATM   12  C17 UNL     1      13.239  58.206  -0.628  1.00  0.00     0.097 A 
ENDROOT
BRANCH  12  13
HETATM   13  O2  UNL     1      13.227  58.265  -2.002  1.00  0.00    -0.347 OA
BRANCH  13  14
HETATM   14  C18 UNL     1      12.460  59.292  -2.642  1.00  0.00     0.195 C 
BRANCH  14  15
HETATM   15  C19 UNL     1      11.247  58.700  -3.366  1.00  0.00     0.149 C 
BRANCH  15  16
HETATM   16  N5  UNL     1      10.843  59.463  -4.530  1.00  0.00    -0.357 N 
HETATM   17  C20 UNL     1       9.594  59.277  -5.091  1.00  0.00     0.240 C 
HETATM   18  O3  UNL     1       8.757  58.522  -4.599  1.00  0.00    -0.271 OA
HETATM   19  H16 UNL     1      11.573  59.846  -5.121  1.00  0.00     0.162 HD
BRANCH  17  20
HETATM   20  C21 UNL     1       9.331  60.133  -6.347  1.00  0.00     0.179 C 
HETATM   21  C22 UNL     1      10.646  60.475  -7.048  1.00  0.00     0.037 C 
HETATM   22  C23 UNL     1      11.072  61.785  -6.388  1.00  0.00     0.022 C 
HETATM   23  C24 UNL     1       9.750  62.496  -6.130  1.00  0.00     0.127 C 
HETATM   24  N6  UNL     1       8.776  61.429  -5.980  1.00  0.00    -0.339 N 
HETATM   25  C25 UNL     1       7.450  61.550  -5.635  1.00  0.00     0.220 C 
HETATM   26  O4  UNL     1       6.703  60.570  -5.608  1.00  0.00    -0.273 OA
BRANCH  25  27
HETATM   27  C26 UNL     1       6.977  62.953  -5.292  1.00  0.00     0.098 C 
HETATM   28  C27 UNL     1       6.700  63.790  -6.530  1.00  0.00     0.014 C 
ENDBRANCH  25  27
ENDBRANCH  17  20
ENDBRANCH  15  16
ENDBRANCH  14  15
ENDBRANCH  13  14
ENDBRANCH  12  13
BRANCH   1  29
HETATM   29  N1  UNL     1      13.177  55.829  -0.996  1.00  0.00    -0.321 N 
HETATM   30  C3  UNL     1      12.102  55.354  -1.704  1.00  0.00     0.245 C 
HETATM   31  O1  UNL     1      10.943  55.746  -1.648  1.00  0.00    -0.268 OA
HETATM   32  H4  UNL     1      14.051  55.316  -1.048  1.00  0.00     0.169 HD
BRANCH  30  33
HETATM   33  C2  UNL     1      12.411  54.179  -2.568  1.00  0.00     0.064 C 
HETATM   34  C1  UNL     1      13.215  53.161  -2.234  1.00  0.00     0.017 C 
ENDBRANCH  30  33
ENDBRANCH   1  29
BRANCH   4  35
HETATM   35  N2  UNL     1      13.311  56.536   4.206  1.00  0.00    -0.339 N 
HETATM   36  H6  UNL     1      12.480  56.029   3.920  1.00  0.00     0.167 HD
BRANCH  35  37
HETATM   37  C8  UNL     1      14.426  55.687   4.394  1.00  0.00     0.072 A 
HETATM   38  C9  UNL     1      14.229  54.418   4.965  1.00  0.00     0.034 A 
HETATM   39  C10 UNL     1      15.305  53.549   5.178  1.00  0.00     0.021 A 
HETATM   40  C11 UNL     1      16.596  53.950   4.837  1.00  0.00     0.014 A 
HETATM   41 BR1  UNL     1      18.050  52.776   5.125  1.00  0.00    -0.051 Br
HETATM   42  C12 UNL     1      16.823  55.212   4.301  1.00  0.00     0.063 A 
HETATM   43  C13 UNL     1      15.745  56.072   4.094  1.00  0.00     0.144 A 
HETATM   44  F1  UNL     1      16.015  57.307   3.643  1.00  0.00    -0.204 F 
ENDBRANCH  35  37
ENDBRANCH   4  35
TORSDOF 10
ENDMDL
MODEL 9
REMARK minimizedAffinity -7.24734259
REMARK CNNscore 0.318864077
REMARK CNNaffinity 6.41895485
REMARK  10 active torsions:
REMARK  status: ('A' for Active; 'I' for Inactive)
REMARK    1  A    between atoms: C2_2  and  C3_3 
REMARK       I    between atoms: C3_3  and  N1_5 
REMARK    2  A    between atoms: N1_5  and  C4_6 
REMARK    3  A    between atoms: C7_9  and  N2_10 
REMARK    4  A    between atoms: N2_10  and  C8_11 
REMARK    5  A    between atoms: C17_26  and  O2_27 
REMARK    6  A    between atoms: O2_27  and  C18_28 
REMARK    7  A    between atoms: C18_28  and  C19_29 
REMARK    8  A    between atoms: C19_29  and  N5_30 
REMARK       I    between atoms: N5_30  and  C20_31 
REMARK    9  A    between atoms: C20_31  and  C21_33 
REMARK       I    between atoms: N6_37  and  C25_38 
REMARK   10  A    between atoms: C25_38  and  C26_40 
ROOT
HETATM    1  C4  UNL     1      13.102  59.382   4.663  1.00  0.00     0.069 A 
HETATM    2  C5  UNL     1      12.400  60.028   5.680  1.00  0.00     0.050 A 
HETATM    3  C6  UNL     1      12.158  61.424   5.626  1.00  0.00     0.037 A 
HETATM    4  C7  UNL     1      11.480  62.166   6.616  1.00  0.00     0.119 A 
HETATM    5  N3  UNL     1      11.290  63.494   6.505  1.00  0.00    -0.338 N 
ATOM      6  H3  UNL     1      10.815  64.028   7.232  1.00  0.00     0.168 HD
HETATM    7  C14 UNL     1      11.751  64.076   5.398  1.00  0.00     0.182 A 
HETATM    8  N4  UNL     1      12.409  63.472   4.404  1.00  0.00    -0.351 N 
ATOM      9  H4  UNL     1      12.745  63.991   3.593  1.00  0.00     0.166 HD
HETATM   10  C15 UNL     1      12.607  62.158   4.522  1.00  0.00     0.049 A 
HETATM   11  C16 UNL     1      13.289  61.498   3.504  1.00  0.00     0.069 A 
HETATM   12  C17 UNL     1      13.546  60.126   3.556  1.00  0.00     0.097 A 
ENDROOT
BRANCH  12  13
HETATM   13  O2  UNL     1      14.226  59.403   2.603  1.00  0.00    -0.347 OA
BRANCH  13  14
HETATM   14  C18 UNL     1      13.853  59.553   1.228  1.00  0.00     0.195 C 
BRANCH  14  15
HETATM   15  C19 UNL     1      12.970  58.389   0.769  1.00  0.00     0.149 C 
BRANCH  15  16
HETATM   16  N5  UNL     1      12.998  58.177  -0.665  1.00  0.00    -0.357 N 
HETATM   17  C20 UNL     1      12.077  57.341  -1.267  1.00  0.00     0.240 C 
HETATM   18  O3  UNL     1      11.166  56.803  -0.639  1.00  0.00    -0.271 OA
HETATM   19  H16 UNL     1      13.872  58.343  -1.151  1.00  0.00     0.162 HD
BRANCH  17  20
HETATM   20  C21 UNL     1      12.264  57.188  -2.791  1.00  0.00     0.179 C 
HETATM   21  C22 UNL     1      11.301  58.107  -3.544  1.00  0.00     0.037 C 
HETATM   22  C23 UNL     1      10.055  57.242  -3.729  1.00  0.00     0.022 C 
HETATM   23  C24 UNL     1      10.623  55.844  -3.934  1.00  0.00     0.127 C 
HETATM   24  N6  UNL     1      11.890  55.848  -3.224  1.00  0.00    -0.339 N 
HETATM   25  C25 UNL     1      12.741  54.786  -3.024  1.00  0.00     0.220 C 
HETATM   26  O4  UNL     1      13.827  54.931  -2.461  1.00  0.00    -0.273 OA
BRANCH  25  27
HETATM   27  C26 UNL     1      12.255  53.440  -3.537  1.00  0.00     0.098 C 
HETATM   28  C27 UNL     1      12.289  52.364  -2.464  1.00  0.00     0.014 C 
ENDBRANCH  25  27
ENDBRANCH  17  20
ENDBRANCH  15  16
ENDBRANCH  14  15
ENDBRANCH  13  14
ENDBRANCH  12  13
BRANCH   1  29
HETATM   29  N1  UNL     1      13.397  58.001   4.676  1.00  0.00    -0.321 N 
HETATM   30  C3  UNL     1      14.424  57.362   5.325  1.00  0.00     0.245 C 
HETATM   31  O1  UNL     1      15.319  57.874   5.985  1.00  0.00    -0.268 OA
HETATM   32  H4  UNL     1      12.807  57.455   4.057  1.00  0.00     0.169 HD
BRANCH  30  33
HETATM   33  C2  UNL     1      14.455  55.886   5.111  1.00  0.00     0.064 C 
HETATM   34  C1  UNL     1      14.930  55.271   4.021  1.00  0.00     0.017 C 
ENDBRANCH  30  33
ENDBRANCH   1  29
BRANCH   4  35
HETATM   35  N2  UNL     1      11.009  61.500   7.780  1.00  0.00    -0.339 N 
HETATM   36  H6  UNL     1      10.111  61.073   7.575  1.00  0.00     0.167 HD
BRANCH  35  37
HETATM   37  C8  UNL     1      11.785  60.728   8.675  1.00  0.00     0.072 A 
HETATM   38  C9  UNL     1      12.950  61.288   9.226  1.00  0.00     0.034 A 
HETATM   39  C10 UNL     1      13.752  60.557  10.109  1.00  0.00     0.021 A 
HETATM   40  C11 UNL     1      13.404  59.248  10.438  1.00  0.00     0.014 A 
HETATM   41 BR1  UNL     1      14.488  58.259  11.631  1.00  0.00    -0.051 Br
HETATM   42  C12 UNL     1      12.275  58.659   9.882  1.00  0.00     0.063 A 
HETATM   43  C13 UNL     1      11.482  59.394   9.002  1.00  0.00     0.144 A 
HETATM   44  F1  UNL     1      10.441  58.765   8.432  1.00  0.00    -0.204 F 
ENDBRANCH  35  37
ENDBRANCH   4  35
TORSDOF 10
ENDMDL
