MODEL 1
REMARK minimizedAffinity -9.23558712
REMARK  8 active torsions:
REMARK  status: ('A' for Active; 'I' for Inactive)
REMARK    1  A    between atoms: C2_2  and  C3_3 
REMARK       I    between atoms: C3_3  and  N1_5 
REMARK    2  A    between atoms: N1_5  and  C4_6 
REMARK    3  A    between atoms: C8_10  and  C9_11 
REMARK    4  A    between atoms: C14_21  and  N4_22 
REMARK    5  A    between atoms: N4_22  and  C15_23 
REMARK    6  A    between atoms: C15_23  and  C16_24 
REMARK    7  A    between atoms: C15_23  and  C17_26 
REMARK    8  A    between atoms: C16_24  and  O3_25 
ROOT
HETATM    1  C9  UNL     1      -5.893   3.959  12.703  1.00  0.00     0.021 A 
HETATM    2  C10 UNL     1      -6.743   2.907  12.411  1.00  0.00     0.063 A 
HETATM    3  C11 UNL     1      -8.193   2.673  12.586  1.00  0.00     0.077 C 
HETATM    4  O2  UNL     1      -6.041   1.879  11.853  1.00  0.00    -0.297 OA
HETATM    5  C12 UNL     1      -4.733   2.255  11.799  1.00  0.00     0.163 A 
HETATM    6  N2  UNL     1      -3.768   1.455  11.326  1.00  0.00    -0.332 N 
ATOM      7  H2  UNL     1      -3.926   0.518  10.956  1.00  0.00     0.168 HD
HETATM    8  C13 UNL     1      -2.570   2.045  11.402  1.00  0.00     0.183 A 
HETATM    9  N3  UNL     1      -2.280   3.279  11.860  1.00  0.00    -0.342 N 
ATOM     10  H3  UNL     1      -1.316   3.613  11.872  1.00  0.00     0.167 HD
HETATM   11  C14 UNL     1      -3.285   4.068  12.303  1.00  0.00     0.097 A 
HETATM   12  C23 UNL     1      -4.586   3.538  12.301  1.00  0.00     0.067 A 
ENDROOT
BRANCH   1  13
HETATM   13  C8  UNL     1      -6.308   5.201  13.330  1.00  0.00    -0.020 A 
HETATM   14  C7  UNL     1      -5.370   6.168  13.696  1.00  0.00     0.012 A 
HETATM   15  C6  UNL     1      -5.783   7.311  14.379  1.00  0.00     0.003 A 
HETATM   16  C5  UNL     1      -7.129   7.488  14.715  1.00  0.00     0.029 A 
HETATM   17  C4  UNL     1      -8.079   6.531  14.358  1.00  0.00     0.035 A 
HETATM   18  C24 UNL     1      -7.661   5.402  13.642  1.00  0.00     0.042 A 
BRANCH  17  19
HETATM   19  N1  UNL     1      -9.444   6.601  14.700  1.00  0.00    -0.324 N 
HETATM   20  C3  UNL     1     -10.504   6.871  13.865  1.00  0.00     0.244 C 
HETATM   21  O1  UNL     1     -10.480   7.006  12.648  1.00  0.00    -0.268 OA
HETATM   22  H4  UNL     1      -9.666   6.437  15.673  1.00  0.00     0.169 HD
BRANCH  20  23
HETATM   23  C2  UNL     1     -11.820   6.947  14.558  1.00  0.00     0.064 C 
HETATM   24  C1  UNL     1     -12.917   6.252  14.223  1.00  0.00     0.017 C 
ENDBRANCH  20  23
ENDBRANCH  17  19
ENDBRANCH   1  13
BRANCH  11  25
HETATM   25  N4  UNL     1      -3.018   5.347  12.782  1.00  0.00    -0.267 NA
HETATM   26  H12 UNL     1      -3.413   6.057  12.167  1.00  0.00     0.130 HD
BRANCH  25  27
HETATM   27  C15 UNL     1      -1.649   5.667  13.211  1.00  0.00     0.118 C 
BRANCH  27  28
HETATM   28  C16 UNL     1      -1.681   6.284  14.634  1.00  0.00     0.188 C 
BRANCH  28  29
HETATM   29  O3  UNL     1      -0.584   5.809  15.432  1.00  0.00    -0.399 OA
HETATM   30  H16 UNL     1       0.160   5.805  14.797  1.00  0.00     0.209 HD
ENDBRANCH  28  29
ENDBRANCH  27  28
BRANCH  27  31
HETATM   31  C17 UNL     1      -1.054   6.621  12.178  1.00  0.00    -0.038 A 
HETATM   32  C18 UNL     1      -1.329   7.995  12.255  1.00  0.00     0.009 A 
HETATM   33  C19 UNL     1      -0.760   8.889  11.345  1.00  0.00     0.001 A 
HETATM   34  C20 UNL     1       0.097   8.424  10.351  1.00  0.00     0.000 A 
HETATM   35  C21 UNL     1       0.387   7.065  10.264  1.00  0.00     0.001 A 
HETATM   36  C22 UNL     1      -0.185   6.170  11.168  1.00  0.00     0.009 A 
ENDBRANCH  27  31
ENDBRANCH  25  27
ENDBRANCH  11  25
TORSDOF 8
ENDMDL
MODEL 2
REMARK minimizedAffinity -9.1856432
REMARK  8 active torsions:
REMARK  status: ('A' for Active; 'I' for Inactive)
REMARK    1  A    between atoms: C2_2  and  C3_3 
REMARK       I    between atoms: C3_3  and  N1_5 
REMARK    2  A    between atoms: N1_5  and  C4_6 
REMARK    3  A    between atoms: C8_10  and  C9_11 
REMARK    4  A    between atoms: C14_21  and  N4_22 
REMARK    5  A    between atoms: N4_22  and  C15_23 
REMARK    6  A    between atoms: C15_23  and  C16_24 
REMARK    7  A    between atoms: C15_23  and  C17_26 
REMARK    8  A    between atoms: C16_24  and  O3_25 
ROOT
HETATM    1  C9  UNL     1      -4.215   4.378  12.395  1.00  0.00     0.021 A 
HETATM    2  C10 UNL     1      -5.231   3.451  12.242  1.00  0.00     0.063 A 
HETATM    3  C11 UNL     1      -6.686   3.461  12.505  1.00  0.00     0.077 C 
HETATM    4  O2  UNL     1      -4.727   2.281  11.753  1.00  0.00    -0.297 OA
HETATM    5  C12 UNL     1      -3.382   2.442  11.604  1.00  0.00     0.163 A 
HETATM    6  N2  UNL     1      -2.580   1.464  11.164  1.00  0.00    -0.332 N 
ATOM      7  H2  UNL     1      -2.900   0.535  10.891  1.00  0.00     0.168 HD
HETATM    8  C13 UNL     1      -1.305   1.864  11.129  1.00  0.00     0.183 A 
HETATM    9  N3  UNL     1      -0.803   3.073  11.455  1.00  0.00    -0.342 N 
ATOM     10  H3  UNL     1       0.199   3.251  11.392  1.00  0.00     0.167 HD
HETATM   11  C14 UNL     1      -1.649   4.044  11.868  1.00  0.00     0.097 A 
HETATM   12  C23 UNL     1      -3.013   3.725  11.976  1.00  0.00     0.067 A 
ENDROOT
BRANCH   1  13
HETATM   13  C8  UNL     1      -4.399   5.719  12.921  1.00  0.00    -0.020 A 
HETATM   14  C7  UNL     1      -3.349   6.638  12.924  1.00  0.00     0.012 A 
HETATM   15  C6  UNL     1      -3.523   7.888  13.516  1.00  0.00     0.003 A 
HETATM   16  C5  UNL     1      -4.738   8.221  14.125  1.00  0.00     0.029 A 
HETATM   17  C4  UNL     1      -5.797   7.313  14.132  1.00  0.00     0.035 A 
HETATM   18  C24 UNL     1      -5.625   6.073  13.504  1.00  0.00     0.042 A 
BRANCH  17  19
HETATM   19  N1  UNL     1      -7.035   7.542  14.766  1.00  0.00    -0.324 N 
HETATM   20  C3  UNL     1      -7.516   6.941  15.906  1.00  0.00     0.244 C 
HETATM   21  O1  UNL     1      -6.927   6.164  16.646  1.00  0.00    -0.268 OA
HETATM   22  H4  UNL     1      -7.637   8.226  14.326  1.00  0.00     0.169 HD
BRANCH  20  23
HETATM   23  C2  UNL     1      -8.900   7.353  16.272  1.00  0.00     0.064 C 
HETATM   24  C1  UNL     1      -9.501   8.489  15.888  1.00  0.00     0.017 C 
ENDBRANCH  20  23
ENDBRANCH  17  19
ENDBRANCH   1  13
BRANCH  11  25
HETATM   25  N4  UNL     1      -1.164   5.301  12.212  1.00  0.00    -0.267 NA
HETATM   26  H12 UNL     1      -1.529   6.018  11.586  1.00  0.00     0.130 HD
BRANCH  25  27
HETATM   27  C15 UNL     1       0.275   5.455  12.469  1.00  0.00     0.118 C 
BRANCH  27  28
HETATM   28  C16 UNL     1       0.490   6.415  13.668  1.00  0.00     0.188 C 
BRANCH  28  29
HETATM   29  O3  UNL     1       1.698   6.099  14.379  1.00  0.00    -0.399 OA
HETATM   30  H16 UNL     1       2.326   5.891  13.658  1.00  0.00     0.209 HD
ENDBRANCH  28  29
ENDBRANCH  27  28
BRANCH  27  31
HETATM   31  C17 UNL     1       0.919   5.975  11.186  1.00  0.00    -0.038 A 
HETATM   32  C18 UNL     1       0.341   7.057  10.502  1.00  0.00     0.009 A 
HETATM   33  C19 UNL     1       0.938   7.574   9.351  1.00  0.00     0.001 A 
HETATM   34  C20 UNL     1       2.125   7.024   8.871  1.00  0.00     0.000 A 
HETATM   35  C21 UNL     1       2.715   5.956   9.540  1.00  0.00     0.001 A 
HETATM   36  C22 UNL     1       2.117   5.434  10.688  1.00  0.00     0.009 A 
ENDBRANCH  27  31
ENDBRANCH  25  27
ENDBRANCH  11  25
TORSDOF 8
ENDMDL
MODEL 3
REMARK minimizedAffinity -9.02777481
REMARK  8 active torsions:
REMARK  status: ('A' for Active; 'I' for Inactive)
REMARK    1  A    between atoms: C2_2  and  C3_3 
REMARK       I    between atoms: C3_3  and  N1_5 
REMARK    2  A    between atoms: N1_5  and  C4_6 
REMARK    3  A    between atoms: C8_10  and  C9_11 
REMARK    4  A    between atoms: C14_21  and  N4_22 
REMARK    5  A    between atoms: N4_22  and  C15_23 
REMARK    6  A    between atoms: C15_23  and  C16_24 
REMARK    7  A    between atoms: C15_23  and  C17_26 
REMARK    8  A    between atoms: C16_24  and  O3_25 
ROOT
HETATM    1  C9  UNL     1      -2.306   4.236  12.141  1.00  0.00     0.021 A 
HETATM    2  C10 UNL     1      -2.219   2.923  11.713  1.00  0.00     0.063 A 
HETATM    3  C11 UNL     1      -1.112   2.064  11.240  1.00  0.00     0.077 C 
HETATM    4  O2  UNL     1      -3.452   2.340  11.737  1.00  0.00    -0.297 OA
HETATM    5  C12 UNL     1      -4.343   3.277  12.163  1.00  0.00     0.163 A 
HETATM    6  N2  UNL     1      -5.655   3.032  12.274  1.00  0.00    -0.332 N 
ATOM      7  H2  UNL     1      -6.094   2.135  12.068  1.00  0.00     0.168 HD
HETATM    8  C13 UNL     1      -6.317   4.118  12.688  1.00  0.00     0.183 A 
HETATM    9  N3  UNL     1      -5.814   5.331  12.995  1.00  0.00    -0.342 N 
ATOM     10  H3  UNL     1      -6.431   6.085  13.296  1.00  0.00     0.167 HD
HETATM   11  C14 UNL     1      -4.480   5.531  12.899  1.00  0.00     0.097 A 
HETATM   12  C23 UNL     1      -3.687   4.467  12.439  1.00  0.00     0.067 A 
ENDROOT
BRANCH   1  13
HETATM   13  C8  UNL     1      -1.184   5.154  12.212  1.00  0.00    -0.020 A 
HETATM   14  C7  UNL     1      -0.695   5.595  13.442  1.00  0.00     0.012 A 
HETATM   15  C6  UNL     1       0.324   6.547  13.482  1.00  0.00     0.003 A 
HETATM   16  C5  UNL     1       0.846   7.076  12.298  1.00  0.00     0.029 A 
HETATM   17  C4  UNL     1       0.367   6.647  11.060  1.00  0.00     0.035 A 
HETATM   18  C24 UNL     1      -0.632   5.666  11.028  1.00  0.00     0.042 A 
BRANCH  17  19
HETATM   19  N1  UNL     1       0.797   7.162   9.820  1.00  0.00    -0.324 N 
HETATM   20  C3  UNL     1       1.792   6.668   9.009  1.00  0.00     0.244 C 
HETATM   21  O1  UNL     1       2.431   5.633   9.154  1.00  0.00    -0.268 OA
HETATM   22  H4  UNL     1       0.319   7.992   9.496  1.00  0.00     0.169 HD
BRANCH  20  23
HETATM   23  C2  UNL     1       2.052   7.494   7.796  1.00  0.00     0.064 C 
HETATM   24  C1  UNL     1       1.769   7.135   6.535  1.00  0.00     0.017 C 
ENDBRANCH  20  23
ENDBRANCH  17  19
ENDBRANCH   1  13
BRANCH  11  25
HETATM   25  N4  UNL     1      -3.930   6.771  13.208  1.00  0.00    -0.267 NA
HETATM   26  H12 UNL     1      -3.011   6.879  12.780  1.00  0.00     0.130 HD
BRANCH  25  27
HETATM   27  C15 UNL     1      -3.961   7.227  14.605  1.00  0.00     0.118 C 
BRANCH  27  28
HETATM   28  C16 UNL     1      -3.173   6.231  15.495  1.00  0.00     0.188 C 
BRANCH  28  29
HETATM   29  O3  UNL     1      -2.615   6.888  16.645  1.00  0.00    -0.399 OA
HETATM   30  H16 UNL     1      -3.331   7.497  16.916  1.00  0.00     0.209 HD
ENDBRANCH  28  29
ENDBRANCH  27  28
BRANCH  27  31
HETATM   31  C17 UNL     1      -5.425   7.344  15.019  1.00  0.00    -0.038 A 
HETATM   32  C18 UNL     1      -5.988   6.383  15.875  1.00  0.00     0.009 A 
HETATM   33  C19 UNL     1      -7.314   6.495  16.300  1.00  0.00     0.001 A 
HETATM   34  C20 UNL     1      -8.093   7.571  15.883  1.00  0.00     0.000 A 
HETATM   35  C21 UNL     1      -7.550   8.536  15.040  1.00  0.00     0.001 A 
HETATM   36  C22 UNL     1      -6.227   8.423  14.609  1.00  0.00     0.009 A 
ENDBRANCH  27  31
ENDBRANCH  25  27
ENDBRANCH  11  25
TORSDOF 8
ENDMDL
MODEL 4
REMARK minimizedAffinity -8.9574976
REMARK  8 active torsions:
REMARK  status: ('A' for Active; 'I' for Inactive)
REMARK    1  A    between atoms: C2_2  and  C3_3 
REMARK       I    between atoms: C3_3  and  N1_5 
REMARK    2  A    between atoms: N1_5  and  C4_6 
REMARK    3  A    between atoms: C8_10  and  C9_11 
REMARK    4  A    between atoms: C14_21  and  N4_22 
REMARK    5  A    between atoms: N4_22  and  C15_23 
REMARK    6  A    between atoms: C15_23  and  C16_24 
REMARK    7  A    between atoms: C15_23  and  C17_26 
REMARK    8  A    between atoms: C16_24  and  O3_25 
ROOT
HETATM    1  C9  UNL     1      -3.211   4.000  12.045  1.00  0.00     0.021 A 
HETATM    2  C10 UNL     1      -2.099   3.327  11.572  1.00  0.00     0.063 A 
HETATM    3  C11 UNL     1      -1.861   1.963  11.052  1.00  0.00     0.077 C 
HETATM    4  O2  UNL     1      -1.002   4.137  11.632  1.00  0.00    -0.297 OA
HETATM    5  C12 UNL     1      -1.397   5.329  12.160  1.00  0.00     0.163 A 
HETATM    6  N2  UNL     1      -0.548   6.341  12.378  1.00  0.00    -0.332 N 
ATOM      7  H2  UNL     1       0.447   6.317  12.158  1.00  0.00     0.168 HD
HETATM    8  C13 UNL     1      -1.175   7.389  12.922  1.00  0.00     0.183 A 
HETATM    9  N3  UNL     1      -2.484   7.508  13.228  1.00  0.00    -0.342 N 
ATOM     10  H3  UNL     1      -2.841   8.365  13.650  1.00  0.00     0.167 HD
HETATM   11  C14 UNL     1      -3.315   6.473  12.965  1.00  0.00     0.097 A 
HETATM   12  C23 UNL     1      -2.757   5.304  12.423  1.00  0.00     0.067 A 
ENDROOT
BRANCH   1  13
HETATM   13  C8  UNL     1      -4.539   3.423  12.146  1.00  0.00    -0.020 A 
HETATM   14  C7  UNL     1      -4.816   2.163  11.612  1.00  0.00     0.012 A 
HETATM   15  C6  UNL     1      -6.120   1.670  11.641  1.00  0.00     0.003 A 
HETATM   16  C5  UNL     1      -7.156   2.436  12.185  1.00  0.00     0.029 A 
HETATM   17  C4  UNL     1      -6.896   3.697  12.721  1.00  0.00     0.035 A 
HETATM   18  C24 UNL     1      -5.578   4.171  12.719  1.00  0.00     0.042 A 
BRANCH  17  19
HETATM   19  N1  UNL     1      -7.884   4.557  13.241  1.00  0.00    -0.324 N 
HETATM   20  C3  UNL     1      -8.642   5.475  12.551  1.00  0.00     0.244 C 
HETATM   21  O1  UNL     1      -8.677   5.656  11.341  1.00  0.00    -0.268 OA
HETATM   22  H4  UNL     1      -8.050   4.491  14.237  1.00  0.00     0.169 HD
BRANCH  20  23
HETATM   23  C2  UNL     1      -9.549   6.285  13.413  1.00  0.00     0.064 C 
HETATM   24  C1  UNL     1     -10.607   6.987  12.984  1.00  0.00     0.017 C 
ENDBRANCH  20  23
ENDBRANCH  17  19
ENDBRANCH   1  13
BRANCH  11  25
HETATM   25  N4  UNL     1      -4.669   6.564  13.269  1.00  0.00    -0.267 NA
HETATM   26  H12 UNL     1      -5.234   6.093  12.563  1.00  0.00     0.130 HD
BRANCH  25  27
HETATM   27  C15 UNL     1      -5.220   7.872  13.652  1.00  0.00     0.118 C 
BRANCH  27  28
HETATM   28  C16 UNL     1      -4.080   8.779  14.187  1.00  0.00     0.188 C 
BRANCH  28  29
HETATM   29  O3  UNL     1      -4.603   9.989  14.760  1.00  0.00    -0.399 OA
HETATM   30  H16 UNL     1      -5.395   9.676  15.241  1.00  0.00     0.209 HD
ENDBRANCH  28  29
ENDBRANCH  27  28
BRANCH  27  31
HETATM   31  C17 UNL     1      -6.305   7.627  14.698  1.00  0.00    -0.038 A 
HETATM   32  C18 UNL     1      -6.271   6.462  15.481  1.00  0.00     0.009 A 
HETATM   33  C19 UNL     1      -7.230   6.240  16.471  1.00  0.00     0.001 A 
HETATM   34  C20 UNL     1      -8.232   7.181  16.698  1.00  0.00     0.000 A 
HETATM   35  C21 UNL     1      -8.277   8.344  15.935  1.00  0.00     0.001 A 
HETATM   36  C22 UNL     1      -7.323   8.566  14.942  1.00  0.00     0.009 A 
ENDBRANCH  27  31
ENDBRANCH  25  27
ENDBRANCH  11  25
TORSDOF 8
ENDMDL
MODEL 5
REMARK minimizedAffinity -8.92025948
REMARK  8 active torsions:
REMARK  status: ('A' for Active; 'I' for Inactive)
REMARK    1  A    between atoms: C2_2  and  C3_3 
REMARK       I    between atoms: C3_3  and  N1_5 
REMARK    2  A    between atoms: N1_5  and  C4_6 
REMARK    3  A    between atoms: C8_10  and  C9_11 
REMARK    4  A    between atoms: C14_21  and  N4_22 
REMARK    5  A    between atoms: N4_22  and  C15_23 
REMARK    6  A    between atoms: C15_23  and  C16_24 
REMARK    7  A    between atoms: C15_23  and  C17_26 
REMARK    8  A    between atoms: C16_24  and  O3_25 
ROOT
HETATM    1  C9  UNL     1      -0.307   6.476  13.643  1.00  0.00     0.021 A 
HETATM    2  C10 UNL     1      -0.753   7.187  14.743  1.00  0.00     0.063 A 
HETATM    3  C11 UNL     1      -2.045   7.280  15.457  1.00  0.00     0.077 C 
HETATM    4  O2  UNL     1       0.250   7.972  15.232  1.00  0.00    -0.297 OA
HETATM    5  C12 UNL     1       1.343   7.785  14.441  1.00  0.00     0.163 A 
HETATM    6  N2  UNL     1       2.499   8.433  14.636  1.00  0.00    -0.332 N 
ATOM      7  H2  UNL     1       2.665   9.100  15.390  1.00  0.00     0.168 HD
HETATM    8  C13 UNL     1       3.406   8.093  13.715  1.00  0.00     0.183 A 
HETATM    9  N3  UNL     1       3.271   7.213  12.702  1.00  0.00    -0.342 N 
ATOM     10  H3  UNL     1       4.043   7.046  12.056  1.00  0.00     0.167 HD
HETATM   11  C14 UNL     1       2.098   6.556  12.555  1.00  0.00     0.097 A 
HETATM   12  C23 UNL     1       1.058   6.860  13.449  1.00  0.00     0.067 A 
ENDROOT
BRANCH   1  13
HETATM   13  C8  UNL     1      -1.127   5.568  12.863  1.00  0.00    -0.020 A 
HETATM   14  C7  UNL     1      -0.669   5.049  11.651  1.00  0.00     0.012 A 
HETATM   15  C6  UNL     1      -1.510   4.251  10.877  1.00  0.00     0.003 A 
HETATM   16  C5  UNL     1      -2.816   3.981  11.298  1.00  0.00     0.029 A 
HETATM   17  C4  UNL     1      -3.289   4.492  12.506  1.00  0.00     0.035 A 
HETATM   18  C24 UNL     1      -2.427   5.264  13.295  1.00  0.00     0.042 A 
BRANCH  17  19
HETATM   19  N1  UNL     1      -4.604   4.315  12.983  1.00  0.00    -0.324 N 
HETATM   20  C3  UNL     1      -5.655   3.709  12.334  1.00  0.00     0.244 C 
HETATM   21  O1  UNL     1      -5.631   3.119  11.261  1.00  0.00    -0.268 OA
HETATM   22  H4  UNL     1      -4.793   4.680  13.907  1.00  0.00     0.169 HD
BRANCH  20  23
HETATM   23  C2  UNL     1      -6.940   3.753  13.087  1.00  0.00     0.064 C 
HETATM   24  C1  UNL     1      -7.947   2.877  12.959  1.00  0.00     0.017 C 
ENDBRANCH  20  23
ENDBRANCH  17  19
ENDBRANCH   1  13
BRANCH  11  25
HETATM   25  N4  UNL     1       1.928   5.643  11.519  1.00  0.00    -0.267 NA
HETATM   26  H12 UNL     1       1.760   4.706  11.884  1.00  0.00     0.130 HD
BRANCH  25  27
HETATM   27  C15 UNL     1       2.887   5.653  10.406  1.00  0.00     0.118 C 
BRANCH  27  28
HETATM   28  C16 UNL     1       4.198   6.350  10.854  1.00  0.00     0.188 C 
BRANCH  28  29
HETATM   29  O3  UNL     1       5.348   5.546  10.544  1.00  0.00    -0.399 OA
HETATM   30  H16 UNL     1       5.131   5.190   9.658  1.00  0.00     0.209 HD
ENDBRANCH  28  29
ENDBRANCH  27  28
BRANCH  27  31
HETATM   31  C17 UNL     1       2.222   6.367   9.231  1.00  0.00    -0.038 A 
HETATM   32  C18 UNL     1       1.242   7.344   9.471  1.00  0.00     0.009 A 
HETATM   33  C19 UNL     1       0.653   8.039   8.413  1.00  0.00     0.001 A 
HETATM   34  C20 UNL     1       1.039   7.773   7.101  1.00  0.00     0.000 A 
HETATM   35  C21 UNL     1       2.014   6.813   6.845  1.00  0.00     0.001 A 
HETATM   36  C22 UNL     1       2.600   6.114   7.901  1.00  0.00     0.009 A 
ENDBRANCH  27  31
ENDBRANCH  25  27
ENDBRANCH  11  25
TORSDOF 8
ENDMDL
MODEL 6
REMARK minimizedAffinity -8.90267277
REMARK  8 active torsions:
REMARK  status: ('A' for Active; 'I' for Inactive)
REMARK    1  A    between atoms: C2_2  and  C3_3 
REMARK       I    between atoms: C3_3  and  N1_5 
REMARK    2  A    between atoms: N1_5  and  C4_6 
REMARK    3  A    between atoms: C8_10  and  C9_11 
REMARK    4  A    between atoms: C14_21  and  N4_22 
REMARK    5  A    between atoms: N4_22  and  C15_23 
REMARK    6  A    between atoms: C15_23  and  C16_24 
REMARK    7  A    between atoms: C15_23  and  C17_26 
REMARK    8  A    between atoms: C16_24  and  O3_25 
ROOT
HETATM    1  C9  UNL     1      -4.391   4.127  12.473  1.00  0.00     0.021 A 
HETATM    2  C10 UNL     1      -3.959   2.903  11.993  1.00  0.00     0.063 A 
HETATM    3  C11 UNL     1      -2.650   2.367  11.564  1.00  0.00     0.077 C 
HETATM    4  O2  UNL     1      -5.012   2.040  11.897  1.00  0.00    -0.297 OA
HETATM    5  C12 UNL     1      -6.130   2.706  12.299  1.00  0.00     0.163 A 
HETATM    6  N2  UNL     1      -7.346   2.147  12.300  1.00  0.00    -0.332 N 
ATOM      7  H2  UNL     1      -7.538   1.185  12.021  1.00  0.00     0.168 HD
HETATM    8  C13 UNL     1      -8.277   3.013  12.713  1.00  0.00     0.183 A 
HETATM    9  N3  UNL     1      -8.105   4.289  13.112  1.00  0.00    -0.342 N 
ATOM     10  H3  UNL     1      -8.905   4.853  13.400  1.00  0.00     0.167 HD
HETATM   11  C14 UNL     1      -6.858   4.810  13.125  1.00  0.00     0.097 A 
HETATM   12  C23 UNL     1      -5.802   3.999  12.677  1.00  0.00     0.067 A 
ENDROOT
BRANCH   1  13
HETATM   13  C8  UNL     1      -3.534   5.281  12.669  1.00  0.00    -0.020 A 
HETATM   14  C7  UNL     1      -4.075   6.537  12.949  1.00  0.00     0.012 A 
HETATM   15  C6  UNL     1      -3.238   7.648  13.043  1.00  0.00     0.003 A 
HETATM   16  C5  UNL     1      -1.860   7.515  12.841  1.00  0.00     0.029 A 
HETATM   17  C4  UNL     1      -1.304   6.268  12.559  1.00  0.00     0.035 A 
HETATM   18  C24 UNL     1      -2.147   5.152  12.501  1.00  0.00     0.042 A 
BRANCH  17  19
HETATM   19  N1  UNL     1       0.063   6.051  12.290  1.00  0.00    -0.324 N 
HETATM   20  C3  UNL     1       0.743   6.337  11.129  1.00  0.00     0.244 C 
HETATM   21  O1  UNL     1       0.321   6.922  10.140  1.00  0.00    -0.268 OA
HETATM   22  H4  UNL     1       0.601   5.634  13.039  1.00  0.00     0.169 HD
BRANCH  20  23
HETATM   23  C2  UNL     1       2.172   5.912  11.142  1.00  0.00     0.064 C 
HETATM   24  C1  UNL     1       2.804   5.281  10.141  1.00  0.00     0.017 C 
ENDBRANCH  20  23
ENDBRANCH  17  19
ENDBRANCH   1  13
BRANCH  11  25
HETATM   25  N4  UNL     1      -6.647   6.124  13.531  1.00  0.00    -0.267 NA
HETATM   26  H12 UNL     1      -5.715   6.443  13.267  1.00  0.00     0.130 HD
BRANCH  25  27
HETATM   27  C15 UNL     1      -7.006   6.503  14.905  1.00  0.00     0.118 C 
BRANCH  27  28
HETATM   28  C16 UNL     1      -7.325   5.229  15.730  1.00  0.00     0.188 C 
BRANCH  28  29
HETATM   29  O3  UNL     1      -8.670   5.259  16.236  1.00  0.00    -0.399 OA
HETATM   30  H16 UNL     1      -9.176   5.629  15.485  1.00  0.00     0.209 HD
ENDBRANCH  28  29
ENDBRANCH  27  28
BRANCH  27  31
HETATM   31  C17 UNL     1      -8.196   7.456  14.824  1.00  0.00    -0.038 A 
HETATM   32  C18 UNL     1      -9.403   7.021  14.252  1.00  0.00     0.009 A 
HETATM   33  C19 UNL     1     -10.516   7.862  14.207  1.00  0.00     0.001 A 
HETATM   34  C20 UNL     1     -10.443   9.147  14.739  1.00  0.00     0.000 A 
HETATM   35  C21 UNL     1      -9.257   9.593  15.317  1.00  0.00     0.001 A 
HETATM   36  C22 UNL     1      -8.142   8.755  15.358  1.00  0.00     0.009 A 
ENDBRANCH  27  31
ENDBRANCH  25  27
ENDBRANCH  11  25
TORSDOF 8
ENDMDL
MODEL 7
REMARK minimizedAffinity -8.69181728
REMARK  8 active torsions:
REMARK  status: ('A' for Active; 'I' for Inactive)
REMARK    1  A    between atoms: C2_2  and  C3_3 
REMARK       I    between atoms: C3_3  and  N1_5 
REMARK    2  A    between atoms: N1_5  and  C4_6 
REMARK    3  A    between atoms: C8_10  and  C9_11 
REMARK    4  A    between atoms: C14_21  and  N4_22 
REMARK    5  A    between atoms: N4_22  and  C15_23 
REMARK    6  A    between atoms: C15_23  and  C16_24 
REMARK    7  A    between atoms: C15_23  and  C17_26 
REMARK    8  A    between atoms: C16_24  and  O3_25 
ROOT
HETATM    1  C9  UNL     1      -5.888   4.568  12.904  1.00  0.00     0.021 A 
HETATM    2  C10 UNL     1      -6.861   3.630  12.605  1.00  0.00     0.063 A 
HETATM    3  C11 UNL     1      -8.321   3.552  12.823  1.00  0.00     0.077 C 
HETATM    4  O2  UNL     1      -6.297   2.552  11.987  1.00  0.00    -0.297 OA
HETATM    5  C12 UNL     1      -4.957   2.781  11.900  1.00  0.00     0.163 A 
HETATM    6  N2  UNL     1      -4.104   1.898  11.364  1.00  0.00    -0.332 N 
ATOM      7  H2  UNL     1      -4.379   0.999  10.967  1.00  0.00     0.168 HD
HETATM    8  C13 UNL     1      -2.846   2.346  11.419  1.00  0.00     0.183 A 
HETATM    9  N3  UNL     1      -2.403   3.522  11.909  1.00  0.00    -0.342 N 
ATOM     10  H3  UNL     1      -1.408   3.744  11.899  1.00  0.00     0.167 HD
HETATM   11  C14 UNL     1      -3.298   4.400  12.416  1.00  0.00     0.097 A 
HETATM   12  C23 UNL     1      -4.650   4.019  12.442  1.00  0.00     0.067 A 
ENDROOT
BRANCH   1  13
HETATM   13  C8  UNL     1      -6.140   5.823  13.589  1.00  0.00    -0.020 A 
HETATM   14  C7  UNL     1      -7.379   6.082  14.178  1.00  0.00     0.012 A 
HETATM   15  C6  UNL     1      -7.626   7.329  14.750  1.00  0.00     0.003 A 
HETATM   16  C5  UNL     1      -6.648   8.329  14.722  1.00  0.00     0.029 A 
HETATM   17  C4  UNL     1      -5.406   8.085  14.137  1.00  0.00     0.035 A 
HETATM   18  C24 UNL     1      -5.153   6.819  13.595  1.00  0.00     0.042 A 
BRANCH  17  19
HETATM   19  N1  UNL     1      -4.382   9.047  14.018  1.00  0.00    -0.324 N 
HETATM   20  C3  UNL     1      -3.503   9.459  14.993  1.00  0.00     0.244 C 
HETATM   21  O1  UNL     1      -3.373   9.004  16.123  1.00  0.00    -0.268 OA
HETATM   22  H4  UNL     1      -4.289   9.485  13.111  1.00  0.00     0.169 HD
BRANCH  20  23
HETATM   23  C2  UNL     1      -2.587  10.553  14.563  1.00  0.00     0.064 C 
HETATM   24  C1  UNL     1      -2.515  11.771  15.119  1.00  0.00     0.017 C 
ENDBRANCH  20  23
ENDBRANCH  17  19
ENDBRANCH   1  13
BRANCH  11  25
HETATM   25  N4  UNL     1      -2.874   5.621  12.930  1.00  0.00    -0.267 NA
HETATM   26  H12 UNL     1      -3.221   6.395  12.366  1.00  0.00     0.130 HD
BRANCH  25  27
HETATM   27  C15 UNL     1      -1.459   5.777  13.296  1.00  0.00     0.118 C 
BRANCH  27  28
HETATM   28  C16 UNL     1      -1.354   6.409  14.709  1.00  0.00     0.188 C 
BRANCH  28  29
HETATM   29  O3  UNL     1      -0.249   5.859  15.445  1.00  0.00    -0.399 OA
HETATM   30  H16 UNL     1       0.452   5.791  14.765  1.00  0.00     0.209 HD
ENDBRANCH  28  29
ENDBRANCH  27  28
BRANCH  27  31
HETATM   31  C17 UNL     1      -0.798   6.640  12.224  1.00  0.00    -0.038 A 
HETATM   32  C18 UNL     1       0.090   6.056  11.306  1.00  0.00     0.009 A 
HETATM   33  C19 UNL     1       0.672   6.819  10.291  1.00  0.00     0.001 A 
HETATM   34  C20 UNL     1       0.370   8.174  10.175  1.00  0.00     0.000 A 
HETATM   35  C21 UNL     1      -0.513   8.768  11.072  1.00  0.00     0.001 A 
HETATM   36  C22 UNL     1      -1.092   8.008  12.090  1.00  0.00     0.009 A 
ENDBRANCH  27  31
ENDBRANCH  25  27
ENDBRANCH  11  25
TORSDOF 8
ENDMDL
MODEL 8
REMARK minimizedAffinity -8.66988468
REMARK  8 active torsions:
REMARK  status: ('A' for Active; 'I' for Inactive)
REMARK    1  A    between atoms: C2_2  and  C3_3 
REMARK       I    between atoms: C3_3  and  N1_5 
REMARK    2  A    between atoms: N1_5  and  C4_6 
REMARK    3  A    between atoms: C8_10  and  C9_11 
REMARK    4  A    between atoms: C14_21  and  N4_22 
REMARK    5  A    between atoms: N4_22  and  C15_23 
REMARK    6  A    between atoms: C15_23  and  C16_24 
REMARK    7  A    between atoms: C15_23  and  C17_26 
REMARK    8  A    between atoms: C16_24  and  O3_25 
ROOT
HETATM    1  C9  UNL     1      -4.156   4.266  12.505  1.00  0.00     0.021 A 
HETATM    2  C10 UNL     1      -5.109   3.307  12.212  1.00  0.00     0.063 A 
HETATM    3  C11 UNL     1      -6.574   3.218  12.396  1.00  0.00     0.077 C 
HETATM    4  O2  UNL     1      -4.518   2.218  11.641  1.00  0.00    -0.297 OA
HETATM    5  C12 UNL     1      -3.179   2.461  11.580  1.00  0.00     0.163 A 
HETATM    6  N2  UNL     1      -2.303   1.572  11.093  1.00  0.00    -0.332 N 
ATOM      7  H2  UNL     1      -2.557   0.659  10.717  1.00  0.00     0.168 HD
HETATM    8  C13 UNL     1      -1.052   2.038  11.164  1.00  0.00     0.183 A 
HETATM    9  N3  UNL     1      -0.635   3.233  11.628  1.00  0.00    -0.342 N 
ATOM     10  H3  UNL     1       0.358   3.468  11.635  1.00  0.00     0.167 HD
HETATM   11  C14 UNL     1      -1.553   4.115  12.085  1.00  0.00     0.097 A 
HETATM   12  C23 UNL     1      -2.900   3.719  12.090  1.00  0.00     0.067 A 
ENDROOT
BRANCH   1  13
HETATM   13  C8  UNL     1      -4.439   5.538  13.144  1.00  0.00    -0.020 A 
HETATM   14  C7  UNL     1      -5.748   6.010  13.253  1.00  0.00     0.012 A 
HETATM   15  C6  UNL     1      -5.986   7.275  13.789  1.00  0.00     0.003 A 
HETATM   16  C5  UNL     1      -4.921   8.082  14.202  1.00  0.00     0.029 A 
HETATM   17  C4  UNL     1      -3.607   7.626  14.098  1.00  0.00     0.035 A 
HETATM   18  C24 UNL     1      -3.378   6.341  13.591  1.00  0.00     0.042 A 
BRANCH  17  19
HETATM   19  N1  UNL     1      -2.472   8.389  14.440  1.00  0.00    -0.324 N 
HETATM   20  C3  UNL     1      -1.925   8.562  15.690  1.00  0.00     0.244 C 
HETATM   21  O1  UNL     1      -2.255   8.012  16.733  1.00  0.00    -0.268 OA
HETATM   22  H4  UNL     1      -2.012   8.865  13.675  1.00  0.00     0.169 HD
BRANCH  20  23
HETATM   23  C2  UNL     1      -0.765   9.496  15.722  1.00  0.00     0.064 C 
HETATM   24  C1  UNL     1      -0.219  10.022  16.828  1.00  0.00     0.017 C 
ENDBRANCH  20  23
ENDBRANCH  17  19
ENDBRANCH   1  13
BRANCH  11  25
HETATM   25  N4  UNL     1      -1.155   5.357  12.571  1.00  0.00    -0.267 NA
HETATM   26  H12 UNL     1      -1.746   6.100  12.201  1.00  0.00     0.130 HD
BRANCH  25  27
HETATM   27  C15 UNL     1       0.273   5.701  12.541  1.00  0.00     0.118 C 
BRANCH  27  28
HETATM   28  C16 UNL     1       0.637   6.525  13.804  1.00  0.00     0.188 C 
BRANCH  28  29
HETATM   29  O3  UNL     1       1.936   6.168  14.303  1.00  0.00    -0.399 OA
HETATM   30  H16 UNL     1       2.462   6.062  13.485  1.00  0.00     0.209 HD
ENDBRANCH  28  29
ENDBRANCH  27  28
BRANCH  27  31
HETATM   31  C17 UNL     1       0.534   6.472  11.249  1.00  0.00    -0.038 A 
HETATM   32  C18 UNL     1      -0.192   7.642  10.975  1.00  0.00     0.009 A 
HETATM   33  C19 UNL     1       0.061   8.385   9.820  1.00  0.00     0.001 A 
HETATM   34  C20 UNL     1       1.048   7.974   8.927  1.00  0.00     0.000 A 
HETATM   35  C21 UNL     1       1.782   6.821   9.186  1.00  0.00     0.001 A 
HETATM   36  C22 UNL     1       1.527   6.074  10.337  1.00  0.00     0.009 A 
ENDBRANCH  27  31
ENDBRANCH  25  27
ENDBRANCH  11  25
TORSDOF 8
ENDMDL
MODEL 9
REMARK minimizedAffinity -8.51786613
REMARK  8 active torsions:
REMARK  status: ('A' for Active; 'I' for Inactive)
REMARK    1  A    between atoms: C2_2  and  C3_3 
REMARK       I    between atoms: C3_3  and  N1_5 
REMARK    2  A    between atoms: N1_5  and  C4_6 
REMARK    3  A    between atoms: C8_10  and  C9_11 
REMARK    4  A    between atoms: C14_21  and  N4_22 
REMARK    5  A    between atoms: N4_22  and  C15_23 
REMARK    6  A    between atoms: C15_23  and  C16_24 
REMARK    7  A    between atoms: C15_23  and  C17_26 
REMARK    8  A    between atoms: C16_24  and  O3_25 
ROOT
HETATM    1  C9  UNL     1      -2.158   4.333  12.158  1.00  0.00     0.021 A 
HETATM    2  C10 UNL     1      -2.394   3.056  11.678  1.00  0.00     0.063 A 
HETATM    3  C11 UNL     1      -1.548   2.013  11.059  1.00  0.00     0.077 C 
HETATM    4  O2  UNL     1      -3.715   2.742  11.814  1.00  0.00    -0.297 OA
HETATM    5  C12 UNL     1      -4.341   3.819  12.365  1.00  0.00     0.163 A 
HETATM    6  N2  UNL     1      -5.657   3.847  12.607  1.00  0.00    -0.332 N 
ATOM      7  H2  UNL     1      -6.295   3.073  12.419  1.00  0.00     0.168 HD
HETATM    8  C13 UNL     1      -6.029   5.021  13.127  1.00  0.00     0.183 A 
HETATM    9  N3  UNL     1      -5.252   6.083  13.420  1.00  0.00    -0.342 N 
ATOM     10  H3  UNL     1      -5.661   6.932  13.811  1.00  0.00     0.167 HD
HETATM   11  C14 UNL     1      -3.922   6.007  13.188  1.00  0.00     0.097 A 
HETATM   12  C23 UNL     1      -3.422   4.828  12.609  1.00  0.00     0.067 A 
ENDROOT
BRANCH   1  13
HETATM   13  C8  UNL     1      -0.865   4.991  12.139  1.00  0.00    -0.020 A 
HETATM   14  C7  UNL     1      -0.105   5.114  13.304  1.00  0.00     0.012 A 
HETATM   15  C6  UNL     1       1.091   5.830  13.279  1.00  0.00     0.003 A 
HETATM   16  C5  UNL     1       1.526   6.442  12.099  1.00  0.00     0.029 A 
HETATM   17  C4  UNL     1       0.778   6.330  10.928  1.00  0.00     0.035 A 
HETATM   18  C24 UNL     1      -0.404   5.581  10.952  1.00  0.00     0.042 A 
BRANCH  17  19
HETATM   19  N1  UNL     1       1.113   6.956   9.709  1.00  0.00    -0.324 N 
HETATM   20  C3  UNL     1       2.041   6.541   8.782  1.00  0.00     0.244 C 
HETATM   21  O1  UNL     1       2.686   5.500   8.785  1.00  0.00    -0.268 OA
HETATM   22  H4  UNL     1       0.613   7.810   9.498  1.00  0.00     0.169 HD
BRANCH  20  23
HETATM   23  C2  UNL     1       2.209   7.473   7.632  1.00  0.00     0.064 C 
HETATM   24  C1  UNL     1       1.821   7.231   6.371  1.00  0.00     0.017 C 
ENDBRANCH  20  23
ENDBRANCH  17  19
ENDBRANCH   1  13
BRANCH  11  25
HETATM   25  N4  UNL     1      -3.093   7.086  13.479  1.00  0.00    -0.267 NA
HETATM   26  H12 UNL     1      -2.444   7.264  12.713  1.00  0.00     0.130 HD
BRANCH  25  27
HETATM   27  C15 UNL     1      -2.442   7.139  14.795  1.00  0.00     0.118 C 
BRANCH  27  28
HETATM   28  C16 UNL     1      -2.785   5.857  15.598  1.00  0.00     0.188 C 
BRANCH  28  29
HETATM   29  O3  UNL     1      -3.957   6.048  16.408  1.00  0.00    -0.399 OA
HETATM   30  H16 UNL     1      -4.546   6.562  15.820  1.00  0.00     0.209 HD
ENDBRANCH  28  29
ENDBRANCH  27  28
BRANCH  27  31
HETATM   31  C17 UNL     1      -2.921   8.408  15.495  1.00  0.00    -0.038 A 
HETATM   32  C18 UNL     1      -2.251   8.872  16.639  1.00  0.00     0.009 A 
HETATM   33  C19 UNL     1      -2.647  10.053  17.269  1.00  0.00     0.001 A 
HETATM   34  C20 UNL     1      -3.713  10.792  16.762  1.00  0.00     0.000 A 
HETATM   35  C21 UNL     1      -4.384  10.352  15.626  1.00  0.00     0.001 A 
HETATM   36  C22 UNL     1      -3.993   9.169  14.998  1.00  0.00     0.009 A 
ENDBRANCH  27  31
ENDBRANCH  25  27
ENDBRANCH  11  25
TORSDOF 8
ENDMDL
