MODEL 1
REMARK minimizedAffinity -10.4229012
REMARK CNNscore 0.953700662
REMARK CNNaffinity 8.02541447
REMARK  6 active torsions:
REMARK  status: ('A' for Active; 'I' for Inactive)
REMARK    1  A    between atoms: O1_2  and  C2_3 
REMARK    2  A    between atoms: C3_4  and  N1_5 
REMARK       I    between atoms: N1_5  and  C5_7 
REMARK    3  A    between atoms: C5_7  and  C6_9 
REMARK    4  A    between atoms: C6_9  and  N2_10 
REMARK    5  A    between atoms: C8_12  and  N4_33 
REMARK    6  A    between atoms: C9_14  and  N3_16 
ROOT
HETATM    1  C2  UNL     1       9.597  -7.621  27.014  1.00  0.00     0.199 C 
HETATM    2  C3  UNL     1      10.580  -8.474  26.183  1.00  0.00     0.124 C 
HETATM    3  C7  UNL     1      12.009  -7.991  26.447  1.00  0.00     0.082 C 
HETATM    4  C8  UNL     1      12.289  -7.926  27.954  1.00  0.00     0.233 C 
HETATM    5  O3  UNL     1      11.228  -8.409  28.779  1.00  0.00    -0.333 OA
HETATM    6  C9  UNL     1       9.885  -7.915  28.527  1.00  0.00     0.168 C 
HETATM    7  C10 UNL     1       9.067  -9.148  28.981  1.00  0.00     0.074 C 
ENDROOT
BRANCH   2   8
HETATM    8  N1  UNL     1      10.201  -8.632  24.756  1.00  0.00    -0.347 N 
HETATM    9  C4  UNL     1       8.866  -9.175  24.519  1.00  0.00     0.153 C 
HETATM   10  C5  UNL     1      11.073  -8.306  23.717  1.00  0.00     0.247 C 
HETATM   11  O2  UNL     1      12.181  -7.800  23.900  1.00  0.00    -0.271 OA
BRANCH  10  12
HETATM   12  C6  UNL     1      10.643  -8.606  22.271  1.00  0.00     0.369 C 
BRANCH  12  13
HETATM   13  N2  UNL     1       9.243  -9.057  22.217  1.00  0.00     0.087 N 
HETATM   14  H11 UNL     1       9.157  -9.884  22.813  1.00  0.00     0.313 HD
HETATM   15  H12 UNL     1       9.045  -9.383  21.272  1.00  0.00     0.313 HD
ENDBRANCH  12  13
ENDBRANCH  10  12
ENDBRANCH   2   8
BRANCH   1  16
HETATM   16  O1  UNL     1       9.835  -6.237  26.715  1.00  0.00    -0.384 OA
HETATM   17  C1  UNL     1      11.210  -5.909  26.585  1.00  0.00     0.202 C 
ENDBRANCH   1  16
BRANCH   6  18
HETATM   18  N3  UNL     1       9.646  -6.738  29.383  1.00  0.00    -0.308 N 
HETATM   19  C11 UNL     1      10.551  -6.071  30.209  1.00  0.00     0.049 A 
HETATM   20  C12 UNL     1      11.908  -6.297  30.516  1.00  0.00     0.030 A 
HETATM   21  C16 UNL     1       9.859  -5.000  30.806  1.00  0.00     0.004 A 
HETATM   22  C13 UNL     1      12.571  -5.412  31.373  1.00  0.00     0.002 A 
HETATM   23  C14 UNL     1      11.908  -4.331  31.935  1.00  0.00     0.001 A 
HETATM   24  C15 UNL     1      10.555  -4.122  31.666  1.00  0.00     0.014 A 
HETATM   25  C17 UNL     1       8.495  -5.093  30.414  1.00  0.00     0.015 A 
HETATM   26  C18 UNL     1       7.298  -4.417  30.697  1.00  0.00    -0.010 A 
HETATM   27  C28 UNL     1       8.407  -6.181  29.571  1.00  0.00     0.077 A 
HETATM   28  C19 UNL     1       6.041  -4.850  30.171  1.00  0.00     0.054 A 
HETATM   29  C30 UNL     1       7.077  -3.218  31.572  1.00  0.00     0.163 A 
HETATM   30  C20 UNL     1       5.861  -5.962  29.334  1.00  0.00     0.022 A 
HETATM   31  C29 UNL     1       5.017  -3.928  30.687  1.00  0.00     0.253 A 
HETATM   32  C21 UNL     1       4.802  -6.662  28.680  1.00  0.00     0.004 A 
HETATM   33  C27 UNL     1       7.027  -6.637  29.008  1.00  0.00     0.077 A 
HETATM   34  C22 UNL     1       3.401  -6.499  28.616  1.00  0.00     0.014 A 
HETATM   35  C26 UNL     1       5.374  -7.733  27.972  1.00  0.00     0.048 A 
HETATM   36  C23 UNL     1       2.621  -7.386  27.868  1.00  0.00     0.001 A 
HETATM   37  C24 UNL     1       3.212  -8.437  27.177  1.00  0.00     0.002 A 
HETATM   38  C25 UNL     1       4.594  -8.627  27.216  1.00  0.00     0.030 A 
HETATM   39  N4  UNL     1       6.744  -7.677  28.178  1.00  0.00    -0.316 N 
HETATM   40  O4  UNL     1       3.822  -3.942  30.476  1.00  0.00    -0.268 OA
HETATM   41  N5  UNL     1       5.660  -3.005  31.482  1.00  0.00    -0.353 N 
HETATM   42  H27 UNL     1       5.142  -2.276  31.952  1.00  0.00     0.163 HD
ENDBRANCH   6  18
TORSDOF 6
ENDMDL
MODEL 2
REMARK minimizedAffinity -9.83210564
REMARK CNNscore 0.868683279
REMARK CNNaffinity 7.90098143
REMARK  6 active torsions:
REMARK  status: ('A' for Active; 'I' for Inactive)
REMARK    1  A    between atoms: O1_2  and  C2_3 
REMARK    2  A    between atoms: C3_4  and  N1_5 
REMARK       I    between atoms: N1_5  and  C5_7 
REMARK    3  A    between atoms: C5_7  and  C6_9 
REMARK    4  A    between atoms: C6_9  and  N2_10 
REMARK    5  A    between atoms: C8_12  and  N4_33 
REMARK    6  A    between atoms: C9_14  and  N3_16 
ROOT
HETATM    1  C2  UNL     1      11.278  -8.435  28.619  1.00  0.00     0.199 C 
HETATM    2  C3  UNL     1      11.052  -9.915  28.243  1.00  0.00     0.124 C 
HETATM    3  C7  UNL     1       9.944 -10.493  29.128  1.00  0.00     0.082 C 
HETATM    4  C8  UNL     1       8.700  -9.596  29.092  1.00  0.00     0.233 C 
HETATM    5  O3  UNL     1       8.787  -8.491  28.191  1.00  0.00    -0.333 OA
HETATM    6  C9  UNL     1       9.972  -7.652  28.248  1.00  0.00     0.168 C 
HETATM    7  C10 UNL     1      10.039  -7.200  26.769  1.00  0.00     0.074 C 
ENDROOT
BRANCH   2   8
HETATM    8  N1  UNL     1      12.295 -10.723  28.150  1.00  0.00    -0.347 N 
HETATM    9  C4  UNL     1      13.274 -10.254  27.172  1.00  0.00     0.153 C 
HETATM   10  C5  UNL     1      12.499 -11.864  28.927  1.00  0.00     0.247 C 
HETATM   11  O2  UNL     1      11.706 -12.242  29.790  1.00  0.00    -0.271 OA
BRANCH  10  12
HETATM   12  C6  UNL     1      13.764 -12.704  28.686  1.00  0.00     0.369 C 
BRANCH  12  13
HETATM   13  N2  UNL     1      13.460 -13.904  27.891  1.00  0.00     0.087 N 
HETATM   14  H11 UNL     1      12.744 -14.439  28.390  1.00  0.00     0.313 HD
HETATM   15  H12 UNL     1      14.285 -14.503  27.880  1.00  0.00     0.313 HD
ENDBRANCH  12  13
ENDBRANCH  10  12
ENDBRANCH   2   8
BRANCH   1  16
HETATM   16  O1  UNL     1      11.529  -8.361  30.030  1.00  0.00    -0.384 OA
HETATM   17  C1  UNL     1      12.836  -8.773  30.401  1.00  0.00     0.202 C 
ENDBRANCH   1  16
BRANCH   6  18
HETATM   18  N3  UNL     1       9.711  -6.529  29.167  1.00  0.00    -0.308 N 
HETATM   19  C11 UNL     1      10.612  -5.866  30.000  1.00  0.00     0.049 A 
HETATM   20  C12 UNL     1      11.984  -6.049  30.260  1.00  0.00     0.030 A 
HETATM   21  C16 UNL     1       9.895  -4.855  30.668  1.00  0.00     0.004 A 
HETATM   22  C13 UNL     1      12.635  -5.181  31.142  1.00  0.00     0.002 A 
HETATM   23  C14 UNL     1      11.946  -4.156  31.773  1.00  0.00     0.001 A 
HETATM   24  C15 UNL     1      10.579  -3.991  31.552  1.00  0.00     0.014 A 
HETATM   25  C17 UNL     1       8.525  -4.984  30.308  1.00  0.00     0.015 A 
HETATM   26  C18 UNL     1       7.310  -4.373  30.656  1.00  0.00    -0.010 A 
HETATM   27  C28 UNL     1       8.456  -6.033  29.415  1.00  0.00     0.077 A 
HETATM   28  C19 UNL     1       6.057  -4.831  30.143  1.00  0.00     0.054 A 
HETATM   29  C30 UNL     1       7.067  -3.227  31.594  1.00  0.00     0.163 A 
HETATM   30  C20 UNL     1       5.898  -5.908  29.257  1.00  0.00     0.022 A 
HETATM   31  C29 UNL     1       5.012  -3.979  30.730  1.00  0.00     0.253 A 
HETATM   32  C21 UNL     1       4.849  -6.620  28.597  1.00  0.00     0.004 A 
HETATM   33  C27 UNL     1       7.080  -6.518  28.867  1.00  0.00     0.077 A 
HETATM   34  C22 UNL     1       3.441  -6.511  28.579  1.00  0.00     0.014 A 
HETATM   35  C26 UNL     1       5.443  -7.630  27.822  1.00  0.00     0.048 A 
HETATM   36  C23 UNL     1       2.676  -7.393  27.809  1.00  0.00     0.001 A 
HETATM   37  C24 UNL     1       3.289  -8.383  27.052  1.00  0.00     0.002 A 
HETATM   38  C25 UNL     1       4.678  -8.519  27.045  1.00  0.00     0.030 A 
HETATM   39  N4  UNL     1       6.815  -7.528  27.995  1.00  0.00    -0.316 N 
HETATM   40  O4  UNL     1       3.813  -4.031  30.550  1.00  0.00    -0.268 OA
HETATM   41  N5  UNL     1       5.640  -3.069  31.552  1.00  0.00    -0.353 N 
HETATM   42  H27 UNL     1       5.107  -2.386  32.071  1.00  0.00     0.163 HD
ENDBRANCH   6  18
TORSDOF 6
ENDMDL
MODEL 3
REMARK minimizedAffinity -9.66017628
REMARK CNNscore 0.814055443
REMARK CNNaffinity 7.69404078
REMARK  6 active torsions:
REMARK  status: ('A' for Active; 'I' for Inactive)
REMARK    1  A    between atoms: O1_2  and  C2_3 
REMARK    2  A    between atoms: C3_4  and  N1_5 
REMARK       I    between atoms: N1_5  and  C5_7 
REMARK    3  A    between atoms: C5_7  and  C6_9 
REMARK    4  A    between atoms: C6_9  and  N2_10 
REMARK    5  A    between atoms: C8_12  and  N4_33 
REMARK    6  A    between atoms: C9_14  and  N3_16 
ROOT
HETATM    1  C2  UNL     1      10.282  -8.755  26.850  1.00  0.00     0.199 C 
HETATM    2  C3  UNL     1      11.705  -8.185  26.670  1.00  0.00     0.124 C 
HETATM    3  C7  UNL     1      11.623  -6.660  26.555  1.00  0.00     0.082 C 
HETATM    4  C8  UNL     1      10.810  -6.072  27.716  1.00  0.00     0.233 C 
HETATM    5  O3  UNL     1      10.390  -7.026  28.693  1.00  0.00    -0.333 OA
HETATM    6  C9  UNL     1       9.742  -8.242  28.229  1.00  0.00     0.168 C 
HETATM    7  C10 UNL     1      10.182  -9.212  29.352  1.00  0.00     0.074 C 
ENDROOT
BRANCH   2   8
HETATM    8  N1  UNL     1      12.515  -8.871  25.631  1.00  0.00    -0.347 N 
HETATM    9  C4  UNL     1      12.623 -10.320  25.778  1.00  0.00     0.153 C 
HETATM   10  C5  UNL     1      13.148  -8.173  24.602  1.00  0.00     0.247 C 
HETATM   11  O2  UNL     1      13.025  -6.958  24.436  1.00  0.00    -0.271 OA
BRANCH  10  12
HETATM   12  C6  UNL     1      14.059  -8.948  23.636  1.00  0.00     0.369 C 
BRANCH  12  13
HETATM   13  N2  UNL     1      13.374  -9.215  22.361  1.00  0.00     0.087 N 
HETATM   14  H11 UNL     1      12.518  -9.736  22.568  1.00  0.00     0.313 HD
HETATM   15  H12 UNL     1      13.951  -9.850  21.811  1.00  0.00     0.313 HD
ENDBRANCH  12  13
ENDBRANCH  10  12
ENDBRANCH   2   8
BRANCH   1  16
HETATM   16  O1  UNL     1       9.462  -8.270  25.775  1.00  0.00    -0.384 OA
HETATM   17  C1  UNL     1       9.591  -9.020  24.576  1.00  0.00     0.202 C 
ENDBRANCH   1  16
BRANCH   6  18
HETATM   18  N3  UNL     1       8.284  -8.024  28.216  1.00  0.00    -0.308 N 
HETATM   19  C11 UNL     1       7.312  -8.717  27.494  1.00  0.00     0.049 A 
HETATM   20  C12 UNL     1       7.387  -9.773  26.565  1.00  0.00     0.030 A 
HETATM   21  C16 UNL     1       6.065  -8.154  27.828  1.00  0.00     0.004 A 
HETATM   22  C13 UNL     1       6.206 -10.292  26.024  1.00  0.00     0.002 A 
HETATM   23  C14 UNL     1       4.969  -9.772  26.378  1.00  0.00     0.001 A 
HETATM   24  C15 UNL     1       4.889  -8.700  27.268  1.00  0.00     0.014 A 
HETATM   25  C17 UNL     1       6.306  -7.041  28.679  1.00  0.00     0.015 A 
HETATM   26  C18 UNL     1       5.543  -6.034  29.292  1.00  0.00    -0.010 A 
HETATM   27  C28 UNL     1       7.671  -6.983  28.866  1.00  0.00     0.077 A 
HETATM   28  C19 UNL     1       6.146  -4.978  30.044  1.00  0.00     0.054 A 
HETATM   29  C30 UNL     1       4.056  -5.832  29.267  1.00  0.00     0.163 A 
HETATM   30  C20 UNL     1       7.526  -4.829  30.253  1.00  0.00     0.022 A 
HETATM   31  C29 UNL     1       5.058  -4.108  30.515  1.00  0.00     0.253 A 
HETATM   32  C21 UNL     1       8.431  -3.928  30.894  1.00  0.00     0.004 A 
HETATM   33  C27 UNL     1       8.309  -5.823  29.688  1.00  0.00     0.077 A 
HETATM   34  C22 UNL     1       8.279  -2.730  31.626  1.00  0.00     0.014 A 
HETATM   35  C26 UNL     1       9.732  -4.421  30.698  1.00  0.00     0.048 A 
HETATM   36  C23 UNL     1       9.401  -2.066  32.132  1.00  0.00     0.001 A 
HETATM   37  C24 UNL     1      10.677  -2.575  31.923  1.00  0.00     0.002 A 
HETATM   38  C25 UNL     1      10.864  -3.758  31.206  1.00  0.00     0.030 A 
HETATM   39  N4  UNL     1       9.621  -5.596  29.970  1.00  0.00    -0.316 N 
HETATM   40  O4  UNL     1       5.141  -3.103  31.190  1.00  0.00    -0.268 OA
HETATM   41  N5  UNL     1       3.877  -4.641  30.049  1.00  0.00    -0.353 N 
HETATM   42  H27 UNL     1       2.993  -4.194  30.248  1.00  0.00     0.163 HD
ENDBRANCH   6  18
TORSDOF 6
ENDMDL
MODEL 4
REMARK minimizedAffinity -7.13334799
REMARK CNNscore 0.776002049
REMARK CNNaffinity 6.6036396
REMARK  6 active torsions:
REMARK  status: ('A' for Active; 'I' for Inactive)
REMARK    1  A    between atoms: O1_2  and  C2_3 
REMARK    2  A    between atoms: C3_4  and  N1_5 
REMARK       I    between atoms: N1_5  and  C5_7 
REMARK    3  A    between atoms: C5_7  and  C6_9 
REMARK    4  A    between atoms: C6_9  and  N2_10 
REMARK    5  A    between atoms: C8_12  and  N4_33 
REMARK    6  A    between atoms: C9_14  and  N3_16 
ROOT
HETATM    1  C2  UNL     1       1.900   8.197  36.153  1.00  0.00     0.199 C 
HETATM    2  C3  UNL     1       1.182   8.687  34.877  1.00  0.00     0.124 C 
HETATM    3  C7  UNL     1      -0.052   7.814  34.630  1.00  0.00     0.082 C 
HETATM    4  C8  UNL     1      -0.918   7.731  35.894  1.00  0.00     0.233 C 
HETATM    5  O3  UNL     1      -0.465   8.539  36.981  1.00  0.00    -0.333 OA
HETATM    6  C9  UNL     1       0.935   8.454  37.362  1.00  0.00     0.168 C 
HETATM    7  C10 UNL     1       1.144   9.892  37.896  1.00  0.00     0.074 C 
ENDROOT
BRANCH   2   8
HETATM    8  N1  UNL     1       2.077   8.891  33.709  1.00  0.00    -0.347 N 
HETATM    9  C4  UNL     1       1.707   8.156  32.502  1.00  0.00     0.153 C 
HETATM   10  C5  UNL     1       3.206   9.708  33.773  1.00  0.00     0.247 C 
HETATM   11  O2  UNL     1       3.503  10.373  34.767  1.00  0.00    -0.271 OA
BRANCH  10  12
HETATM   12  C6  UNL     1       4.140   9.774  32.553  1.00  0.00     0.369 C 
BRANCH  12  13
HETATM   13  N2  UNL     1       5.486   9.283  32.889  1.00  0.00     0.087 N 
HETATM   14  H11 UNL     1       5.842   9.848  33.663  1.00  0.00     0.313 HD
HETATM   15  H12 UNL     1       6.106   9.479  32.103  1.00  0.00     0.313 HD
ENDBRANCH  12  13
ENDBRANCH  10  12
ENDBRANCH   2   8
BRANCH   1  16
HETATM   16  O1  UNL     1       2.168   6.794  36.011  1.00  0.00    -0.384 OA
HETATM   17  C1  UNL     1       3.415   6.510  35.395  1.00  0.00     0.202 C 
ENDBRANCH   1  16
BRANCH   6  18
HETATM   18  N3  UNL     1       1.075   7.437  38.419  1.00  0.00    -0.308 N 
HETATM   19  C11 UNL     1       0.091   6.609  38.960  1.00  0.00     0.049 A 
HETATM   20  C12 UNL     1      -1.292   6.491  38.722  1.00  0.00     0.030 A 
HETATM   21  C16 UNL     1       0.715   5.796  39.925  1.00  0.00     0.004 A 
HETATM   22  C13 UNL     1      -2.024   5.519  39.413  1.00  0.00     0.002 A 
HETATM   23  C14 UNL     1      -1.410   4.686  40.336  1.00  0.00     0.001 A 
HETATM   24  C15 UNL     1      -0.048   4.822  40.606  1.00  0.00     0.014 A 
HETATM   25  C17 UNL     1       2.069   6.218  40.038  1.00  0.00     0.015 A 
HETATM   26  C18 UNL     1       3.181   5.897  40.834  1.00  0.00    -0.010 A 
HETATM   27  C28 UNL     1       2.235   7.235  39.123  1.00  0.00     0.077 A 
HETATM   28  C19 UNL     1       4.416   6.610  40.731  1.00  0.00     0.054 A 
HETATM   29  C30 UNL     1       3.303   4.855  41.906  1.00  0.00     0.163 A 
HETATM   30  C20 UNL     1       4.657   7.676  39.851  1.00  0.00     0.022 A 
HETATM   31  C29 UNL     1       5.336   6.022  41.717  1.00  0.00     0.253 A 
HETATM   32  C21 UNL     1       5.706   8.587  39.517  1.00  0.00     0.004 A 
HETATM   33  C27 UNL     1       3.590   8.001  39.027  1.00  0.00     0.077 A 
HETATM   34  C22 UNL     1       7.022   8.792  39.986  1.00  0.00     0.014 A 
HETATM   35  C26 UNL     1       5.233   9.424  38.493  1.00  0.00     0.048 A 
HETATM   36  C23 UNL     1       7.816   9.804  39.437  1.00  0.00     0.001 A 
HETATM   37  C24 UNL     1       7.323  10.618  38.425  1.00  0.00     0.002 A 
HETATM   38  C25 UNL     1       6.028  10.442  37.936  1.00  0.00     0.030 A 
HETATM   39  N4  UNL     1       3.936   9.025  38.202  1.00  0.00    -0.316 N 
HETATM   40  O4  UNL     1       6.486   6.335  41.948  1.00  0.00    -0.268 OA
HETATM   41  N5  UNL     1       4.654   5.015  42.363  1.00  0.00    -0.353 N 
HETATM   42  H27 UNL     1       5.097   4.478  43.095  1.00  0.00     0.163 HD
ENDBRANCH   6  18
TORSDOF 6
ENDMDL
MODEL 5
REMARK minimizedAffinity -8.42019463
REMARK CNNscore 0.54682827
REMARK CNNaffinity 7.42060709
REMARK  6 active torsions:
REMARK  status: ('A' for Active; 'I' for Inactive)
REMARK    1  A    between atoms: O1_2  and  C2_3 
REMARK    2  A    between atoms: C3_4  and  N1_5 
REMARK       I    between atoms: N1_5  and  C5_7 
REMARK    3  A    between atoms: C5_7  and  C6_9 
REMARK    4  A    between atoms: C6_9  and  N2_10 
REMARK    5  A    between atoms: C8_12  and  N4_33 
REMARK    6  A    between atoms: C9_14  and  N3_16 
ROOT
HETATM    1  C2  UNL     1       9.047  -9.453  27.012  1.00  0.00     0.199 C 
HETATM    2  C3  UNL     1       9.828 -10.562  26.275  1.00  0.00     0.124 C 
HETATM    3  C7  UNL     1       8.882 -11.731  25.984  1.00  0.00     0.082 C 
HETATM    4  C8  UNL     1       7.608 -11.236  25.288  1.00  0.00     0.233 C 
HETATM    5  O3  UNL     1       7.603  -9.842  24.973  1.00  0.00    -0.333 OA
HETATM    6  C9  UNL     1       7.966  -8.902  26.020  1.00  0.00     0.168 C 
HETATM    7  C10 UNL     1       8.582  -7.777  25.153  1.00  0.00     0.074 C 
ENDROOT
BRANCH   2   8
HETATM    8  N1  UNL     1      11.127 -10.919  26.901  1.00  0.00    -0.347 N 
HETATM    9  C4  UNL     1      12.209  -9.961  26.687  1.00  0.00     0.153 C 
HETATM   10  C5  UNL     1      11.304 -12.101  27.622  1.00  0.00     0.247 C 
HETATM   11  O2  UNL     1      10.389 -12.893  27.854  1.00  0.00    -0.271 OA
BRANCH  10  12
HETATM   12  C6  UNL     1      12.710 -12.446  28.140  1.00  0.00     0.369 C 
BRANCH  12  13
HETATM   13  N2  UNL     1      12.753 -12.425  29.611  1.00  0.00     0.087 N 
HETATM   14  H11 UNL     1      12.458 -11.495  29.919  1.00  0.00     0.313 HD
HETATM   15  H12 UNL     1      13.725 -12.513  29.907  1.00  0.00     0.313 HD
ENDBRANCH  12  13
ENDBRANCH  10  12
ENDBRANCH   2   8
BRANCH   1  16
HETATM   16  O1  UNL     1       8.424 -10.031  28.169  1.00  0.00    -0.384 OA
HETATM   17  C1  UNL     1       9.092  -9.734  29.386  1.00  0.00     0.202 C 
ENDBRANCH   1  16
BRANCH   6  18
HETATM   18  N3  UNL     1       6.738  -8.469  26.712  1.00  0.00    -0.308 N 
HETATM   19  C11 UNL     1       5.427  -8.890  26.492  1.00  0.00     0.049 A 
HETATM   20  C12 UNL     1       4.856  -9.792  25.572  1.00  0.00     0.030 A 
HETATM   21  C16 UNL     1       4.610  -8.205  27.411  1.00  0.00     0.004 A 
HETATM   22  C13 UNL     1       3.481 -10.040  25.622  1.00  0.00     0.002 A 
HETATM   23  C14 UNL     1       2.673  -9.400  26.551  1.00  0.00     0.001 A 
HETATM   24  C15 UNL     1       3.224  -8.477  27.440  1.00  0.00     0.014 A 
HETATM   25  C17 UNL     1       5.430  -7.282  28.117  1.00  0.00     0.015 A 
HETATM   26  C18 UNL     1       5.249  -6.278  29.081  1.00  0.00    -0.010 A 
HETATM   27  C28 UNL     1       6.711  -7.459  27.640  1.00  0.00     0.077 A 
HETATM   28  C19 UNL     1       6.328  -5.451  29.524  1.00  0.00     0.054 A 
HETATM   29  C30 UNL     1       3.988  -5.853  29.774  1.00  0.00     0.163 A 
HETATM   30  C20 UNL     1       7.651  -5.543  29.066  1.00  0.00     0.022 A 
HETATM   31  C29 UNL     1       5.774  -4.509  30.509  1.00  0.00     0.253 A 
HETATM   32  C21 UNL     1       8.910  -4.896  29.259  1.00  0.00     0.004 A 
HETATM   33  C27 UNL     1       7.874  -6.546  28.135  1.00  0.00     0.077 A 
HETATM   34  C22 UNL     1       9.354  -3.814  30.051  1.00  0.00     0.014 A 
HETATM   35  C26 UNL     1       9.851  -5.543  28.440  1.00  0.00     0.048 A 
HETATM   36  C23 UNL     1      10.692  -3.411  30.008  1.00  0.00     0.001 A 
HETATM   37  C24 UNL     1      11.601  -4.068  29.189  1.00  0.00     0.002 A 
HETATM   38  C25 UNL     1      11.199  -5.142  28.394  1.00  0.00     0.030 A 
HETATM   39  N4  UNL     1       9.186  -6.564  27.777  1.00  0.00    -0.316 N 
HETATM   40  O4  UNL     1       6.356  -3.642  31.127  1.00  0.00    -0.268 OA
HETATM   41  N5  UNL     1       4.428  -4.782  30.623  1.00  0.00    -0.353 N 
HETATM   42  H27 UNL     1       3.842  -4.243  31.245  1.00  0.00     0.163 HD
ENDBRANCH   6  18
TORSDOF 6
ENDMDL
MODEL 6
REMARK minimizedAffinity -9.9515276
REMARK CNNscore 0.512581229
REMARK CNNaffinity 7.35725546
REMARK  6 active torsions:
REMARK  status: ('A' for Active; 'I' for Inactive)
REMARK    1  A    between atoms: O1_2  and  C2_3 
REMARK    2  A    between atoms: C3_4  and  N1_5 
REMARK       I    between atoms: N1_5  and  C5_7 
REMARK    3  A    between atoms: C5_7  and  C6_9 
REMARK    4  A    between atoms: C6_9  and  N2_10 
REMARK    5  A    between atoms: C8_12  and  N4_33 
REMARK    6  A    between atoms: C9_14  and  N3_16 
ROOT
HETATM    1  C2  UNL     1       9.873  -7.911  27.328  1.00  0.00     0.199 C 
HETATM    2  C3  UNL     1      11.263  -8.378  26.846  1.00  0.00     0.124 C 
HETATM    3  C7  UNL     1      12.329  -7.421  27.389  1.00  0.00     0.082 C 
HETATM    4  C8  UNL     1      12.172  -7.240  28.905  1.00  0.00     0.233 C 
HETATM    5  O3  UNL     1      11.159  -8.052  29.501  1.00  0.00    -0.333 OA
HETATM    6  C9  UNL     1       9.842  -8.063  28.888  1.00  0.00     0.168 C 
HETATM    7  C10 UNL     1       9.396  -9.498  29.261  1.00  0.00     0.074 C 
ENDROOT
BRANCH   2   8
HETATM    8  N1  UNL     1      11.341  -8.679  25.394  1.00  0.00    -0.347 N 
HETATM    9  C4  UNL     1      12.518  -8.151  24.708  1.00  0.00     0.153 C 
HETATM   10  C5  UNL     1      10.345  -9.395  24.730  1.00  0.00     0.247 C 
HETATM   11  O2  UNL     1       9.373  -9.890  25.304  1.00  0.00    -0.271 OA
BRANCH  10  12
HETATM   12  C6  UNL     1      10.449  -9.565  23.205  1.00  0.00     0.369 C 
BRANCH  12  13
HETATM   13  N2  UNL     1       9.270  -9.001  22.528  1.00  0.00     0.087 N 
HETATM   14  H11 UNL     1       8.440  -9.469  22.901  1.00  0.00     0.313 HD
HETATM   15  H12 UNL     1       9.308  -9.262  21.543  1.00  0.00     0.313 HD
ENDBRANCH  12  13
ENDBRANCH  10  12
ENDBRANCH   2   8
BRANCH   1  16
HETATM   16  O1  UNL     1       9.702  -6.536  26.951  1.00  0.00    -0.384 OA
HETATM   17  C1  UNL     1      10.923  -5.861  26.686  1.00  0.00     0.202 C 
ENDBRANCH   1  16
BRANCH   6  18
HETATM   18  N3  UNL     1       9.011  -7.032  29.536  1.00  0.00    -0.308 N 
HETATM   19  C11 UNL     1       9.375  -6.128  30.533  1.00  0.00     0.049 A 
HETATM   20  C12 UNL     1      10.575  -5.923  31.243  1.00  0.00     0.030 A 
HETATM   21  C16 UNL     1       8.245  -5.335  30.811  1.00  0.00     0.004 A 
HETATM   22  C13 UNL     1      10.646  -4.888  32.181  1.00  0.00     0.002 A 
HETATM   23  C14 UNL     1       9.550  -4.076  32.433  1.00  0.00     0.001 A 
HETATM   24  C15 UNL     1       8.346  -4.296  31.762  1.00  0.00     0.014 A 
HETATM   25  C17 UNL     1       7.160  -5.844  30.044  1.00  0.00     0.015 A 
HETATM   26  C18 UNL     1       5.788  -5.579  29.907  1.00  0.00    -0.010 A 
HETATM   27  C28 UNL     1       7.666  -6.892  29.305  1.00  0.00     0.077 A 
HETATM   28  C19 UNL     1       4.944  -6.375  29.072  1.00  0.00     0.054 A 
HETATM   29  C30 UNL     1       4.961  -4.522  30.577  1.00  0.00     0.163 A 
HETATM   30  C20 UNL     1       5.371  -7.476  28.314  1.00  0.00     0.022 A 
HETATM   31  C29 UNL     1       3.583  -5.827  29.187  1.00  0.00     0.253 A 
HETATM   32  C21 UNL     1       4.825  -8.463  27.437  1.00  0.00     0.004 A 
HETATM   33  C27 UNL     1       6.728  -7.748  28.401  1.00  0.00     0.077 A 
HETATM   34  C22 UNL     1       3.529  -8.744  26.951  1.00  0.00     0.014 A 
HETATM   35  C26 UNL     1       5.880  -9.291  27.018  1.00  0.00     0.048 A 
HETATM   36  C23 UNL     1       3.320  -9.820  26.082  1.00  0.00     0.001 A 
HETATM   37  C24 UNL     1       4.381 -10.623  25.685  1.00  0.00     0.002 A 
HETATM   38  C25 UNL     1       5.676 -10.373  26.143  1.00  0.00     0.030 A 
HETATM   39  N4  UNL     1       7.039  -8.813  27.613  1.00  0.00    -0.316 N 
HETATM   40  O4  UNL     1       2.572  -6.210  28.636  1.00  0.00    -0.268 OA
HETATM   41  N5  UNL     1       3.644  -4.761  30.057  1.00  0.00    -0.353 N 
HETATM   42  H27 UNL     1       2.813  -4.237  30.292  1.00  0.00     0.163 HD
ENDBRANCH   6  18
TORSDOF 6
ENDMDL
MODEL 7
REMARK minimizedAffinity -9.79828835
REMARK CNNscore 0.499013007
REMARK CNNaffinity 7.36542463
REMARK  6 active torsions:
REMARK  status: ('A' for Active; 'I' for Inactive)
REMARK    1  A    between atoms: O1_2  and  C2_3 
REMARK    2  A    between atoms: C3_4  and  N1_5 
REMARK       I    between atoms: N1_5  and  C5_7 
REMARK    3  A    between atoms: C5_7  and  C6_9 
REMARK    4  A    between atoms: C6_9  and  N2_10 
REMARK    5  A    between atoms: C8_12  and  N4_33 
REMARK    6  A    between atoms: C9_14  and  N3_16 
ROOT
HETATM    1  C2  UNL     1       8.029  -8.645  26.702  1.00  0.00     0.199 C 
HETATM    2  C3  UNL     1       9.299  -9.493  26.923  1.00  0.00     0.124 C 
HETATM    3  C7  UNL     1       9.794  -9.291  28.358  1.00  0.00     0.082 C 
HETATM    4  C8  UNL     1       8.655  -9.521  29.360  1.00  0.00     0.233 C 
HETATM    5  O3  UNL     1       7.427  -9.959  28.777  1.00  0.00    -0.333 OA
HETATM    6  C9  UNL     1       6.910  -9.225  27.635  1.00  0.00     0.168 C 
HETATM    7  C10 UNL     1       6.169 -10.372  26.905  1.00  0.00     0.074 C 
ENDROOT
BRANCH   2   8
HETATM    8  N1  UNL     1      10.325  -9.352  25.857  1.00  0.00    -0.347 N 
HETATM    9  C4  UNL     1      11.620  -8.841  26.299  1.00  0.00     0.153 C 
HETATM   10  C5  UNL     1      10.057  -9.664  24.524  1.00  0.00     0.247 C 
HETATM   11  O2  UNL     1       8.987 -10.143  24.144  1.00  0.00    -0.271 OA
BRANCH  10  12
HETATM   12  C6  UNL     1      11.139  -9.381  23.468  1.00  0.00     0.369 C 
BRANCH  12  13
HETATM   13  N2  UNL     1      10.696  -8.348  22.519  1.00  0.00     0.087 N 
HETATM   14  H11 UNL     1       9.827  -8.671  22.087  1.00  0.00     0.313 HD
HETATM   15  H12 UNL     1      11.373  -8.296  21.758  1.00  0.00     0.313 HD
ENDBRANCH  12  13
ENDBRANCH  10  12
ENDBRANCH   2   8
BRANCH   1  16
HETATM   16  O1  UNL     1       8.326  -7.285  27.056  1.00  0.00    -0.384 OA
HETATM   17  C1  UNL     1       8.456  -6.420  25.938  1.00  0.00     0.202 C 
ENDBRANCH   1  16
BRANCH   6  18
HETATM   18  N3  UNL     1       5.988  -8.183  28.121  1.00  0.00    -0.308 N 
HETATM   19  C11 UNL     1       4.649  -7.987  27.785  1.00  0.00     0.049 A 
HETATM   20  C12 UNL     1       3.781  -8.653  26.897  1.00  0.00     0.030 A 
HETATM   21  C16 UNL     1       4.192  -6.877  28.521  1.00  0.00     0.004 A 
HETATM   22  C13 UNL     1       2.449  -8.235  26.801  1.00  0.00     0.002 A 
HETATM   23  C14 UNL     1       1.979  -7.168  27.553  1.00  0.00     0.001 A 
HETATM   24  C15 UNL     1       2.842  -6.479  28.406  1.00  0.00     0.014 A 
HETATM   25  C17 UNL     1       5.303  -6.338  29.227  1.00  0.00     0.015 A 
HETATM   26  C18 UNL     1       5.555  -5.231  30.054  1.00  0.00    -0.010 A 
HETATM   27  C28 UNL     1       6.380  -7.148  28.932  1.00  0.00     0.077 A 
HETATM   28  C19 UNL     1       6.866  -4.933  30.541  1.00  0.00     0.054 A 
HETATM   29  C30 UNL     1       4.600  -4.181  30.539  1.00  0.00     0.163 A 
HETATM   30  C20 UNL     1       8.017  -5.686  30.262  1.00  0.00     0.022 A 
HETATM   31  C29 UNL     1       6.757  -3.709  31.349  1.00  0.00     0.253 A 
HETATM   32  C21 UNL     1       9.417  -5.664  30.544  1.00  0.00     0.004 A 
HETATM   33  C27 UNL     1       7.801  -6.804  29.472  1.00  0.00     0.077 A 
HETATM   34  C22 UNL     1      10.265  -4.800  31.271  1.00  0.00     0.014 A 
HETATM   35  C26 UNL     1       9.994  -6.782  29.917  1.00  0.00     0.048 A 
HETATM   36  C23 UNL     1      11.637  -5.063  31.353  1.00  0.00     0.001 A 
HETATM   37  C24 UNL     1      12.181  -6.175  30.724  1.00  0.00     0.002 A 
HETATM   38  C25 UNL     1      11.372  -7.052  29.998  1.00  0.00     0.030 A 
HETATM   39  N4  UNL     1       8.971  -7.472  29.284  1.00  0.00    -0.316 N 
HETATM   40  O4  UNL     1       7.637  -3.122  31.944  1.00  0.00    -0.268 OA
HETATM   41  N5  UNL     1       5.436  -3.317  31.323  1.00  0.00    -0.353 N 
HETATM   42  H27 UNL     1       5.133  -2.485  31.809  1.00  0.00     0.163 HD
ENDBRANCH   6  18
TORSDOF 6
ENDMDL
MODEL 8
REMARK minimizedAffinity -6.76012278
REMARK CNNscore 0.468957722
REMARK CNNaffinity 5.83287191
REMARK  6 active torsions:
REMARK  status: ('A' for Active; 'I' for Inactive)
REMARK    1  A    between atoms: O1_2  and  C2_3 
REMARK    2  A    between atoms: C3_4  and  N1_5 
REMARK       I    between atoms: N1_5  and  C5_7 
REMARK    3  A    between atoms: C5_7  and  C6_9 
REMARK    4  A    between atoms: C6_9  and  N2_10 
REMARK    5  A    between atoms: C8_12  and  N4_33 
REMARK    6  A    between atoms: C9_14  and  N3_16 
ROOT
HETATM    1  C2  UNL     1       1.073   6.677  41.884  1.00  0.00     0.199 C 
HETATM    2  C3  UNL     1      -0.300   5.996  42.072  1.00  0.00     0.124 C 
HETATM    3  C7  UNL     1      -1.165   6.266  40.837  1.00  0.00     0.082 C 
HETATM    4  C8  UNL     1      -0.407   5.900  39.554  1.00  0.00     0.233 C 
HETATM    5  O3  UNL     1       0.875   5.307  39.767  1.00  0.00    -0.333 OA
HETATM    6  C9  UNL     1       1.790   5.965  40.685  1.00  0.00     0.168 C 
HETATM    7  C10 UNL     1       2.567   4.731  41.204  1.00  0.00     0.074 C 
ENDROOT
BRANCH   2   8
HETATM    8  N1  UNL     1      -0.943   6.259  43.384  1.00  0.00    -0.347 N 
HETATM    9  C4  UNL     1      -0.672   7.574  43.961  1.00  0.00     0.153 C 
HETATM   10  C5  UNL     1      -1.729   5.305  44.030  1.00  0.00     0.247 C 
HETATM   11  O2  UNL     1      -2.008   4.212  43.534  1.00  0.00    -0.271 OA
BRANCH  10  12
HETATM   12  C6  UNL     1      -2.263   5.619  45.438  1.00  0.00     0.369 C 
BRANCH  12  13
HETATM   13  N2  UNL     1      -3.723   5.439  45.503  1.00  0.00     0.087 N 
HETATM   14  H11 UNL     1      -4.146   6.047  44.798  1.00  0.00     0.313 HD
HETATM   15  H12 UNL     1      -4.052   5.795  46.400  1.00  0.00     0.313 HD
ENDBRANCH  12  13
ENDBRANCH  10  12
ENDBRANCH   2   8
BRANCH   1  16
HETATM   16  O1  UNL     1       0.853   8.065  41.589  1.00  0.00    -0.384 OA
HETATM   17  C1  UNL     1       1.623   8.948  42.390  1.00  0.00     0.202 C 
ENDBRANCH   1  16
BRANCH   6  18
HETATM   18  N3  UNL     1       2.648   6.886  39.918  1.00  0.00    -0.308 N 
HETATM   19  C11 UNL     1       2.462   7.364  38.621  1.00  0.00     0.049 A 
HETATM   20  C12 UNL     1       1.472   7.121  37.648  1.00  0.00     0.030 A 
HETATM   21  C16 UNL     1       3.536   8.228  38.337  1.00  0.00     0.004 A 
HETATM   22  C13 UNL     1       1.539   7.792  36.422  1.00  0.00     0.002 A 
HETATM   23  C14 UNL     1       2.572   8.677  36.148  1.00  0.00     0.001 A 
HETATM   24  C15 UNL     1       3.577   8.893  37.091  1.00  0.00     0.014 A 
HETATM   25  C17 UNL     1       4.432   8.183  39.440  1.00  0.00     0.015 A 
HETATM   26  C18 UNL     1       5.687   8.723  39.766  1.00  0.00    -0.010 A 
HETATM   27  C28 UNL     1       3.865   7.333  40.366  1.00  0.00     0.077 A 
HETATM   28  C19 UNL     1       6.365   8.385  40.979  1.00  0.00     0.054 A 
HETATM   29  C30 UNL     1       6.544   9.661  38.969  1.00  0.00     0.163 A 
HETATM   30  C20 UNL     1       5.872   7.506  41.956  1.00  0.00     0.022 A 
HETATM   31  C29 UNL     1       7.643   9.112  40.975  1.00  0.00     0.253 A 
HETATM   32  C21 UNL     1       6.273   6.948  43.209  1.00  0.00     0.004 A 
HETATM   33  C27 UNL     1       4.621   6.977  41.682  1.00  0.00     0.077 A 
HETATM   34  C22 UNL     1       7.421   7.069  44.022  1.00  0.00     0.014 A 
HETATM   35  C26 UNL     1       5.237   6.107  43.650  1.00  0.00     0.048 A 
HETATM   36  C23 UNL     1       7.508   6.364  45.227  1.00  0.00     0.001 A 
HETATM   37  C24 UNL     1       6.470   5.539  45.639  1.00  0.00     0.002 A 
HETATM   38  C25 UNL     1       5.320   5.397  44.861  1.00  0.00     0.030 A 
HETATM   39  N4  UNL     1       4.229   6.162  42.698  1.00  0.00    -0.316 N 
HETATM   40  O4  UNL     1       8.511   9.106  41.823  1.00  0.00    -0.268 OA
HETATM   41  N5  UNL     1       7.699   9.835  39.804  1.00  0.00    -0.353 N 
HETATM   42  H27 UNL     1       8.504  10.407  39.586  1.00  0.00     0.163 HD
ENDBRANCH   6  18
TORSDOF 6
ENDMDL
MODEL 9
REMARK minimizedAffinity -8.30924034
REMARK CNNscore 0.464859188
REMARK CNNaffinity 6.77727461
REMARK  6 active torsions:
REMARK  status: ('A' for Active; 'I' for Inactive)
REMARK    1  A    between atoms: O1_2  and  C2_3 
REMARK    2  A    between atoms: C3_4  and  N1_5 
REMARK       I    between atoms: N1_5  and  C5_7 
REMARK    3  A    between atoms: C5_7  and  C6_9 
REMARK    4  A    between atoms: C6_9  and  N2_10 
REMARK    5  A    between atoms: C8_12  and  N4_33 
REMARK    6  A    between atoms: C9_14  and  N3_16 
ROOT
HETATM    1  C2  UNL     1      22.103  -6.976  31.942  1.00  0.00     0.199 C 
HETATM    2  C3  UNL     1      21.955  -6.289  33.317  1.00  0.00     0.124 C 
HETATM    3  C7  UNL     1      20.542  -5.710  33.437  1.00  0.00     0.082 C 
HETATM    4  C8  UNL     1      19.490  -6.776  33.106  1.00  0.00     0.233 C 
HETATM    5  O3  UNL     1      20.019  -8.079  32.856  1.00  0.00    -0.333 OA
HETATM    6  C9  UNL     1      21.126  -8.201  31.923  1.00  0.00     0.168 C 
HETATM    7  C10 UNL     1      21.835  -9.439  32.524  1.00  0.00     0.074 C 
ENDROOT
BRANCH   2   8
HETATM    8  N1  UNL     1      23.066  -5.367  33.666  1.00  0.00    -0.347 N 
HETATM    9  C4  UNL     1      24.409  -5.877  33.403  1.00  0.00     0.153 C 
HETATM   10  C5  UNL     1      22.838  -4.110  34.229  1.00  0.00     0.247 C 
HETATM   11  O2  UNL     1      21.711  -3.646  34.410  1.00  0.00    -0.271 OA
BRANCH  10  12
HETATM   12  C6  UNL     1      24.048  -3.266  34.664  1.00  0.00     0.369 C 
BRANCH  12  13
HETATM   13  N2  UNL     1      24.257  -2.131  33.752  1.00  0.00     0.087 N 
HETATM   14  H11 UNL     1      24.382  -2.505  32.808  1.00  0.00     0.313 HD
HETATM   15  H12 UNL     1      25.145  -1.687  33.987  1.00  0.00     0.313 HD
ENDBRANCH  12  13
ENDBRANCH  10  12
ENDBRANCH   2   8
BRANCH   1  16
HETATM   16  O1  UNL     1      21.746  -6.029  30.923  1.00  0.00    -0.384 OA
HETATM   17  C1  UNL     1      20.807  -5.055  31.353  1.00  0.00     0.202 C 
ENDBRANCH   1  16
BRANCH   6  18
HETATM   18  N3  UNL     1      20.583  -8.465  30.578  1.00  0.00    -0.308 N 
HETATM   19  C11 UNL     1      21.114  -8.096  29.342  1.00  0.00     0.049 A 
HETATM   20  C12 UNL     1      22.261  -7.363  28.977  1.00  0.00     0.030 A 
HETATM   21  C16 UNL     1      20.245  -8.590  28.351  1.00  0.00     0.004 A 
HETATM   22  C13 UNL     1      22.555  -7.184  27.622  1.00  0.00     0.002 A 
HETATM   23  C14 UNL     1      21.726  -7.702  26.637  1.00  0.00     0.001 A 
HETATM   24  C15 UNL     1      20.568  -8.396  26.989  1.00  0.00     0.014 A 
HETATM   25  C17 UNL     1      19.124  -9.170  29.006  1.00  0.00     0.015 A 
HETATM   26  C18 UNL     1      17.904  -9.754  28.629  1.00  0.00    -0.010 A 
HETATM   27  C28 UNL     1      19.360  -9.047  30.359  1.00  0.00     0.077 A 
HETATM   28  C19 UNL     1      16.934 -10.170  29.594  1.00  0.00     0.054 A 
HETATM   29  C30 UNL     1      17.370 -10.014  27.252  1.00  0.00     0.163 A 
HETATM   30  C20 UNL     1      17.082 -10.050  30.984  1.00  0.00     0.022 A 
HETATM   31  C29 UNL     1      15.788 -10.711  28.847  1.00  0.00     0.253 A 
HETATM   32  C21 UNL     1      16.343 -10.321  32.177  1.00  0.00     0.004 A 
HETATM   33  C27 UNL     1      18.289  -9.506  31.395  1.00  0.00     0.077 A 
HETATM   34  C22 UNL     1      15.065 -10.856  32.448  1.00  0.00     0.014 A 
HETATM   35  C26 UNL     1      17.142  -9.936  33.268  1.00  0.00     0.048 A 
HETATM   36  C23 UNL     1      14.622 -10.990  33.768  1.00  0.00     0.001 A 
HETATM   37  C24 UNL     1      15.431 -10.601  34.827  1.00  0.00     0.002 A 
HETATM   38  C25 UNL     1      16.701 -10.070  34.597  1.00  0.00     0.030 A 
HETATM   39  N4  UNL     1      18.338  -9.457  32.753  1.00  0.00    -0.316 N 
HETATM   40  O4  UNL     1      14.756 -11.173  29.289  1.00  0.00    -0.268 OA
HETATM   41  N5  UNL     1      16.087 -10.605  27.507  1.00  0.00    -0.353 N 
HETATM   42  H27 UNL     1      15.428 -10.911  26.804  1.00  0.00     0.163 HD
ENDBRANCH   6  18
TORSDOF 6
ENDMDL
