MODEL 1
REMARK minimizedAffinity -7.67325449
REMARK  8 active torsions:
REMARK  status: ('A' for Active; 'I' for Inactive)
REMARK    1  A    between atoms: C2_2  and  C3_3 
REMARK       I    between atoms: C3_3  and  N1_5 
REMARK    2  A    between atoms: N1_5  and  C4_6 
REMARK    3  A    between atoms: C7_9  and  O2_10 
REMARK    4  A    between atoms: C9_12  and  N2_13 
REMARK    5  A    between atoms: N2_13  and  C10_14 
REMARK    6  A    between atoms: C12_16  and  C13_17 
REMARK    7  A    between atoms: C14_20  and  S1_21 
REMARK    8  A    between atoms: C17_25  and  C18_26 
ROOT
HETATM    1  C10 UNL     1      14.284  34.865  17.353  1.00  0.00     0.106 A 
HETATM    2  C11 UNL     1      14.827  35.719  16.394  1.00  0.00     0.062 A 
HETATM    3  C12 UNL     1      16.212  35.790  16.230  1.00  0.00    -0.002 A 
HETATM    4  C24 UNL     1      17.023  35.029  17.067  1.00  0.00     0.031 A 
HETATM    5  C25 UNL     1      16.413  34.219  18.003  1.00  0.00     0.090 A 
HETATM    6  N5  UNL     1      15.075  34.125  18.159  1.00  0.00    -0.352 N 
ATOM      7  H5  UNL     1      14.672  33.512  18.868  1.00  0.00     0.166 HD
ENDROOT
BRANCH   1   8
HETATM    8  N2  UNL     1      12.880  34.833  17.473  1.00  0.00    -0.340 N 
HETATM    9  H10 UNL     1      12.495  33.945  17.158  1.00  0.00     0.167 HD
BRANCH   8  10
HETATM   10  C9  UNL     1      12.051  35.383  18.479  1.00  0.00     0.069 A 
HETATM   11  C7  UNL     1      12.624  36.231  19.445  1.00  0.00     0.095 A 
HETATM   12  C6  UNL     1      11.865  36.722  20.506  1.00  0.00     0.041 A 
HETATM   13  C5  UNL     1      10.508  36.402  20.599  1.00  0.00     0.032 A 
HETATM   14  C4  UNL     1       9.909  35.582  19.643  1.00  0.00     0.037 A 
HETATM   15  C26 UNL     1      10.692  35.067  18.598  1.00  0.00     0.062 A 
BRANCH  11  16
HETATM   16  O2  UNL     1      13.966  36.515  19.320  1.00  0.00    -0.354 OA
HETATM   17  C8  UNL     1      14.569  36.784  20.588  1.00  0.00     0.210 C 
ENDBRANCH  11  16
BRANCH  14  18
HETATM   18  N1  UNL     1       8.544  35.228  19.650  1.00  0.00    -0.324 N 
HETATM   19  C3  UNL     1       7.493  35.920  19.084  1.00  0.00     0.244 C 
HETATM   20  O1  UNL     1       7.540  36.989  18.493  1.00  0.00    -0.268 OA
HETATM   21  H4  UNL     1       8.331  34.361  20.127  1.00  0.00     0.169 HD
BRANCH  19  22
HETATM   22  C2  UNL     1       6.198  35.199  19.269  1.00  0.00     0.064 C 
HETATM   23  C1  UNL     1       6.155  34.019  19.899  1.00  0.00     0.017 C 
ENDBRANCH  19  22
ENDBRANCH  14  18
ENDBRANCH   8  10
ENDBRANCH   1   8
BRANCH   3  24
HETATM   24  C13 UNL     1      16.827  36.639  15.226  1.00  0.00     0.072 A 
HETATM   25  N3  UNL     1      17.042  37.978  15.450  1.00  0.00    -0.334 N 
HETATM   26  C14 UNL     1      17.610  38.426  14.358  1.00  0.00     0.146 A 
ATOM     27  H3  UNL     1      16.809  38.510  16.288  1.00  0.00     0.168 HD
HETATM   28  N4  UNL     1      17.826  37.424  13.445  1.00  0.00    -0.329 N 
HETATM   29  C16 UNL     1      18.510  37.559  12.179  1.00  0.00     0.158 C 
HETATM   30  C17 UNL     1      17.296  36.256  13.973  1.00  0.00     0.074 A 
BRANCH  26  31
HETATM   31  S1  UNL     1      18.051  40.078  14.074  1.00  0.00    -0.098 SA
HETATM   32  C15 UNL     1      16.494  40.727  13.424  1.00  0.00     0.099 C 
ENDBRANCH  26  31
BRANCH  30  33
HETATM   33  C18 UNL     1      17.331  34.953  13.314  1.00  0.00    -0.007 A 
HETATM   34  C19 UNL     1      16.264  34.548  12.501  1.00  0.00     0.017 A 
HETATM   35  C20 UNL     1      16.311  33.319  11.842  1.00  0.00     0.043 A 
HETATM   36  C21 UNL     1      17.423  32.501  11.995  1.00  0.00     0.116 A 
HETATM   37  F1  UNL     1      17.473  31.328  11.354  1.00  0.00    -0.206 F 
HETATM   38  C22 UNL     1      18.490  32.886  12.797  1.00  0.00     0.043 A 
HETATM   39  C23 UNL     1      18.447  34.115  13.457  1.00  0.00     0.017 A 
ENDBRANCH  30  33
ENDBRANCH   3  24
TORSDOF 8
ENDMDL
MODEL 2
REMARK minimizedAffinity -7.46705341
REMARK  8 active torsions:
REMARK  status: ('A' for Active; 'I' for Inactive)
REMARK    1  A    between atoms: C2_2  and  C3_3 
REMARK       I    between atoms: C3_3  and  N1_5 
REMARK    2  A    between atoms: N1_5  and  C4_6 
REMARK    3  A    between atoms: C7_9  and  O2_10 
REMARK    4  A    between atoms: C9_12  and  N2_13 
REMARK    5  A    between atoms: N2_13  and  C10_14 
REMARK    6  A    between atoms: C12_16  and  C13_17 
REMARK    7  A    between atoms: C14_20  and  S1_21 
REMARK    8  A    between atoms: C17_25  and  C18_26 
ROOT
HETATM    1  C10 UNL     1      13.925  35.979  16.987  1.00  0.00     0.106 A 
HETATM    2  C11 UNL     1      14.825  35.727  15.953  1.00  0.00     0.062 A 
HETATM    3  C12 UNL     1      15.765  36.696  15.596  1.00  0.00    -0.002 A 
HETATM    4  C24 UNL     1      15.749  37.918  16.262  1.00  0.00     0.031 A 
HETATM    5  C25 UNL     1      14.817  38.101  17.263  1.00  0.00     0.090 A 
HETATM    6  N5  UNL     1      13.916  37.165  17.633  1.00  0.00    -0.352 N 
ATOM      7  H5  UNL     1      13.246  37.349  18.380  1.00  0.00     0.166 HD
ENDROOT
BRANCH   1   8
HETATM    8  N2  UNL     1      13.001  34.963  17.306  1.00  0.00    -0.340 N 
HETATM    9  H10 UNL     1      13.242  34.081  16.858  1.00  0.00     0.167 HD
BRANCH   8  10
HETATM   10  C9  UNL     1      12.326  34.713  18.523  1.00  0.00     0.069 A 
HETATM   11  C7  UNL     1      13.056  34.207  19.615  1.00  0.00     0.095 A 
HETATM   12  C6  UNL     1      12.416  33.860  20.804  1.00  0.00     0.041 A 
HETATM   13  C5  UNL     1      11.038  34.049  20.935  1.00  0.00     0.032 A 
HETATM   14  C4  UNL     1      10.294  34.570  19.877  1.00  0.00     0.037 A 
HETATM   15  C26 UNL     1      10.944  34.883  18.673  1.00  0.00     0.062 A 
BRANCH  11  16
HETATM   16  O2  UNL     1      14.411  34.029  19.441  1.00  0.00    -0.354 OA
HETATM   17  C8  UNL     1      15.169  34.865  20.319  1.00  0.00     0.210 C 
ENDBRANCH  11  16
BRANCH  14  18
HETATM   18  N1  UNL     1       8.905  34.812  19.931  1.00  0.00    -0.324 N 
HETATM   19  C3  UNL     1       8.057  34.605  21.000  1.00  0.00     0.244 C 
HETATM   20  O1  UNL     1       8.343  34.146  22.097  1.00  0.00    -0.268 OA
HETATM   21  H4  UNL     1       8.503  35.182  19.080  1.00  0.00     0.169 HD
BRANCH  19  22
HETATM   22  C2  UNL     1       6.659  35.021  20.681  1.00  0.00     0.064 C 
HETATM   23  C1  UNL     1       6.210  35.000  19.420  1.00  0.00     0.017 C 
ENDBRANCH  19  22
ENDBRANCH  14  18
ENDBRANCH   8  10
ENDBRANCH   1   8
BRANCH   3  24
HETATM   24  C13 UNL     1      16.744  36.472  14.548  1.00  0.00     0.072 A 
HETATM   25  N3  UNL     1      17.050  35.207  14.107  1.00  0.00    -0.334 N 
HETATM   26  C14 UNL     1      17.949  35.375  13.168  1.00  0.00     0.146 A 
ATOM     27  H3  UNL     1      16.660  34.326  14.439  1.00  0.00     0.168 HD
HETATM   28  N4  UNL     1      18.207  36.703  12.938  1.00  0.00    -0.329 N 
HETATM   29  C16 UNL     1      19.077  37.235  11.914  1.00  0.00     0.158 C 
HETATM   30  C17 UNL     1      17.459  37.437  13.845  1.00  0.00     0.074 A 
BRANCH  26  31
HETATM   31  S1  UNL     1      18.730  34.093  12.303  1.00  0.00    -0.098 SA
HETATM   32  C15 UNL     1      20.173  33.817  13.356  1.00  0.00     0.099 C 
ENDBRANCH  26  31
BRANCH  30  33
HETATM   33  C18 UNL     1      17.442  38.896  13.923  1.00  0.00    -0.007 A 
HETATM   34  C19 UNL     1      16.439  39.623  13.268  1.00  0.00     0.017 A 
HETATM   35  C20 UNL     1      16.399  41.014  13.369  1.00  0.00     0.043 A 
HETATM   36  C21 UNL     1      17.361  41.674  14.124  1.00  0.00     0.116 A 
HETATM   37  F1  UNL     1      17.316  43.007  14.230  1.00  0.00    -0.206 F 
HETATM   38  C22 UNL     1      18.363  40.970  14.780  1.00  0.00     0.043 A 
HETATM   39  C23 UNL     1      18.403  39.578  14.682  1.00  0.00     0.017 A 
ENDBRANCH  30  33
ENDBRANCH   3  24
TORSDOF 8
ENDMDL
MODEL 3
REMARK minimizedAffinity -7.38302422
REMARK  8 active torsions:
REMARK  status: ('A' for Active; 'I' for Inactive)
REMARK    1  A    between atoms: C2_2  and  C3_3 
REMARK       I    between atoms: C3_3  and  N1_5 
REMARK    2  A    between atoms: N1_5  and  C4_6 
REMARK    3  A    between atoms: C7_9  and  O2_10 
REMARK    4  A    between atoms: C9_12  and  N2_13 
REMARK    5  A    between atoms: N2_13  and  C10_14 
REMARK    6  A    between atoms: C12_16  and  C13_17 
REMARK    7  A    between atoms: C14_20  and  S1_21 
REMARK    8  A    between atoms: C17_25  and  C18_26 
ROOT
HETATM    1  C10 UNL     1      13.145  54.142  -1.786  1.00  0.00     0.106 A 
HETATM    2  C11 UNL     1      12.869  55.259  -0.998  1.00  0.00     0.062 A 
HETATM    3  C12 UNL     1      13.917  56.043  -0.512  1.00  0.00    -0.002 A 
HETATM    4  C24 UNL     1      15.224  55.660  -0.794  1.00  0.00     0.031 A 
HETATM    5  C25 UNL     1      15.419  54.533  -1.566  1.00  0.00     0.090 A 
HETATM    6  N5  UNL     1      14.415  53.777  -2.061  1.00  0.00    -0.352 N 
ATOM      7  H5  UNL     1      14.611  52.951  -2.627  1.00  0.00     0.166 HD
ENDROOT
BRANCH   1   8
HETATM    8  N2  UNL     1      12.048  53.389  -2.251  1.00  0.00    -0.340 N 
HETATM    9  H10 UNL     1      11.440  53.941  -2.853  1.00  0.00     0.167 HD
BRANCH   8  10
HETATM   10  C9  UNL     1      11.989  52.028  -2.633  1.00  0.00     0.069 A 
HETATM   11  C7  UNL     1      12.434  51.661  -3.916  1.00  0.00     0.095 A 
HETATM   12  C6  UNL     1      12.312  50.348  -4.367  1.00  0.00     0.041 A 
HETATM   13  C5  UNL     1      11.775  49.369  -3.526  1.00  0.00     0.032 A 
HETATM   14  C4  UNL     1      11.347  49.701  -2.240  1.00  0.00     0.037 A 
HETATM   15  C26 UNL     1      11.445  51.034  -1.811  1.00  0.00     0.062 A 
BRANCH  11  16
HETATM   16  O2  UNL     1      12.950  52.657  -4.715  1.00  0.00    -0.354 OA
HETATM   17  C8  UNL     1      14.139  52.233  -5.386  1.00  0.00     0.210 C 
ENDBRANCH  11  16
BRANCH  14  18
HETATM   18  N1  UNL     1      10.814  48.773  -1.321  1.00  0.00    -0.324 N 
HETATM   19  C3  UNL     1       9.673  48.010  -1.464  1.00  0.00     0.244 C 
HETATM   20  O1  UNL     1       8.890  48.013  -2.403  1.00  0.00    -0.268 OA
HETATM   21  H4  UNL     1      11.344  48.666  -0.467  1.00  0.00     0.169 HD
BRANCH  19  22
HETATM   22  C2  UNL     1       9.461  47.114  -0.288  1.00  0.00     0.064 C 
HETATM   23  C1  UNL     1      10.044  45.910  -0.232  1.00  0.00     0.017 C 
ENDBRANCH  19  22
ENDBRANCH  14  18
ENDBRANCH   8  10
ENDBRANCH   1   8
BRANCH   3  24
HETATM   24  C13 UNL     1      13.683  57.233   0.287  1.00  0.00     0.072 A 
HETATM   25  N3  UNL     1      13.182  58.386  -0.268  1.00  0.00    -0.334 N 
HETATM   26  C14 UNL     1      13.093  59.238   0.723  1.00  0.00     0.146 A 
ATOM     27  H3  UNL     1      12.933  58.544  -1.244  1.00  0.00     0.168 HD
HETATM   28  N4  UNL     1      13.464  58.675   1.918  1.00  0.00    -0.329 N 
HETATM   29  C16 UNL     1      13.399  59.310   3.215  1.00  0.00     0.158 C 
HETATM   30  C17 UNL     1      13.884  57.379   1.656  1.00  0.00     0.074 A 
BRANCH  26  31
HETATM   31  S1  UNL     1      12.567  60.883   0.573  1.00  0.00    -0.098 SA
HETATM   32  C15 UNL     1      12.393  61.010  -1.222  1.00  0.00     0.099 C 
ENDBRANCH  26  31
BRANCH  30  33
HETATM   33  C18 UNL     1      14.350  56.435   2.669  1.00  0.00    -0.007 A 
HETATM   34  C19 UNL     1      15.723  56.243   2.870  1.00  0.00     0.017 A 
HETATM   35  C20 UNL     1      16.173  55.368   3.860  1.00  0.00     0.043 A 
HETATM   36  C21 UNL     1      15.249  54.690   4.646  1.00  0.00     0.116 A 
HETATM   37  F1  UNL     1      15.680  53.861   5.603  1.00  0.00    -0.206 F 
HETATM   38  C22 UNL     1      13.884  54.868   4.461  1.00  0.00     0.043 A 
HETATM   39  C23 UNL     1      13.432  55.744   3.472  1.00  0.00     0.017 A 
ENDBRANCH  30  33
ENDBRANCH   3  24
TORSDOF 8
ENDMDL
MODEL 4
REMARK minimizedAffinity -7.2178421
REMARK  8 active torsions:
REMARK  status: ('A' for Active; 'I' for Inactive)
REMARK    1  A    between atoms: C2_2  and  C3_3 
REMARK       I    between atoms: C3_3  and  N1_5 
REMARK    2  A    between atoms: N1_5  and  C4_6 
REMARK    3  A    between atoms: C7_9  and  O2_10 
REMARK    4  A    between atoms: C9_12  and  N2_13 
REMARK    5  A    between atoms: N2_13  and  C10_14 
REMARK    6  A    between atoms: C12_16  and  C13_17 
REMARK    7  A    between atoms: C14_20  and  S1_21 
REMARK    8  A    between atoms: C17_25  and  C18_26 
ROOT
HETATM    1  C10 UNL     1      15.914  54.503   4.352  1.00  0.00     0.106 A 
HETATM    2  C11 UNL     1      15.918  55.642   3.547  1.00  0.00     0.062 A 
HETATM    3  C12 UNL     1      14.722  56.313   3.285  1.00  0.00    -0.002 A 
HETATM    4  C24 UNL     1      13.539  55.796   3.806  1.00  0.00     0.031 A 
HETATM    5  C25 UNL     1      13.612  54.657   4.580  1.00  0.00     0.090 A 
HETATM    6  N5  UNL     1      14.765  54.009   4.858  1.00  0.00    -0.352 N 
ATOM      7  H5  UNL     1      14.766  53.167   5.435  1.00  0.00     0.166 HD
ENDROOT
BRANCH   1   8
HETATM    8  N2  UNL     1      17.151  53.868   4.584  1.00  0.00    -0.340 N 
HETATM    9  H10 UNL     1      17.924  54.530   4.563  1.00  0.00     0.167 HD
BRANCH   8  10
HETATM   10  C9  UNL     1      17.462  52.798   5.456  1.00  0.00     0.069 A 
HETATM   11  C7  UNL     1      18.401  53.007   6.482  1.00  0.00     0.095 A 
HETATM   12  C6  UNL     1      18.805  51.957   7.306  1.00  0.00     0.041 A 
HETATM   13  C5  UNL     1      18.246  50.687   7.142  1.00  0.00     0.032 A 
HETATM   14  C4  UNL     1      17.295  50.458   6.148  1.00  0.00     0.037 A 
HETATM   15  C26 UNL     1      16.923  51.515   5.302  1.00  0.00     0.062 A 
BRANCH  11  16
HETATM   16  O2  UNL     1      18.933  54.271   6.604  1.00  0.00    -0.354 OA
HETATM   17  C8  UNL     1      19.219  54.594   7.968  1.00  0.00     0.210 C 
ENDBRANCH  11  16
BRANCH  14  18
HETATM   18  N1  UNL     1      16.667  49.215   5.927  1.00  0.00    -0.324 N 
HETATM   19  C3  UNL     1      17.206  47.957   6.106  1.00  0.00     0.244 C 
HETATM   20  O1  UNL     1      18.342  47.680   6.462  1.00  0.00    -0.268 OA
HETATM   21  H4  UNL     1      15.710  49.271   5.605  1.00  0.00     0.169 HD
BRANCH  19  22
HETATM   22  C2  UNL     1      16.211  46.885   5.805  1.00  0.00     0.064 C 
HETATM   23  C1  UNL     1      15.015  46.873   6.408  1.00  0.00     0.017 C 
ENDBRANCH  19  22
ENDBRANCH  14  18
ENDBRANCH   8  10
ENDBRANCH   1   8
BRANCH   3  24
HETATM   24  C13 UNL     1      14.676  57.519   2.479  1.00  0.00     0.072 A 
HETATM   25  N3  UNL     1      14.919  58.758   3.023  1.00  0.00    -0.334 N 
HETATM   26  C14 UNL     1      14.803  59.603   2.027  1.00  0.00     0.146 A 
ATOM     27  H3  UNL     1      15.142  58.974   3.994  1.00  0.00     0.168 HD
HETATM   28  N4  UNL     1      14.545  58.963   0.841  1.00  0.00    -0.329 N 
HETATM   29  C16 UNL     1      14.449  59.588  -0.459  1.00  0.00     0.158 C 
HETATM   30  C17 UNL     1      14.426  57.609   1.113  1.00  0.00     0.074 A 
BRANCH  26  31
HETATM   31  S1  UNL     1      14.955  61.324   2.163  1.00  0.00    -0.098 SA
HETATM   32  C15 UNL     1      13.361  61.737   2.909  1.00  0.00     0.099 C 
ENDBRANCH  26  31
BRANCH  30  33
HETATM   33  C18 UNL     1      14.163  56.578   0.111  1.00  0.00    -0.007 A 
HETATM   34  C19 UNL     1      15.229  55.890  -0.484  1.00  0.00     0.017 A 
HETATM   35  C20 UNL     1      14.980  54.880  -1.415  1.00  0.00     0.043 A 
HETATM   36  C21 UNL     1      13.669  54.561  -1.746  1.00  0.00     0.116 A 
HETATM   37  F1  UNL     1      13.430  53.585  -2.630  1.00  0.00    -0.206 F 
HETATM   38  C22 UNL     1      12.600  55.233  -1.165  1.00  0.00     0.043 A 
HETATM   39  C23 UNL     1      12.846  56.242  -0.233  1.00  0.00     0.017 A 
ENDBRANCH  30  33
ENDBRANCH   3  24
TORSDOF 8
ENDMDL
MODEL 5
REMARK minimizedAffinity -7.17542982
REMARK  8 active torsions:
REMARK  status: ('A' for Active; 'I' for Inactive)
REMARK    1  A    between atoms: C2_2  and  C3_3 
REMARK       I    between atoms: C3_3  and  N1_5 
REMARK    2  A    between atoms: N1_5  and  C4_6 
REMARK    3  A    between atoms: C7_9  and  O2_10 
REMARK    4  A    between atoms: C9_12  and  N2_13 
REMARK    5  A    between atoms: N2_13  and  C10_14 
REMARK    6  A    between atoms: C12_16  and  C13_17 
REMARK    7  A    between atoms: C14_20  and  S1_21 
REMARK    8  A    between atoms: C17_25  and  C18_26 
ROOT
HETATM    1  C10 UNL     1      12.411  55.599  -1.401  1.00  0.00     0.106 A 
HETATM    2  C11 UNL     1      12.394  56.524  -0.358  1.00  0.00     0.062 A 
HETATM    3  C12 UNL     1      13.572  56.817   0.330  1.00  0.00    -0.002 A 
HETATM    4  C24 UNL     1      14.736  56.139  -0.019  1.00  0.00     0.031 A 
HETATM    5  C25 UNL     1      14.672  55.226  -1.051  1.00  0.00     0.090 A 
HETATM    6  N5  UNL     1      13.544  54.946  -1.739  1.00  0.00    -0.352 N 
ATOM      7  H5  UNL     1      13.547  54.261  -2.495  1.00  0.00     0.166 HD
ENDROOT
BRANCH   1   8
HETATM    8  N2  UNL     1      11.193  55.344  -2.063  1.00  0.00    -0.340 N 
HETATM    9  H10 UNL     1      10.409  55.319  -1.414  1.00  0.00     0.167 HD
BRANCH   8  10
HETATM   10  C9  UNL     1      10.748  55.788  -3.331  1.00  0.00     0.069 A 
HETATM   11  C7  UNL     1      11.023  55.000  -4.463  1.00  0.00     0.095 A 
HETATM   12  C6  UNL     1      10.684  55.441  -5.741  1.00  0.00     0.041 A 
HETATM   13  C5  UNL     1      10.030  56.665  -5.906  1.00  0.00     0.032 A 
HETATM   14  C4  UNL     1       9.725  57.456  -4.798  1.00  0.00     0.037 A 
HETATM   15  C26 UNL     1      10.102  57.016  -3.519  1.00  0.00     0.062 A 
BRANCH  11  16
HETATM   16  O2  UNL     1      11.675  53.804  -4.258  1.00  0.00    -0.354 OA
HETATM   17  C8  UNL     1      12.811  53.668  -5.115  1.00  0.00     0.210 C 
ENDBRANCH  11  16
BRANCH  14  18
HETATM   18  N1  UNL     1       9.050  58.692  -4.872  1.00  0.00    -0.324 N 
HETATM   19  C3  UNL     1       8.487  59.277  -5.988  1.00  0.00     0.244 C 
HETATM   20  O1  UNL     1       8.492  58.849  -7.133  1.00  0.00    -0.268 OA
HETATM   21  H4  UNL     1       8.976  59.192  -3.995  1.00  0.00     0.169 HD
BRANCH  19  22
HETATM   22  C2  UNL     1       7.823  60.573  -5.654  1.00  0.00     0.064 C 
HETATM   23  C1  UNL     1       8.473  61.733  -5.807  1.00  0.00     0.017 C 
ENDBRANCH  19  22
ENDBRANCH  14  18
ENDBRANCH   8  10
ENDBRANCH   1   8
BRANCH   3  24
HETATM   24  C13 UNL     1      13.615  57.794   1.403  1.00  0.00     0.072 A 
HETATM   25  N3  UNL     1      13.218  59.095   1.208  1.00  0.00    -0.334 N 
HETATM   26  C14 UNL     1      13.378  59.685   2.368  1.00  0.00     0.146 A 
ATOM     27  H3  UNL     1      12.871  59.513   0.345  1.00  0.00     0.168 HD
HETATM   28  N4  UNL     1      13.815  58.810   3.330  1.00  0.00    -0.329 N 
HETATM   29  C16 UNL     1      14.007  59.113   4.731  1.00  0.00     0.158 C 
HETATM   30  C17 UNL     1      14.008  57.580   2.721  1.00  0.00     0.074 A 
BRANCH  26  31
HETATM   31  S1  UNL     1      13.079  61.364   2.677  1.00  0.00    -0.098 SA
HETATM   32  C15 UNL     1      13.134  62.023   0.995  1.00  0.00     0.099 C 
ENDBRANCH  26  31
BRANCH  30  33
HETATM   33  C18 UNL     1      14.459  56.372   3.408  1.00  0.00    -0.007 A 
HETATM   34  C19 UNL     1      15.827  56.075   3.479  1.00  0.00     0.017 A 
HETATM   35  C20 UNL     1      16.264  54.941   4.165  1.00  0.00     0.043 A 
HETATM   36  C21 UNL     1      15.335  54.110   4.777  1.00  0.00     0.116 A 
HETATM   37  F1  UNL     1      15.755  53.029   5.445  1.00  0.00    -0.206 F 
HETATM   38  C22 UNL     1      13.975  54.388   4.716  1.00  0.00     0.043 A 
HETATM   39  C23 UNL     1      13.535  55.523   4.033  1.00  0.00     0.017 A 
ENDBRANCH  30  33
ENDBRANCH   3  24
TORSDOF 8
ENDMDL
MODEL 6
REMARK minimizedAffinity -7.16795492
REMARK  8 active torsions:
REMARK  status: ('A' for Active; 'I' for Inactive)
REMARK    1  A    between atoms: C2_2  and  C3_3 
REMARK       I    between atoms: C3_3  and  N1_5 
REMARK    2  A    between atoms: N1_5  and  C4_6 
REMARK    3  A    between atoms: C7_9  and  O2_10 
REMARK    4  A    between atoms: C9_12  and  N2_13 
REMARK    5  A    between atoms: N2_13  and  C10_14 
REMARK    6  A    between atoms: C12_16  and  C13_17 
REMARK    7  A    between atoms: C14_20  and  S1_21 
REMARK    8  A    between atoms: C17_25  and  C18_26 
ROOT
HETATM    1  C10 UNL     1      13.057  55.907  -0.499  1.00  0.00     0.106 A 
HETATM    2  C11 UNL     1      12.951  56.513   0.752  1.00  0.00     0.062 A 
HETATM    3  C12 UNL     1      14.102  56.935   1.421  1.00  0.00    -0.002 A 
HETATM    4  C24 UNL     1      15.341  56.696   0.834  1.00  0.00     0.031 A 
HETATM    5  C25 UNL     1      15.367  56.077  -0.399  1.00  0.00     0.090 A 
HETATM    6  N5  UNL     1      14.261  55.682  -1.067  1.00  0.00    -0.352 N 
ATOM      7  H5  UNL     1      14.334  55.225  -1.977  1.00  0.00     0.166 HD
ENDROOT
BRANCH   1   8
HETATM    8  N2  UNL     1      11.862  55.504  -1.128  1.00  0.00    -0.340 N 
HETATM    9  H10 UNL     1      11.077  55.502  -0.481  1.00  0.00     0.167 HD
BRANCH   8  10
HETATM   10  C9  UNL     1      11.400  55.778  -2.438  1.00  0.00     0.069 A 
HETATM   11  C7  UNL     1      11.820  54.949  -3.494  1.00  0.00     0.095 A 
HETATM   12  C6  UNL     1      11.464  55.234  -4.812  1.00  0.00     0.041 A 
HETATM   13  C5  UNL     1      10.648  56.334  -5.091  1.00  0.00     0.032 A 
HETATM   14  C4  UNL     1      10.198  57.158  -4.059  1.00  0.00     0.037 A 
HETATM   15  C26 UNL     1      10.593  56.880  -2.741  1.00  0.00     0.062 A 
BRANCH  11  16
HETATM   16  O2  UNL     1      12.629  53.881  -3.177  1.00  0.00    -0.354 OA
HETATM   17  C8  UNL     1      12.172  52.672  -3.789  1.00  0.00     0.210 C 
ENDBRANCH  11  16
BRANCH  14  18
HETATM   18  N1  UNL     1       9.357  58.274  -4.250  1.00  0.00    -0.324 N 
HETATM   19  C3  UNL     1       8.730  58.665  -5.415  1.00  0.00     0.244 C 
HETATM   20  O1  UNL     1       8.807  58.133  -6.514  1.00  0.00    -0.268 OA
HETATM   21  H4  UNL     1       9.204  58.840  -3.425  1.00  0.00     0.169 HD
BRANCH  19  22
HETATM   22  C2  UNL     1       7.887  59.880  -5.206  1.00  0.00     0.064 C 
HETATM   23  C1  UNL     1       7.827  60.840  -6.137  1.00  0.00     0.017 C 
ENDBRANCH  19  22
ENDBRANCH  14  18
ENDBRANCH   8  10
ENDBRANCH   1   8
BRANCH   3  24
HETATM   24  C13 UNL     1      14.044  57.598   2.711  1.00  0.00     0.072 A 
HETATM   25  N3  UNL     1      13.533  58.867   2.846  1.00  0.00    -0.334 N 
HETATM   26  C14 UNL     1      13.627  59.145   4.123  1.00  0.00     0.146 A 
ATOM     27  H3  UNL     1      13.160  59.464   2.109  1.00  0.00     0.168 HD
HETATM   28  N4  UNL     1      14.131  58.090   4.841  1.00  0.00    -0.329 N 
HETATM   29  C16 UNL     1      14.279  58.032   6.278  1.00  0.00     0.158 C 
HETATM   30  C17 UNL     1      14.440  57.082   3.941  1.00  0.00     0.074 A 
BRANCH  26  31
HETATM   31  S1  UNL     1      13.174  60.654   4.846  1.00  0.00    -0.098 SA
HETATM   32  C15 UNL     1      13.057  61.700   3.376  1.00  0.00     0.099 C 
ENDBRANCH  26  31
BRANCH  30  33
HETATM   33  C18 UNL     1      14.992  55.779   4.307  1.00  0.00    -0.007 A 
HETATM   34  C19 UNL     1      16.369  55.545   4.200  1.00  0.00     0.017 A 
HETATM   35  C20 UNL     1      16.904  54.314   4.582  1.00  0.00     0.043 A 
HETATM   36  C21 UNL     1      16.062  53.323   5.071  1.00  0.00     0.116 A 
HETATM   37  F1  UNL     1      16.577  52.147   5.449  1.00  0.00    -0.206 F 
HETATM   38  C22 UNL     1      14.694  53.538   5.184  1.00  0.00     0.043 A 
HETATM   39  C23 UNL     1      14.157  54.768   4.804  1.00  0.00     0.017 A 
ENDBRANCH  30  33
ENDBRANCH   3  24
TORSDOF 8
ENDMDL
MODEL 7
REMARK minimizedAffinity -7.15257454
REMARK  8 active torsions:
REMARK  status: ('A' for Active; 'I' for Inactive)
REMARK    1  A    between atoms: C2_2  and  C3_3 
REMARK       I    between atoms: C3_3  and  N1_5 
REMARK    2  A    between atoms: N1_5  and  C4_6 
REMARK    3  A    between atoms: C7_9  and  O2_10 
REMARK    4  A    between atoms: C9_12  and  N2_13 
REMARK    5  A    between atoms: N2_13  and  C10_14 
REMARK    6  A    between atoms: C12_16  and  C13_17 
REMARK    7  A    between atoms: C14_20  and  S1_21 
REMARK    8  A    between atoms: C17_25  and  C18_26 
ROOT
HETATM    1  C10 UNL     1      13.919  35.968  17.398  1.00  0.00     0.106 A 
HETATM    2  C11 UNL     1      13.655  36.093  18.761  1.00  0.00     0.062 A 
HETATM    3  C12 UNL     1      12.339  36.020  19.223  1.00  0.00    -0.002 A 
HETATM    4  C24 UNL     1      11.313  35.867  18.296  1.00  0.00     0.031 A 
HETATM    5  C25 UNL     1      11.651  35.768  16.962  1.00  0.00     0.090 A 
HETATM    6  N5  UNL     1      12.920  35.816  16.502  1.00  0.00    -0.352 N 
ATOM      7  H5  UNL     1      13.119  35.740  15.504  1.00  0.00     0.166 HD
ENDROOT
BRANCH   1   8
HETATM    8  N2  UNL     1      15.266  36.047  16.988  1.00  0.00    -0.340 N 
HETATM    9  H10 UNL     1      15.710  35.131  16.976  1.00  0.00     0.167 HD
BRANCH   8  10
HETATM   10  C9  UNL     1      15.860  36.879  16.010  1.00  0.00     0.069 A 
HETATM   11  C7  UNL     1      15.567  38.255  16.017  1.00  0.00     0.095 A 
HETATM   12  C6  UNL     1      16.058  39.096  15.020  1.00  0.00     0.041 A 
HETATM   13  C5  UNL     1      16.883  38.581  14.016  1.00  0.00     0.032 A 
HETATM   14  C4  UNL     1      17.208  37.225  13.999  1.00  0.00     0.037 A 
HETATM   15  C26 UNL     1      16.680  36.382  14.989  1.00  0.00     0.062 A 
BRANCH  11  16
HETATM   16  O2  UNL     1      14.744  38.720  17.019  1.00  0.00    -0.354 OA
HETATM   17  C8  UNL     1      15.422  39.648  17.870  1.00  0.00     0.210 C 
ENDBRANCH  11  16
BRANCH  14  18
HETATM   18  N1  UNL     1      18.049  36.627  13.037  1.00  0.00    -0.324 N 
HETATM   19  C3  UNL     1      18.009  36.790  11.667  1.00  0.00     0.244 C 
HETATM   20  O1  UNL     1      17.217  37.463  11.023  1.00  0.00    -0.268 OA
HETATM   21  H4  UNL     1      18.760  36.014  13.414  1.00  0.00     0.169 HD
BRANCH  19  22
HETATM   22  C2  UNL     1      19.094  36.020  10.989  1.00  0.00     0.064 C 
HETATM   23  C1  UNL     1      20.350  36.056  11.453  1.00  0.00     0.017 C 
ENDBRANCH  19  22
ENDBRANCH  14  18
ENDBRANCH   8  10
ENDBRANCH   1   8
BRANCH   3  24
HETATM   24  C13 UNL     1      12.012  36.112  20.635  1.00  0.00     0.072 A 
HETATM   25  N3  UNL     1      12.969  36.401  21.578  1.00  0.00    -0.334 N 
HETATM   26  C14 UNL     1      12.334  36.413  22.724  1.00  0.00     0.146 A 
ATOM     27  H3  UNL     1      13.962  36.570  21.420  1.00  0.00     0.168 HD
HETATM   28  N4  UNL     1      10.989  36.195  22.566  1.00  0.00    -0.329 N 
HETATM   29  C16 UNL     1       9.992  36.233  23.613  1.00  0.00     0.158 C 
HETATM   30  C17 UNL     1      10.758  35.965  21.219  1.00  0.00     0.074 A 
BRANCH  26  31
HETATM   31  S1  UNL     1      13.078  36.673  24.268  1.00  0.00    -0.098 SA
HETATM   32  C15 UNL     1      14.802  36.892  23.770  1.00  0.00     0.099 C 
ENDBRANCH  26  31
BRANCH  30  33
HETATM   33  C18 UNL     1       9.446  35.703  20.632  1.00  0.00    -0.007 A 
HETATM   34  C19 UNL     1       8.854  36.649  19.784  1.00  0.00     0.017 A 
HETATM   35  C20 UNL     1       7.617  36.386  19.194  1.00  0.00     0.043 A 
HETATM   36  C21 UNL     1       6.978  35.180  19.450  1.00  0.00     0.116 A 
HETATM   37  F1  UNL     1       5.797  34.923  18.875  1.00  0.00    -0.206 F 
HETATM   38  C22 UNL     1       7.550  34.230  20.288  1.00  0.00     0.043 A 
HETATM   39  C23 UNL     1       8.787  34.490  20.878  1.00  0.00     0.017 A 
ENDBRANCH  30  33
ENDBRANCH   3  24
TORSDOF 8
ENDMDL
MODEL 8
REMARK minimizedAffinity -7.03930426
REMARK  8 active torsions:
REMARK  status: ('A' for Active; 'I' for Inactive)
REMARK    1  A    between atoms: C2_2  and  C3_3 
REMARK       I    between atoms: C3_3  and  N1_5 
REMARK    2  A    between atoms: N1_5  and  C4_6 
REMARK    3  A    between atoms: C7_9  and  O2_10 
REMARK    4  A    between atoms: C9_12  and  N2_13 
REMARK    5  A    between atoms: N2_13  and  C10_14 
REMARK    6  A    between atoms: C12_16  and  C13_17 
REMARK    7  A    between atoms: C14_20  and  S1_21 
REMARK    8  A    between atoms: C17_25  and  C18_26 
ROOT
HETATM    1  C10 UNL     1      13.215  54.507  -1.662  1.00  0.00     0.106 A 
HETATM    2  C11 UNL     1      14.216  55.297  -1.099  1.00  0.00     0.062 A 
HETATM    3  C12 UNL     1      13.881  56.496  -0.466  1.00  0.00    -0.002 A 
HETATM    4  C24 UNL     1      12.548  56.895  -0.452  1.00  0.00     0.031 A 
HETATM    5  C25 UNL     1      11.616  56.068  -1.044  1.00  0.00     0.090 A 
HETATM    6  N5  UNL     1      11.922  54.895  -1.642  1.00  0.00    -0.352 N 
ATOM      7  H5  UNL     1      11.195  54.319  -2.068  1.00  0.00     0.166 HD
ENDROOT
BRANCH   1   8
HETATM    8  N2  UNL     1      13.610  53.306  -2.285  1.00  0.00    -0.340 N 
HETATM    9  H10 UNL     1      14.454  52.923  -1.865  1.00  0.00     0.167 HD
BRANCH   8  10
HETATM   10  C9  UNL     1      12.813  52.255  -2.798  1.00  0.00     0.069 A 
HETATM   11  C7  UNL     1      12.833  51.998  -4.181  1.00  0.00     0.095 A 
HETATM   12  C6  UNL     1      11.997  51.034  -4.742  1.00  0.00     0.041 A 
HETATM   13  C5  UNL     1      11.151  50.282  -3.921  1.00  0.00     0.032 A 
HETATM   14  C4  UNL     1      11.128  50.500  -2.544  1.00  0.00     0.037 A 
HETATM   15  C26 UNL     1      11.950  51.498  -1.996  1.00  0.00     0.062 A 
BRANCH  11  16
HETATM   16  O2  UNL     1      13.675  52.766  -4.954  1.00  0.00    -0.354 OA
HETATM   17  C8  UNL     1      12.999  53.311  -6.090  1.00  0.00     0.210 C 
ENDBRANCH  11  16
BRANCH  14  18
HETATM   18  N1  UNL     1      10.322  49.774  -1.643  1.00  0.00    -0.324 N 
HETATM   19  C3  UNL     1      10.508  48.479  -1.205  1.00  0.00     0.244 C 
HETATM   20  O1  UNL     1      11.392  47.702  -1.537  1.00  0.00    -0.268 OA
HETATM   21  H4  UNL     1       9.522  50.279  -1.284  1.00  0.00     0.169 HD
BRANCH  19  22
HETATM   22  C2  UNL     1       9.461  48.077  -0.218  1.00  0.00     0.064 C 
HETATM   23  C1  UNL     1       9.394  46.818   0.232  1.00  0.00     0.017 C 
ENDBRANCH  19  22
ENDBRANCH  14  18
ENDBRANCH   8  10
ENDBRANCH   1   8
BRANCH   3  24
HETATM   24  C13 UNL     1      14.881  57.341   0.163  1.00  0.00     0.072 A 
HETATM   25  N3  UNL     1      15.453  58.397  -0.504  1.00  0.00    -0.334 N 
HETATM   26  C14 UNL     1      16.290  58.934   0.349  1.00  0.00     0.146 A 
ATOM     27  H3  UNL     1      15.267  58.698  -1.460  1.00  0.00     0.168 HD
HETATM   28  N4  UNL     1      16.251  58.306   1.569  1.00  0.00    -0.329 N 
HETATM   29  C16 UNL     1      16.979  58.702   2.753  1.00  0.00     0.158 C 
HETATM   30  C17 UNL     1      15.365  57.245   1.464  1.00  0.00     0.074 A 
BRANCH  26  31
HETATM   31  S1  UNL     1      17.329  60.279   0.008  1.00  0.00    -0.098 SA
HETATM   32  C15 UNL     1      18.426  59.542  -1.226  1.00  0.00     0.099 C 
ENDBRANCH  26  31
BRANCH  30  33
HETATM   33  C18 UNL     1      15.030  56.329   2.552  1.00  0.00    -0.007 A 
HETATM   34  C19 UNL     1      16.042  55.600   3.193  1.00  0.00     0.017 A 
HETATM   35  C20 UNL     1      15.730  54.752   4.256  1.00  0.00     0.043 A 
HETATM   36  C21 UNL     1      14.411  54.636   4.676  1.00  0.00     0.116 A 
HETATM   37  F1  UNL     1      14.114  53.831   5.703  1.00  0.00    -0.206 F 
HETATM   38  C22 UNL     1      13.396  55.350   4.052  1.00  0.00     0.043 A 
HETATM   39  C23 UNL     1      13.705  56.201   2.990  1.00  0.00     0.017 A 
ENDBRANCH  30  33
ENDBRANCH   3  24
TORSDOF 8
ENDMDL
MODEL 9
REMARK minimizedAffinity -7.01346111
REMARK  8 active torsions:
REMARK  status: ('A' for Active; 'I' for Inactive)
REMARK    1  A    between atoms: C2_2  and  C3_3 
REMARK       I    between atoms: C3_3  and  N1_5 
REMARK    2  A    between atoms: N1_5  and  C4_6 
REMARK    3  A    between atoms: C7_9  and  O2_10 
REMARK    4  A    between atoms: C9_12  and  N2_13 
REMARK    5  A    between atoms: N2_13  and  C10_14 
REMARK    6  A    between atoms: C12_16  and  C13_17 
REMARK    7  A    between atoms: C14_20  and  S1_21 
REMARK    8  A    between atoms: C17_25  and  C18_26 
ROOT
HETATM    1  C10 UNL     1       2.359  64.911  -2.677  1.00  0.00     0.106 A 
HETATM    2  C11 UNL     1       1.577  65.678  -1.815  1.00  0.00     0.062 A 
HETATM    3  C12 UNL     1       0.309  65.229  -1.439  1.00  0.00    -0.002 A 
HETATM    4  C24 UNL     1      -0.162  64.035  -1.977  1.00  0.00     0.031 A 
HETATM    5  C25 UNL     1       0.662  63.339  -2.837  1.00  0.00     0.090 A 
HETATM    6  N5  UNL     1       1.899  63.751  -3.193  1.00  0.00    -0.352 N 
ATOM      7  H5  UNL     1       2.470  63.201  -3.835  1.00  0.00     0.166 HD
ENDROOT
BRANCH   1   8
HETATM    8  N2  UNL     1       3.631  65.412  -3.019  1.00  0.00    -0.340 N 
HETATM    9  H10 UNL     1       4.301  65.286  -2.264  1.00  0.00     0.167 HD
BRANCH   8  10
HETATM   10  C9  UNL     1       4.303  65.384  -4.264  1.00  0.00     0.069 A 
HETATM   11  C7  UNL     1       3.636  65.860  -5.408  1.00  0.00     0.095 A 
HETATM   12  C6  UNL     1       4.225  65.767  -6.669  1.00  0.00     0.041 A 
HETATM   13  C5  UNL     1       5.508  65.231  -6.802  1.00  0.00     0.032 A 
HETATM   14  C4  UNL     1       6.201  64.773  -5.680  1.00  0.00     0.037 A 
HETATM   15  C26 UNL     1       5.583  64.840  -4.422  1.00  0.00     0.062 A 
BRANCH  11  16
HETATM   16  O2  UNL     1       2.371  66.374  -5.234  1.00  0.00    -0.354 OA
HETATM   17  C8  UNL     1       1.453  65.855  -6.200  1.00  0.00     0.210 C 
ENDBRANCH  11  16
BRANCH  14  18
HETATM   18  N1  UNL     1       7.505  64.237  -5.722  1.00  0.00    -0.324 N 
HETATM   19  C3  UNL     1       7.870  62.908  -5.672  1.00  0.00     0.244 C 
HETATM   20  O1  UNL     1       7.132  61.939  -5.553  1.00  0.00    -0.268 OA
HETATM   21  H4  UNL     1       8.245  64.922  -5.802  1.00  0.00     0.169 HD
BRANCH  19  22
HETATM   22  C2  UNL     1       9.349  62.738  -5.785  1.00  0.00     0.064 C 
HETATM   23  C1  UNL     1       9.879  61.554  -6.115  1.00  0.00     0.017 C 
ENDBRANCH  19  22
ENDBRANCH  14  18
ENDBRANCH   8  10
ENDBRANCH   1   8
BRANCH   3  24
HETATM   24  C13 UNL     1      -0.532  65.974  -0.520  1.00  0.00     0.072 A 
HETATM   25  N3  UNL     1      -0.086  66.341   0.727  1.00  0.00    -0.334 N 
HETATM   26  C14 UNL     1      -1.082  66.995   1.273  1.00  0.00     0.146 A 
ATOM     27  H3  UNL     1       0.826  66.147   1.139  1.00  0.00     0.168 HD
HETATM   28  N4  UNL     1      -2.146  67.117   0.414  1.00  0.00    -0.329 N 
HETATM   29  C16 UNL     1      -3.364  67.853   0.669  1.00  0.00     0.158 C 
HETATM   30  C17 UNL     1      -1.825  66.433  -0.748  1.00  0.00     0.074 A 
BRANCH  26  31
HETATM   31  S1  UNL     1      -1.083  67.640   2.881  1.00  0.00    -0.098 SA
HETATM   32  C15 UNL     1      -0.213  66.324   3.764  1.00  0.00     0.099 C 
ENDBRANCH  26  31
BRANCH  30  33
HETATM   33  C18 UNL     1      -2.692  66.332  -1.921  1.00  0.00    -0.007 A 
HETATM   34  C19 UNL     1      -3.718  65.379  -1.956  1.00  0.00     0.017 A 
HETATM   35  C20 UNL     1      -4.569  65.304  -3.059  1.00  0.00     0.043 A 
HETATM   36  C21 UNL     1      -4.394  66.182  -4.121  1.00  0.00     0.116 A 
HETATM   37  F1  UNL     1      -5.218  66.117  -5.173  1.00  0.00    -0.206 F 
HETATM   38  C22 UNL     1      -3.382  67.133  -4.104  1.00  0.00     0.043 A 
HETATM   39  C23 UNL     1      -2.530  67.212  -3.001  1.00  0.00     0.017 A 
ENDBRANCH  30  33
ENDBRANCH   3  24
TORSDOF 8
ENDMDL
