MODEL 1
REMARK minimizedAffinity -9.64118385
REMARK  7 active torsions:
REMARK  status: ('A' for Active; 'I' for Inactive)
REMARK    1  A    between atoms: C8_10  and  N2_11 
REMARK    2  A    between atoms: N2_11  and  C9_12 
REMARK    3  A    between atoms: C10_15  and  O1_16 
REMARK    4  A    between atoms: C12_18  and  C13_19 
REMARK    5  A    between atoms: C13_19  and  S1_20 
REMARK    6  A    between atoms: S1_20  and  C14_21 
REMARK    7  A    between atoms: N7_26  and  C15_27 
ROOT
HETATM    1  C9  UNL     1      12.783  35.664  17.346  1.00  0.00     0.699 A 
HETATM    2  N3  UNL     1      13.113  36.745  18.059  1.00  0.00    -0.170 N 
ATOM      3  H3  UNL     1      12.523  37.092  18.815  1.00  0.00     0.186 HD
HETATM    4  C10 UNL     1      14.255  37.346  17.730  1.00  0.00     0.157 A 
HETATM    5  C11 UNL     1      15.099  36.959  16.731  1.00  0.00     0.082 A 
HETATM    6  C12 UNL     1      14.695  35.841  16.040  1.00  0.00     0.040 A 
HETATM    7  N8  UNL     1      13.539  35.196  16.332  1.00  0.00    -0.194 N 
ATOM      8  H8  UNL     1      13.248  34.377  15.799  1.00  0.00     0.184 HD
ENDROOT
BRANCH   1   9
HETATM    9  N2  UNL     1      11.626  34.958  17.591  1.00  0.00    -0.022 N 
HETATM   10  H9  UNL     1      11.584  34.070  17.129  1.00  0.00     0.203 HD
BRANCH   9  11
HETATM   11  C8  UNL     1      10.526  35.224  18.379  1.00  0.00     0.697 A 
HETATM   12  N1  UNL     1       9.521  35.998  17.952  1.00  0.00    -0.194 N 
HETATM   13  C6  UNL     1       8.476  36.209  18.780  1.00  0.00     0.035 A 
ATOM     14  H1  UNL     1       9.545  36.420  17.024  1.00  0.00     0.184 HD
HETATM   15  C5  UNL     1       8.403  35.644  20.056  1.00  0.00     0.014 A 
HETATM   16  C7  UNL     1       7.391  37.091  18.235  1.00  0.00     0.070 C 
HETATM   17  C4  UNL     1       7.339  35.822  20.973  1.00  0.00     0.016 A 
HETATM   18  C21 UNL     1       9.496  34.848  20.406  1.00  0.00     0.061 A 
HETATM   19  C3  UNL     1       7.366  35.206  22.223  1.00  0.00     0.008 A 
HETATM   20  C2  UNL     1       8.446  34.399  22.573  1.00  0.00    -0.060 A 
HETATM   21  C1  UNL     1       8.515  33.744  23.921  1.00  0.00     0.048 C 
HETATM   22  C22 UNL     1       9.500  34.243  21.659  1.00  0.00     0.037 A 
HETATM   23  N9  UNL     1      10.536  34.642  19.588  1.00  0.00    -0.190 N 
ATOM     24  H9  UNL     1      11.319  34.055  19.877  1.00  0.00     0.184 HD
ENDBRANCH   9  11
ENDBRANCH   1   9
BRANCH   4  25
HETATM   25  O1  UNL     1      14.538  38.435  18.487  1.00  0.00    -0.346 OA
HETATM   26  H10 UNL     1      13.772  38.415  19.092  1.00  0.00     0.219 HD
ENDBRANCH   4  25
BRANCH   6  27
HETATM   27  C13 UNL     1      15.509  35.296  14.895  1.00  0.00     0.140 C 
BRANCH  27  28
HETATM   28  S1  UNL     1      17.218  35.911  14.825  1.00  0.00    -0.085 SA
BRANCH  28  29
HETATM   29  C14 UNL     1      17.247  36.568  13.225  1.00  0.00     0.177 A 
HETATM   30  N4  UNL     1      17.052  37.844  12.977  1.00  0.00    -0.264 N 
HETATM   31  N5  UNL     1      17.281  38.013  11.643  1.00  0.00    -0.006 NA
ATOM     32  H4  UNL     1      16.783  38.564  13.648  1.00  0.00     0.186 HD
HETATM   33  N6  UNL     1      17.610  36.867  11.069  1.00  0.00     0.001 NA
HETATM   34  N7  UNL     1      17.547  35.909  12.038  1.00  0.00    -0.219 N 
BRANCH  34  35
HETATM   35  C15 UNL     1      17.777  34.544  11.698  1.00  0.00     0.056 A 
HETATM   36  C16 UNL     1      18.832  34.129  10.877  1.00  0.00     0.031 A 
HETATM   37  C17 UNL     1      19.005  32.773  10.579  1.00  0.00     0.002 A 
HETATM   38  C18 UNL     1      18.139  31.818  11.102  1.00  0.00     0.000 A 
HETATM   39  C19 UNL     1      17.097  32.213  11.934  1.00  0.00     0.002 A 
HETATM   40  C20 UNL     1      16.918  33.565  12.235  1.00  0.00     0.031 A 
ENDBRANCH  34  35
ENDBRANCH  28  29
ENDBRANCH  27  28
ENDBRANCH   6  27
TORSDOF 7
ENDMDL
MODEL 2
REMARK minimizedAffinity -9.31070709
REMARK  7 active torsions:
REMARK  status: ('A' for Active; 'I' for Inactive)
REMARK    1  A    between atoms: C8_10  and  N2_11 
REMARK    2  A    between atoms: N2_11  and  C9_12 
REMARK    3  A    between atoms: C10_15  and  O1_16 
REMARK    4  A    between atoms: C12_18  and  C13_19 
REMARK    5  A    between atoms: C13_19  and  S1_20 
REMARK    6  A    between atoms: S1_20  and  C14_21 
REMARK    7  A    between atoms: N7_26  and  C15_27 
ROOT
HETATM    1  C9  UNL     1      14.156  36.989  15.909  1.00  0.00     0.699 A 
HETATM    2  N3  UNL     1      14.025  38.320  15.928  1.00  0.00    -0.170 N 
ATOM      3  H3  UNL     1      13.117  38.769  16.044  1.00  0.00     0.186 HD
HETATM    4  C10 UNL     1      15.145  39.027  15.787  1.00  0.00     0.157 A 
HETATM    5  C11 UNL     1      16.396  38.512  15.618  1.00  0.00     0.082 A 
HETATM    6  C12 UNL     1      16.454  37.138  15.607  1.00  0.00     0.040 A 
HETATM    7  N8  UNL     1      15.344  36.372  15.741  1.00  0.00    -0.194 N 
ATOM      8  H8  UNL     1      15.405  35.355  15.716  1.00  0.00     0.184 HD
ENDROOT
BRANCH   1   9
HETATM    9  N2  UNL     1      13.072  36.151  16.043  1.00  0.00    -0.022 N 
HETATM   10  H9  UNL     1      12.757  35.749  15.181  1.00  0.00     0.203 HD
BRANCH   9  11
HETATM   11  C8  UNL     1      12.355  35.730  17.144  1.00  0.00     0.697 A 
HETATM   12  N1  UNL     1      12.935  35.076  18.157  1.00  0.00    -0.194 N 
HETATM   13  C6  UNL     1      12.167  34.700  19.202  1.00  0.00     0.035 A 
ATOM     14  H1  UNL     1      13.933  34.867  18.140  1.00  0.00     0.184 HD
HETATM   15  C5  UNL     1      10.799  34.975  19.266  1.00  0.00     0.014 A 
HETATM   16  C7  UNL     1      12.886  33.967  20.296  1.00  0.00     0.070 C 
HETATM   17  C4  UNL     1       9.937  34.611  20.329  1.00  0.00     0.016 A 
HETATM   18  C21 UNL     1      10.290  35.667  18.164  1.00  0.00     0.061 A 
HETATM   19  C3  UNL     1       8.583  34.940  20.292  1.00  0.00     0.008 A 
HETATM   20  C2  UNL     1       8.071  35.643  19.203  1.00  0.00    -0.060 A 
HETATM   21  C1  UNL     1       6.614  35.988  19.124  1.00  0.00     0.048 C 
HETATM   22  C22 UNL     1       8.935  35.984  18.150  1.00  0.00     0.037 A 
HETATM   23  N9  UNL     1      11.049  36.036  17.124  1.00  0.00    -0.190 N 
ATOM     24  H9  UNL     1      10.643  36.540  16.335  1.00  0.00     0.184 HD
ENDBRANCH   9  11
ENDBRANCH   1   9
BRANCH   4  25
HETATM   25  O1  UNL     1      14.951  40.369  15.815  1.00  0.00    -0.346 OA
HETATM   26  H10 UNL     1      13.986  40.390  15.965  1.00  0.00     0.219 HD
ENDBRANCH   4  25
BRANCH   6  27
HETATM   27  C13 UNL     1      17.762  36.415  15.411  1.00  0.00     0.140 C 
BRANCH  27  28
HETATM   28  S1  UNL     1      17.628  34.853  14.490  1.00  0.00    -0.085 SA
BRANCH  28  29
HETATM   29  C14 UNL     1      17.450  35.457  12.879  1.00  0.00     0.177 A 
HETATM   30  N4  UNL     1      17.201  36.722  12.618  1.00  0.00    -0.264 N 
HETATM   31  N5  UNL     1      17.265  36.850  11.261  1.00  0.00    -0.006 NA
ATOM     32  H4  UNL     1      17.001  37.458  13.293  1.00  0.00     0.186 HD
HETATM   33  N6  UNL     1      17.545  35.691  10.687  1.00  0.00     0.001 NA
HETATM   34  N7  UNL     1      17.618  34.765  11.685  1.00  0.00    -0.219 N 
BRANCH  34  35
HETATM   35  C15 UNL     1      17.832  33.393  11.362  1.00  0.00     0.056 A 
HETATM   36  C16 UNL     1      18.658  32.977  10.311  1.00  0.00     0.031 A 
HETATM   37  C17 UNL     1      18.828  31.614  10.043  1.00  0.00     0.002 A 
HETATM   38  C18 UNL     1      18.189  30.655  10.822  1.00  0.00     0.000 A 
HETATM   39  C19 UNL     1      17.379  31.052  11.880  1.00  0.00     0.002 A 
HETATM   40  C20 UNL     1      17.205  32.411  12.154  1.00  0.00     0.031 A 
ENDBRANCH  34  35
ENDBRANCH  28  29
ENDBRANCH  27  28
ENDBRANCH   6  27
TORSDOF 7
ENDMDL
MODEL 3
REMARK minimizedAffinity -8.79383564
REMARK  7 active torsions:
REMARK  status: ('A' for Active; 'I' for Inactive)
REMARK    1  A    between atoms: C8_10  and  N2_11 
REMARK    2  A    between atoms: N2_11  and  C9_12 
REMARK    3  A    between atoms: C10_15  and  O1_16 
REMARK    4  A    between atoms: C12_18  and  C13_19 
REMARK    5  A    between atoms: C13_19  and  S1_20 
REMARK    6  A    between atoms: S1_20  and  C14_21 
REMARK    7  A    between atoms: N7_26  and  C15_27 
ROOT
HETATM    1  C9  UNL     1      14.601  37.063  17.368  1.00  0.00     0.699 A 
HETATM    2  N3  UNL     1      15.818  36.530  17.511  1.00  0.00    -0.170 N 
ATOM      3  H3  UNL     1      16.665  37.064  17.316  1.00  0.00     0.186 HD
HETATM    4  C10 UNL     1      15.865  35.264  17.922  1.00  0.00     0.157 A 
HETATM    5  C11 UNL     1      14.789  34.475  18.195  1.00  0.00     0.082 A 
HETATM    6  C12 UNL     1      13.569  35.089  18.026  1.00  0.00     0.040 A 
HETATM    7  N8  UNL     1      13.466  36.373  17.605  1.00  0.00    -0.194 N 
ATOM      8  H8  UNL     1      12.553  36.807  17.470  1.00  0.00     0.184 HD
ENDROOT
BRANCH   1   9
HETATM    9  N2  UNL     1      14.422  38.363  16.948  1.00  0.00    -0.022 N 
HETATM   10  H9  UNL     1      13.619  38.813  17.344  1.00  0.00     0.203 HD
BRANCH   9  11
HETATM   11  C8  UNL     1      15.156  39.177  16.112  1.00  0.00     0.697 A 
HETATM   12  N1  UNL     1      15.583  38.759  14.914  1.00  0.00    -0.194 N 
HETATM   13  C6  UNL     1      16.293  39.617  14.151  1.00  0.00     0.035 A 
ATOM     14  H1  UNL     1      15.377  37.816  14.587  1.00  0.00     0.184 HD
HETATM   15  C5  UNL     1      16.589  40.920  14.560  1.00  0.00     0.014 A 
HETATM   16  C7  UNL     1      16.741  39.076  12.825  1.00  0.00     0.070 C 
HETATM   17  C4  UNL     1      17.326  41.868  13.811  1.00  0.00     0.016 A 
HETATM   18  C21 UNL     1      16.094  41.262  15.821  1.00  0.00     0.061 A 
HETATM   19  C3  UNL     1      17.561  43.146  14.316  1.00  0.00     0.008 A 
HETATM   20  C2  UNL     1      17.058  43.499  15.567  1.00  0.00    -0.060 A 
HETATM   21  C1  UNL     1      17.317  44.858  16.146  1.00  0.00     0.048 C 
HETATM   22  C22 UNL     1      16.341  42.543  16.304  1.00  0.00     0.037 A 
HETATM   23  N9  UNL     1      15.394  40.411  16.583  1.00  0.00    -0.190 N 
ATOM     24  H9  UNL     1      15.049  40.695  17.500  1.00  0.00     0.184 HD
ENDBRANCH   9  11
ENDBRANCH   1   9
BRANCH   4  25
HETATM   25  O1  UNL     1      17.126  34.778  18.049  1.00  0.00    -0.346 OA
HETATM   26  H10 UNL     1      17.633  35.577  17.806  1.00  0.00     0.219 HD
ENDBRANCH   4  25
BRANCH   6  27
HETATM   27  C13 UNL     1      12.281  34.346  18.270  1.00  0.00     0.140 C 
BRANCH  27  28
HETATM   28  S1  UNL     1      12.006  33.864  20.001  1.00  0.00    -0.085 SA
BRANCH  28  29
HETATM   29  C14 UNL     1      11.944  35.421  20.750  1.00  0.00     0.177 A 
HETATM   30  N4  UNL     1      12.952  35.924  21.429  1.00  0.00    -0.264 N 
HETATM   31  N5  UNL     1      12.596  37.202  21.749  1.00  0.00    -0.006 NA
ATOM     32  H4  UNL     1      13.825  35.454  21.667  1.00  0.00     0.186 HD
HETATM   33  N6  UNL     1      11.392  37.491  21.283  1.00  0.00     0.001 NA
HETATM   34  N7  UNL     1      10.920  36.360  20.684  1.00  0.00    -0.219 N 
BRANCH  34  35
HETATM   35  C15 UNL     1       9.598  36.341  20.151  1.00  0.00     0.056 A 
HETATM   36  C16 UNL     1       9.293  36.764  18.853  1.00  0.00     0.031 A 
HETATM   37  C17 UNL     1       7.975  36.722  18.386  1.00  0.00     0.002 A 
HETATM   38  C18 UNL     1       6.951  36.250  19.202  1.00  0.00     0.000 A 
HETATM   39  C19 UNL     1       7.241  35.810  20.489  1.00  0.00     0.002 A 
HETATM   40  C20 UNL     1       8.555  35.850  20.961  1.00  0.00     0.031 A 
ENDBRANCH  34  35
ENDBRANCH  28  29
ENDBRANCH  27  28
ENDBRANCH   6  27
TORSDOF 7
ENDMDL
MODEL 4
REMARK minimizedAffinity -8.70552921
REMARK  7 active torsions:
REMARK  status: ('A' for Active; 'I' for Inactive)
REMARK    1  A    between atoms: C8_10  and  N2_11 
REMARK    2  A    between atoms: N2_11  and  C9_12 
REMARK    3  A    between atoms: C10_15  and  O1_16 
REMARK    4  A    between atoms: C12_18  and  C13_19 
REMARK    5  A    between atoms: C13_19  and  S1_20 
REMARK    6  A    between atoms: S1_20  and  C14_21 
REMARK    7  A    between atoms: N7_26  and  C15_27 
ROOT
HETATM    1  C9  UNL     1      12.874  35.735  17.043  1.00  0.00     0.699 A 
HETATM    2  N3  UNL     1      12.757  36.696  16.120  1.00  0.00    -0.170 N 
ATOM      3  H3  UNL     1      11.870  36.891  15.657  1.00  0.00     0.186 HD
HETATM    4  C10 UNL     1      13.861  37.384  15.839  1.00  0.00     0.157 A 
HETATM    5  C11 UNL     1      15.088  37.185  16.400  1.00  0.00     0.082 A 
HETATM    6  C12 UNL     1      15.134  36.181  17.339  1.00  0.00     0.040 A 
HETATM    7  N8  UNL     1      14.039  35.448  17.658  1.00  0.00    -0.194 N 
ATOM      8  H8  UNL     1      14.096  34.697  18.345  1.00  0.00     0.184 HD
ENDROOT
BRANCH   1   9
HETATM    9  N2  UNL     1      11.803  34.955  17.417  1.00  0.00    -0.022 N 
HETATM   10  H9  UNL     1      11.835  34.018  17.060  1.00  0.00     0.203 HD
BRANCH   9  11
HETATM   11  C8  UNL     1      10.709  35.203  18.220  1.00  0.00     0.697 A 
HETATM   12  N1  UNL     1       9.700  35.985  17.818  1.00  0.00    -0.194 N 
HETATM   13  C6  UNL     1       8.662  36.176  18.659  1.00  0.00     0.035 A 
ATOM     14  H1  UNL     1       9.716  36.426  16.899  1.00  0.00     0.184 HD
HETATM   15  C5  UNL     1       8.599  35.584  19.923  1.00  0.00     0.014 A 
HETATM   16  C7  UNL     1       7.572  37.069  18.141  1.00  0.00     0.070 C 
HETATM   17  C4  UNL     1       7.543  35.742  20.852  1.00  0.00     0.016 A 
HETATM   18  C21 UNL     1       9.696  34.782  20.246  1.00  0.00     0.061 A 
HETATM   19  C3  UNL     1       7.581  35.100  22.089  1.00  0.00     0.008 A 
HETATM   20  C2  UNL     1       8.665  34.286  22.413  1.00  0.00    -0.060 A 
HETATM   21  C1  UNL     1       8.745  33.603  23.745  1.00  0.00     0.048 C 
HETATM   22  C22 UNL     1       9.711  34.151  21.486  1.00  0.00     0.037 A 
HETATM   23  N9  UNL     1      10.730  34.594  19.416  1.00  0.00    -0.190 N 
ATOM     24  H9  UNL     1      11.515  34.002  19.686  1.00  0.00     0.184 HD
ENDBRANCH   9  11
ENDBRANCH   1   9
BRANCH   4  25
HETATM   25  O1  UNL     1      13.682  38.344  14.898  1.00  0.00    -0.346 OA
HETATM   26  H10 UNL     1      12.726  38.233  14.734  1.00  0.00     0.219 HD
ENDBRANCH   4  25
BRANCH   6  27
HETATM   27  C13 UNL     1      16.420  35.826  18.038  1.00  0.00     0.140 C 
BRANCH  27  28
HETATM   28  S1  UNL     1      17.183  34.276  17.470  1.00  0.00    -0.085 SA
BRANCH  28  29
HETATM   29  C14 UNL     1      18.515  34.902  16.561  1.00  0.00     0.177 A 
HETATM   30  N4  UNL     1      19.557  35.471  17.127  1.00  0.00    -0.264 N 
HETATM   31  N5  UNL     1      20.451  35.710  16.125  1.00  0.00    -0.006 NA
ATOM     32  H4  UNL     1      19.673  35.689  18.116  1.00  0.00     0.186 HD
HETATM   33  N6  UNL     1      19.979  35.303  14.958  1.00  0.00     0.001 NA
HETATM   34  N7  UNL     1      18.721  34.828  15.187  1.00  0.00    -0.219 N 
BRANCH  34  35
HETATM   35  C15 UNL     1      17.922  34.386  14.093  1.00  0.00     0.056 A 
HETATM   36  C16 UNL     1      16.759  35.047  13.682  1.00  0.00     0.031 A 
HETATM   37  C17 UNL     1      16.015  34.564  12.599  1.00  0.00     0.002 A 
HETATM   38  C18 UNL     1      16.426  33.427  11.911  1.00  0.00     0.000 A 
HETATM   39  C19 UNL     1      17.589  32.769  12.296  1.00  0.00     0.002 A 
HETATM   40  C20 UNL     1      18.336  33.246  13.376  1.00  0.00     0.031 A 
ENDBRANCH  34  35
ENDBRANCH  28  29
ENDBRANCH  27  28
ENDBRANCH   6  27
TORSDOF 7
ENDMDL
MODEL 5
REMARK minimizedAffinity -8.64812183
REMARK  7 active torsions:
REMARK  status: ('A' for Active; 'I' for Inactive)
REMARK    1  A    between atoms: C8_10  and  N2_11 
REMARK    2  A    between atoms: N2_11  and  C9_12 
REMARK    3  A    between atoms: C10_15  and  O1_16 
REMARK    4  A    between atoms: C12_18  and  C13_19 
REMARK    5  A    between atoms: C13_19  and  S1_20 
REMARK    6  A    between atoms: S1_20  and  C14_21 
REMARK    7  A    between atoms: N7_26  and  C15_27 
ROOT
HETATM    1  C9  UNL     1      13.722  36.038  18.625  1.00  0.00     0.699 A 
HETATM    2  N3  UNL     1      14.360  35.172  19.419  1.00  0.00    -0.170 N 
ATOM      3  H3  UNL     1      14.098  35.044  20.396  1.00  0.00     0.186 HD
HETATM    4  C10 UNL     1      15.357  34.486  18.865  1.00  0.00     0.157 A 
HETATM    5  C11 UNL     1      15.782  34.599  17.574  1.00  0.00     0.082 A 
HETATM    6  C12 UNL     1      15.081  35.509  16.818  1.00  0.00     0.040 A 
HETATM    7  N8  UNL     1      14.061  36.237  17.335  1.00  0.00    -0.194 N 
ATOM      8  H8  UNL     1      13.562  36.918  16.763  1.00  0.00     0.184 HD
ENDROOT
BRANCH   1   9
HETATM    9  N2  UNL     1      12.675  36.807  19.083  1.00  0.00    -0.022 N 
HETATM   10  H9  UNL     1      12.666  37.742  18.722  1.00  0.00     0.203 HD
BRANCH   9  11
HETATM   11  C8  UNL     1      11.615  36.528  19.920  1.00  0.00     0.697 A 
HETATM   12  N1  UNL     1      11.688  36.720  21.242  1.00  0.00    -0.194 N 
HETATM   13  C6  UNL     1      10.606  36.427  21.994  1.00  0.00     0.035 A 
ATOM     14  H1  UNL     1      12.540  37.078  21.671  1.00  0.00     0.184 HD
HETATM   15  C5  UNL     1       9.417  35.941  21.443  1.00  0.00     0.014 A 
HETATM   16  C7  UNL     1      10.765  36.663  23.468  1.00  0.00     0.070 C 
HETATM   17  C4  UNL     1       8.248  35.615  22.172  1.00  0.00     0.016 A 
HETATM   18  C21 UNL     1       9.439  35.782  20.056  1.00  0.00     0.061 A 
HETATM   19  C3  UNL     1       7.112  35.140  21.519  1.00  0.00     0.008 A 
HETATM   20  C2  UNL     1       7.121  34.992  20.133  1.00  0.00    -0.060 A 
HETATM   21  C1  UNL     1       5.923  34.459  19.407  1.00  0.00     0.048 C 
HETATM   22  C22 UNL     1       8.293  35.306  19.426  1.00  0.00     0.037 A 
HETATM   23  N9  UNL     1      10.513  36.067  19.308  1.00  0.00    -0.190 N 
ATOM     24  H9  UNL     1      10.494  35.937  18.297  1.00  0.00     0.184 HD
ENDBRANCH   9  11
ENDBRANCH   1   9
BRANCH   4  25
HETATM   25  O1  UNL     1      15.967  33.623  19.716  1.00  0.00    -0.346 OA
HETATM   26  H10 UNL     1      15.424  33.774  20.514  1.00  0.00     0.219 HD
ENDBRANCH   4  25
BRANCH   6  27
HETATM   27  C13 UNL     1      15.438  35.764  15.376  1.00  0.00     0.140 C 
BRANCH  27  28
HETATM   28  S1  UNL     1      17.220  35.935  15.061  1.00  0.00    -0.085 SA
BRANCH  28  29
HETATM   29  C14 UNL     1      17.190  36.627  13.476  1.00  0.00     0.177 A 
HETATM   30  N4  UNL     1      17.008  37.911  13.264  1.00  0.00    -0.264 N 
HETATM   31  N5  UNL     1      17.181  38.105  11.925  1.00  0.00    -0.006 NA
ATOM     32  H4  UNL     1      16.783  38.621  13.961  1.00  0.00     0.186 HD
HETATM   33  N6  UNL     1      17.462  36.967  11.312  1.00  0.00     0.001 NA
HETATM   34  N7  UNL     1      17.425  35.989  12.262  1.00  0.00    -0.219 N 
BRANCH  34  35
HETATM   35  C15 UNL     1      17.613  34.628  11.883  1.00  0.00     0.056 A 
HETATM   36  C16 UNL     1      16.735  33.604  12.256  1.00  0.00     0.031 A 
HETATM   37  C17 UNL     1      16.973  32.285  11.853  1.00  0.00     0.002 A 
HETATM   38  C18 UNL     1      18.080  31.975  11.069  1.00  0.00     0.000 A 
HETATM   39  C19 UNL     1      18.952  32.984  10.675  1.00  0.00     0.002 A 
HETATM   40  C20 UNL     1      18.720  34.302  11.074  1.00  0.00     0.031 A 
ENDBRANCH  34  35
ENDBRANCH  28  29
ENDBRANCH  27  28
ENDBRANCH   6  27
TORSDOF 7
ENDMDL
MODEL 6
REMARK minimizedAffinity -8.63660812
REMARK  7 active torsions:
REMARK  status: ('A' for Active; 'I' for Inactive)
REMARK    1  A    between atoms: C8_10  and  N2_11 
REMARK    2  A    between atoms: N2_11  and  C9_12 
REMARK    3  A    between atoms: C10_15  and  O1_16 
REMARK    4  A    between atoms: C12_18  and  C13_19 
REMARK    5  A    between atoms: C13_19  and  S1_20 
REMARK    6  A    between atoms: S1_20  and  C14_21 
REMARK    7  A    between atoms: N7_26  and  C15_27 
ROOT
HETATM    1  C9  UNL     1      11.877  54.619  -2.052  1.00  0.00     0.699 A 
HETATM    2  N3  UNL     1      11.056  55.169  -2.953  1.00  0.00    -0.170 N 
ATOM      3  H3  UNL     1      10.647  54.623  -3.711  1.00  0.00     0.186 HD
HETATM    4  C10 UNL     1      10.801  56.467  -2.806  1.00  0.00     0.157 A 
HETATM    5  C11 UNL     1      11.309  57.274  -1.832  1.00  0.00     0.082 A 
HETATM    6  C12 UNL     1      12.146  56.642  -0.942  1.00  0.00     0.040 A 
HETATM    7  N8  UNL     1      12.442  55.323  -1.050  1.00  0.00    -0.194 N 
ATOM      8  H8  UNL     1      13.077  54.875  -0.390  1.00  0.00     0.184 HD
ENDROOT
BRANCH   1   9
HETATM    9  N2  UNL     1      12.218  53.286  -2.099  1.00  0.00    -0.022 N 
HETATM   10  H9  UNL     1      13.104  53.075  -1.679  1.00  0.00     0.203 HD
BRANCH   9  11
HETATM   11  C8  UNL     1      11.558  52.175  -2.582  1.00  0.00     0.697 A 
HETATM   12  N1  UNL     1      11.252  52.044  -3.878  1.00  0.00    -0.194 N 
HETATM   13  C6  UNL     1      10.609  50.926  -4.276  1.00  0.00     0.035 A 
ATOM     14  H1  UNL     1      11.498  52.772  -4.549  1.00  0.00     0.184 HD
HETATM   15  C5  UNL     1      10.261  49.904  -3.390  1.00  0.00     0.014 A 
HETATM   16  C7  UNL     1      10.295  50.853  -5.742  1.00  0.00     0.070 C 
HETATM   17  C4  UNL     1       9.588  48.707  -3.739  1.00  0.00     0.016 A 
HETATM   18  C21 UNL     1      10.629  50.132  -2.062  1.00  0.00     0.061 A 
HETATM   19  C3  UNL     1       9.293  47.749  -2.771  1.00  0.00     0.008 A 
HETATM   20  C2  UNL     1       9.670  47.963  -1.447  1.00  0.00    -0.060 A 
HETATM   21  C1  UNL     1       9.343  46.961  -0.380  1.00  0.00     0.048 C 
HETATM   22  C22 UNL     1      10.324  49.160  -1.114  1.00  0.00     0.037 A 
HETATM   23  N9  UNL     1      11.263  51.243  -1.664  1.00  0.00    -0.190 N 
ATOM     24  H9  UNL     1      11.516  51.376  -0.685  1.00  0.00     0.184 HD
ENDBRANCH   9  11
ENDBRANCH   1   9
BRANCH   4  25
HETATM   25  O1  UNL     1       9.963  56.969  -3.747  1.00  0.00    -0.346 OA
HETATM   26  H10 UNL     1       9.781  56.154  -4.253  1.00  0.00     0.219 HD
ENDBRANCH   4  25
BRANCH   6  27
HETATM   27  C13 UNL     1      12.804  57.399   0.183  1.00  0.00     0.140 C 
BRANCH  27  28
HETATM   28  S1  UNL     1      13.984  56.420   1.160  1.00  0.00    -0.085 SA
BRANCH  28  29
HETATM   29  C14 UNL     1      13.771  57.143   2.717  1.00  0.00     0.177 A 
HETATM   30  N4  UNL     1      13.139  58.283   2.891  1.00  0.00    -0.264 N 
HETATM   31  N5  UNL     1      13.049  58.467   4.240  1.00  0.00    -0.006 NA
ATOM     32  H4  UNL     1      12.787  58.905   2.164  1.00  0.00     0.186 HD
HETATM   33  N6  UNL     1      13.614  57.465   4.895  1.00  0.00     0.001 NA
HETATM   34  N7  UNL     1      14.134  56.625   3.956  1.00  0.00    -0.219 N 
BRANCH  34  35
HETATM   35  C15 UNL     1      14.881  55.482   4.366  1.00  0.00     0.056 A 
HETATM   36  C16 UNL     1      14.290  54.350   4.937  1.00  0.00     0.031 A 
HETATM   37  C17 UNL     1      15.076  53.257   5.320  1.00  0.00     0.002 A 
HETATM   38  C18 UNL     1      16.454  53.278   5.129  1.00  0.00     0.000 A 
HETATM   39  C19 UNL     1      17.055  54.388   4.546  1.00  0.00     0.002 A 
HETATM   40  C20 UNL     1      16.275  55.481   4.162  1.00  0.00     0.031 A 
ENDBRANCH  34  35
ENDBRANCH  28  29
ENDBRANCH  27  28
ENDBRANCH   6  27
TORSDOF 7
ENDMDL
MODEL 7
REMARK minimizedAffinity -8.58225346
REMARK  7 active torsions:
REMARK  status: ('A' for Active; 'I' for Inactive)
REMARK    1  A    between atoms: C8_10  and  N2_11 
REMARK    2  A    between atoms: N2_11  and  C9_12 
REMARK    3  A    between atoms: C10_15  and  O1_16 
REMARK    4  A    between atoms: C12_18  and  C13_19 
REMARK    5  A    between atoms: C13_19  and  S1_20 
REMARK    6  A    between atoms: S1_20  and  C14_21 
REMARK    7  A    between atoms: N7_26  and  C15_27 
ROOT
HETATM    1  C9  UNL     1      11.621  51.687  -2.530  1.00  0.00     0.699 A 
HETATM    2  N3  UNL     1      11.033  51.745  -3.729  1.00  0.00    -0.170 N 
ATOM      3  H3  UNL     1      11.180  52.530  -4.363  1.00  0.00     0.186 HD
HETATM    4  C10 UNL     1      10.243  50.722  -4.051  1.00  0.00     0.157 A 
HETATM    5  C11 UNL     1       9.982  49.640  -3.265  1.00  0.00     0.082 A 
HETATM    6  C12 UNL     1      10.620  49.648  -2.047  1.00  0.00     0.040 A 
HETATM    7  N8  UNL     1      11.429  50.667  -1.668  1.00  0.00    -0.194 N 
ATOM      8  H8  UNL     1      11.882  50.663  -0.755  1.00  0.00     0.184 HD
ENDROOT
BRANCH   1   9
HETATM    9  N2  UNL     1      12.458  52.685  -2.083  1.00  0.00    -0.022 N 
HETATM   10  H9  UNL     1      13.348  52.357  -1.756  1.00  0.00     0.203 HD
BRANCH   9  11
HETATM   11  C8  UNL     1      12.322  54.056  -2.030  1.00  0.00     0.697 A 
HETATM   12  N1  UNL     1      13.089  54.812  -1.236  1.00  0.00    -0.194 N 
HETATM   13  C6  UNL     1      12.899  56.149  -1.243  1.00  0.00     0.035 A 
ATOM     14  H1  UNL     1      13.801  54.389  -0.641  1.00  0.00     0.184 HD
HETATM   15  C5  UNL     1      11.941  56.767  -2.050  1.00  0.00     0.014 A 
HETATM   16  C7  UNL     1      13.793  56.929  -0.324  1.00  0.00     0.070 C 
HETATM   17  C4  UNL     1      11.690  58.160  -2.106  1.00  0.00     0.016 A 
HETATM   18  C21 UNL     1      11.196  55.894  -2.845  1.00  0.00     0.061 A 
HETATM   19  C3  UNL     1      10.708  58.672  -2.952  1.00  0.00     0.008 A 
HETATM   20  C2  UNL     1       9.971  57.808  -3.760  1.00  0.00    -0.060 A 
HETATM   21  C1  UNL     1       8.892  58.328  -4.662  1.00  0.00     0.048 C 
HETATM   22  C22 UNL     1      10.222  56.429  -3.683  1.00  0.00     0.037 A 
HETATM   23  N9  UNL     1      11.380  54.567  -2.837  1.00  0.00    -0.190 N 
ATOM     24  H9  UNL     1      10.816  53.959  -3.431  1.00  0.00     0.184 HD
ENDBRANCH   9  11
ENDBRANCH   1   9
BRANCH   4  25
HETATM   25  O1  UNL     1       9.675  50.836  -5.278  1.00  0.00    -0.346 OA
HETATM   26  H10 UNL     1      10.075  51.680  -5.564  1.00  0.00     0.219 HD
ENDBRANCH   4  25
BRANCH   6  27
HETATM   27  C13 UNL     1      10.420  48.531  -1.055  1.00  0.00     0.140 C 
BRANCH  27  28
HETATM   28  S1  UNL     1       9.084  47.375  -1.481  1.00  0.00    -0.085 SA
BRANCH  28  29
HETATM   29  C14 UNL     1       9.877  45.865  -1.193  1.00  0.00     0.177 A 
HETATM   30  N4  UNL     1      10.688  45.670  -0.176  1.00  0.00    -0.264 N 
HETATM   31  N5  UNL     1      11.010  44.344  -0.194  1.00  0.00    -0.006 NA
ATOM     32  H4  UNL     1      11.011  46.370   0.491  1.00  0.00     0.186 HD
HETATM   33  N6  UNL     1      10.416  43.724  -1.200  1.00  0.00     0.001 NA
HETATM   34  N7  UNL     1       9.724  44.673  -1.894  1.00  0.00    -0.219 N 
BRANCH  34  35
HETATM   35  C15 UNL     1       9.038  44.314  -3.091  1.00  0.00     0.056 A 
HETATM   36  C16 UNL     1       8.972  45.150  -4.212  1.00  0.00     0.031 A 
HETATM   37  C17 UNL     1       8.283  44.742  -5.359  1.00  0.00     0.002 A 
HETATM   38  C18 UNL     1       7.662  43.497  -5.405  1.00  0.00     0.000 A 
HETATM   39  C19 UNL     1       7.734  42.648  -4.306  1.00  0.00     0.002 A 
HETATM   40  C20 UNL     1       8.421  43.050  -3.158  1.00  0.00     0.031 A 
ENDBRANCH  34  35
ENDBRANCH  28  29
ENDBRANCH  27  28
ENDBRANCH   6  27
TORSDOF 7
ENDMDL
MODEL 8
REMARK minimizedAffinity -8.54683208
REMARK  7 active torsions:
REMARK  status: ('A' for Active; 'I' for Inactive)
REMARK    1  A    between atoms: C8_10  and  N2_11 
REMARK    2  A    between atoms: N2_11  and  C9_12 
REMARK    3  A    between atoms: C10_15  and  O1_16 
REMARK    4  A    between atoms: C12_18  and  C13_19 
REMARK    5  A    between atoms: C13_19  and  S1_20 
REMARK    6  A    between atoms: S1_20  and  C14_21 
REMARK    7  A    between atoms: N7_26  and  C15_27 
ROOT
HETATM    1  C9  UNL     1      16.299  34.313  18.471  1.00  0.00     0.699 A 
HETATM    2  N3  UNL     1      16.545  34.525  19.768  1.00  0.00    -0.170 N 
ATOM      3  H3  UNL     1      17.496  34.567  20.135  1.00  0.00     0.186 HD
HETATM    4  C10 UNL     1      15.482  34.678  20.556  1.00  0.00     0.157 A 
HETATM    5  C11 UNL     1      14.181  34.627  20.155  1.00  0.00     0.082 A 
HETATM    6  C12 UNL     1      14.002  34.405  18.809  1.00  0.00     0.040 A 
HETATM    7  N8  UNL     1      15.050  34.238  17.966  1.00  0.00    -0.194 N 
ATOM      8  H8  UNL     1      14.899  34.059  16.974  1.00  0.00     0.184 HD
ENDROOT
BRANCH   1   9
HETATM    9  N2  UNL     1      17.315  34.138  17.559  1.00  0.00    -0.022 N 
HETATM   10  H9  UNL     1      18.048  33.532  17.875  1.00  0.00     0.203 HD
BRANCH   9  11
HETATM   11  C8  UNL     1      17.502  34.610  16.276  1.00  0.00     0.697 A 
HETATM   12  N1  UNL     1      17.973  33.828  15.298  1.00  0.00    -0.194 N 
HETATM   13  C6  UNL     1      18.124  34.361  14.067  1.00  0.00     0.035 A 
ATOM     14  H1  UNL     1      18.212  32.854  15.477  1.00  0.00     0.184 HD
HETATM   15  C5  UNL     1      17.801  35.690  13.778  1.00  0.00     0.014 A 
HETATM   16  C7  UNL     1      18.662  33.427  13.023  1.00  0.00     0.070 C 
HETATM   17  C4  UNL     1      17.934  36.312  12.513  1.00  0.00     0.016 A 
HETATM   18  C21 UNL     1      17.311  36.420  14.864  1.00  0.00     0.061 A 
HETATM   19  C3  UNL     1      17.577  37.647  12.335  1.00  0.00     0.008 A 
HETATM   20  C2  UNL     1      17.074  38.378  13.410  1.00  0.00    -0.060 A 
HETATM   21  C1  UNL     1      16.705  39.823  13.254  1.00  0.00     0.048 C 
HETATM   22  C22 UNL     1      16.961  37.752  14.661  1.00  0.00     0.037 A 
HETATM   23  N9  UNL     1      17.165  35.895  16.087  1.00  0.00    -0.190 N 
ATOM     24  H9  UNL     1      16.805  36.459  16.857  1.00  0.00     0.184 HD
ENDBRANCH   9  11
ENDBRANCH   1   9
BRANCH   4  25
HETATM   25  O1  UNL     1      15.794  34.890  21.859  1.00  0.00    -0.346 OA
HETATM   26  H10 UNL     1      16.769  34.888  21.795  1.00  0.00     0.219 HD
ENDBRANCH   4  25
BRANCH   6  27
HETATM   27  C13 UNL     1      12.623  34.304  18.211  1.00  0.00     0.140 C 
BRANCH  27  28
HETATM   28  S1  UNL     1      12.078  35.792  17.319  1.00  0.00    -0.085 SA
BRANCH  28  29
HETATM   29  C14 UNL     1      10.384  35.761  17.670  1.00  0.00     0.177 A 
HETATM   30  N4  UNL     1       9.465  35.720  16.731  1.00  0.00    -0.264 N 
HETATM   31  N5  UNL     1       8.271  35.568  17.374  1.00  0.00    -0.006 NA
ATOM     32  H4  UNL     1       9.614  35.789  15.725  1.00  0.00     0.186 HD
HETATM   33  N6  UNL     1       8.440  35.516  18.685  1.00  0.00     0.001 NA
HETATM   34  N7  UNL     1       9.772  35.689  18.917  1.00  0.00    -0.219 N 
BRANCH  34  35
HETATM   35  C15 UNL     1      10.253  35.760  20.257  1.00  0.00     0.056 A 
HETATM   36  C16 UNL     1      10.888  36.891  20.781  1.00  0.00     0.031 A 
HETATM   37  C17 UNL     1      11.339  36.900  22.105  1.00  0.00     0.002 A 
HETATM   38  C18 UNL     1      11.155  35.789  22.922  1.00  0.00     0.000 A 
HETATM   39  C19 UNL     1      10.510  34.663  22.421  1.00  0.00     0.002 A 
HETATM   40  C20 UNL     1      10.057  34.648  21.100  1.00  0.00     0.031 A 
ENDBRANCH  34  35
ENDBRANCH  28  29
ENDBRANCH  27  28
ENDBRANCH   6  27
TORSDOF 7
ENDMDL
MODEL 9
REMARK minimizedAffinity -8.46177006
REMARK  7 active torsions:
REMARK  status: ('A' for Active; 'I' for Inactive)
REMARK    1  A    between atoms: C8_10  and  N2_11 
REMARK    2  A    between atoms: N2_11  and  C9_12 
REMARK    3  A    between atoms: C10_15  and  O1_16 
REMARK    4  A    between atoms: C12_18  and  C13_19 
REMARK    5  A    between atoms: C13_19  and  S1_20 
REMARK    6  A    between atoms: S1_20  and  C14_21 
REMARK    7  A    between atoms: N7_26  and  C15_27 
ROOT
HETATM    1  C9  UNL     1       6.792  33.778  -5.382  1.00  0.00     0.699 A 
HETATM    2  N3  UNL     1       7.683  34.236  -4.497  1.00  0.00    -0.170 N 
ATOM      3  H3  UNL     1       8.572  33.764  -4.336  1.00  0.00     0.186 HD
HETATM    4  C10 UNL     1       7.347  35.343  -3.837  1.00  0.00     0.157 A 
HETATM    5  C11 UNL     1       6.180  36.032  -3.981  1.00  0.00     0.082 A 
HETATM    6  C12 UNL     1       5.311  35.503  -4.907  1.00  0.00     0.040 A 
HETATM    7  N8  UNL     1       5.603  34.376  -5.601  1.00  0.00    -0.194 N 
ATOM      8  H8  UNL     1       4.940  33.990  -6.272  1.00  0.00     0.184 HD
ENDROOT
BRANCH   1   9
HETATM    9  N2  UNL     1       7.024  32.642  -6.124  1.00  0.00    -0.022 N 
HETATM   10  H9  UNL     1       6.785  32.731  -7.094  1.00  0.00     0.203 HD
BRANCH   9  11
HETATM   11  C8  UNL     1       7.556  31.412  -5.798  1.00  0.00     0.697 A 
HETATM   12  N1  UNL     1       7.719  30.448  -6.711  1.00  0.00    -0.194 N 
HETATM   13  C6  UNL     1       8.251  29.272  -6.315  1.00  0.00     0.035 A 
ATOM     14  H1  UNL     1       7.449  30.597  -7.682  1.00  0.00     0.184 HD
HETATM   15  C5  UNL     1       8.642  29.030  -4.995  1.00  0.00     0.014 A 
HETATM   16  C7  UNL     1       8.398  28.238  -7.392  1.00  0.00     0.070 C 
HETATM   17  C4  UNL     1       9.205  27.824  -4.513  1.00  0.00     0.016 A 
HETATM   18  C21 UNL     1       8.436  30.100  -4.120  1.00  0.00     0.061 A 
HETATM   19  C3  UNL     1       9.563  27.691  -3.172  1.00  0.00     0.008 A 
HETATM   20  C2  UNL     1       9.375  28.760  -2.297  1.00  0.00    -0.060 A 
HETATM   21  C1  UNL     1       9.727  28.638  -0.844  1.00  0.00     0.048 C 
HETATM   22  C22 UNL     1       8.802  29.944  -2.787  1.00  0.00     0.037 A 
HETATM   23  N9  UNL     1       7.905  31.266  -4.510  1.00  0.00    -0.190 N 
ATOM     24  H9  UNL     1       7.768  32.026  -3.843  1.00  0.00     0.184 HD
ENDBRANCH   9  11
ENDBRANCH   1   9
BRANCH   4  25
HETATM   25  O1  UNL     1       8.289  35.760  -2.954  1.00  0.00    -0.346 OA
HETATM   26  H10 UNL     1       8.973  35.081  -3.115  1.00  0.00     0.219 HD
ENDBRANCH   4  25
BRANCH   6  27
HETATM   27  C13 UNL     1       3.970  36.138  -5.170  1.00  0.00     0.140 C 
BRANCH  27  28
HETATM   28  S1  UNL     1       3.645  37.640  -4.198  1.00  0.00    -0.085 SA
BRANCH  28  29
HETATM   29  C14 UNL     1       3.617  38.825  -5.459  1.00  0.00     0.177 A 
HETATM   30  N4  UNL     1       2.666  38.877  -6.365  1.00  0.00    -0.264 N 
HETATM   31  N5  UNL     1       2.899  40.004  -7.098  1.00  0.00    -0.006 NA
ATOM     32  H4  UNL     1       1.907  38.208  -6.494  1.00  0.00     0.186 HD
HETATM   33  N6  UNL     1       3.972  40.641  -6.661  1.00  0.00     0.001 NA
HETATM   34  N7  UNL     1       4.491  39.890  -5.648  1.00  0.00    -0.219 N 
BRANCH  34  35
HETATM   35  C15 UNL     1       5.710  40.288  -5.025  1.00  0.00     0.056 A 
HETATM   36  C16 UNL     1       6.874  39.513  -5.063  1.00  0.00     0.031 A 
HETATM   37  C17 UNL     1       8.041  39.957  -4.432  1.00  0.00     0.002 A 
HETATM   38  C18 UNL     1       8.064  41.179  -3.766  1.00  0.00     0.000 A 
HETATM   39  C19 UNL     1       6.920  41.969  -3.734  1.00  0.00     0.002 A 
HETATM   40  C20 UNL     1       5.752  41.531  -4.363  1.00  0.00     0.031 A 
ENDBRANCH  34  35
ENDBRANCH  28  29
ENDBRANCH  27  28
ENDBRANCH   6  27
TORSDOF 7
ENDMDL
