MODEL 1
REMARK minimizedAffinity -6.86728621
REMARK  3 active torsions:
REMARK  status: ('A' for Active; 'I' for Inactive)
REMARK    1  A    between atoms: N1_1  and  C1_2 
REMARK    2  A    between atoms: C5_6  and  N2_7 
REMARK    3  A    between atoms: N2_7  and  C6_8 
ROOT
HETATM    1  C1  UNL     1      16.319  34.593  17.793  1.00  0.00     0.008 A 
HETATM    2  C2  UNL     1      15.444  33.975  18.679  1.00  0.00     0.024 A 
HETATM    3  C3  UNL     1      14.070  34.194  18.572  1.00  0.00     0.019 A 
HETATM    4  C4  UNL     1      13.543  35.014  17.544  1.00  0.00     0.035 A 
HETATM    5  C5  UNL     1      12.175  35.304  17.353  1.00  0.00     0.119 A 
HETATM    6  N3  UNL     1      11.746  36.054  16.323  1.00  0.00    -0.338 N 
ATOM      7  H3  UNL     1      10.756  36.251  16.183  1.00  0.00     0.168 HD
HETATM    8  C12 UNL     1      12.678  36.527  15.493  1.00  0.00     0.182 A 
HETATM    9  N4  UNL     1      13.997  36.332  15.589  1.00  0.00    -0.351 N 
ATOM     10  H4  UNL     1      14.649  36.739  14.918  1.00  0.00     0.166 HD
HETATM   11  C13 UNL     1      14.420  35.578  16.608  1.00  0.00     0.048 A 
HETATM   12  C14 UNL     1      15.784  35.342  16.740  1.00  0.00     0.053 A 
ENDROOT
BRANCH   5  13
HETATM   13  N2  UNL     1      11.235  34.801  18.294  1.00  0.00    -0.342 N 
HETATM   14  H5  UNL     1      11.741  34.388  19.070  1.00  0.00     0.167 HD
BRANCH  13  15
HETATM   15  C6  UNL     1      10.021  35.384  18.725  1.00  0.00     0.033 A 
HETATM   16  C7  UNL     1       9.238  36.202  17.904  1.00  0.00     0.029 A 
HETATM   17  C8  UNL     1       8.008  36.701  18.344  1.00  0.00     0.002 A 
HETATM   18  C9  UNL     1       7.528  36.367  19.607  1.00  0.00     0.000 A 
HETATM   19  C10 UNL     1       8.274  35.524  20.425  1.00  0.00     0.002 A 
HETATM   20  C11 UNL     1       9.504  35.028  19.981  1.00  0.00     0.029 A 
ENDBRANCH  13  15
ENDBRANCH   5  13
BRANCH   1  21
HETATM   21  N1  UNL     1      17.684  34.283  17.820  1.00  0.00    -0.303 NA
HETATM   22  H1  UNL     1      18.036  34.019  18.734  1.00  0.00     0.124 HD
HETATM   23  H2  UNL     1      18.275  34.970  17.361  1.00  0.00     0.124 HD
ENDBRANCH   1  21
TORSDOF 3
ENDMDL
MODEL 2
REMARK minimizedAffinity -6.714118
REMARK  3 active torsions:
REMARK  status: ('A' for Active; 'I' for Inactive)
REMARK    1  A    between atoms: N1_1  and  C1_2 
REMARK    2  A    between atoms: C5_6  and  N2_7 
REMARK    3  A    between atoms: N2_7  and  C6_8 
ROOT
HETATM    1  C1  UNL     1       7.591  35.653  21.419  1.00  0.00     0.008 A 
HETATM    2  C2  UNL     1       8.633  34.904  21.954  1.00  0.00     0.024 A 
HETATM    3  C3  UNL     1       9.728  34.561  21.159  1.00  0.00     0.019 A 
HETATM    4  C4  UNL     1       9.814  34.999  19.814  1.00  0.00     0.035 A 
HETATM    5  C5  UNL     1      10.870  34.701  18.927  1.00  0.00     0.119 A 
HETATM    6  N3  UNL     1      10.906  35.193  17.676  1.00  0.00    -0.338 N 
ATOM      7  H3  UNL     1      11.677  34.985  17.043  1.00  0.00     0.168 HD
HETATM    8  C12 UNL     1       9.883  35.966  17.303  1.00  0.00     0.182 A 
HETATM    9  N4  UNL     1       8.825  36.295  18.051  1.00  0.00    -0.351 N 
ATOM     10  H4  UNL     1       8.075  36.884  17.689  1.00  0.00     0.166 HD
HETATM   11  C13 UNL     1       8.798  35.813  19.297  1.00  0.00     0.048 A 
HETATM   12  C14 UNL     1       7.719  36.138  20.114  1.00  0.00     0.053 A 
ENDROOT
BRANCH   5  13
HETATM   13  N2  UNL     1      11.912  33.841  19.372  1.00  0.00    -0.342 N 
HETATM   14  H5  UNL     1      11.782  32.929  18.948  1.00  0.00     0.167 HD
BRANCH  13  15
HETATM   15  C6  UNL     1      13.284  34.135  19.548  1.00  0.00     0.033 A 
HETATM   16  C7  UNL     1      13.843  34.427  20.797  1.00  0.00     0.029 A 
HETATM   17  C8  UNL     1      15.218  34.642  20.940  1.00  0.00     0.002 A 
HETATM   18  C9  UNL     1      16.060  34.542  19.836  1.00  0.00     0.000 A 
HETATM   19  C10 UNL     1      15.528  34.216  18.593  1.00  0.00     0.002 A 
HETATM   20  C11 UNL     1      14.153  34.002  18.454  1.00  0.00     0.029 A 
ENDBRANCH  13  15
ENDBRANCH   5  13
BRANCH   1  21
HETATM   21  N1  UNL     1       6.550  36.101  22.242  1.00  0.00    -0.303 NA
HETATM   22  H1  UNL     1       6.349  35.494  23.030  1.00  0.00     0.124 HD
HETATM   23  H2  UNL     1       5.711  36.375  21.739  1.00  0.00     0.124 HD
ENDBRANCH   1  21
TORSDOF 3
ENDMDL
MODEL 3
REMARK minimizedAffinity -6.5723753
REMARK  3 active torsions:
REMARK  status: ('A' for Active; 'I' for Inactive)
REMARK    1  A    between atoms: N1_1  and  C1_2 
REMARK    2  A    between atoms: C5_6  and  N2_7 
REMARK    3  A    between atoms: N2_7  and  C6_8 
ROOT
HETATM    1  C1  UNL     1      10.790  27.862  -0.908  1.00  0.00     0.008 A 
HETATM    2  C2  UNL     1       9.603  28.586  -0.900  1.00  0.00     0.024 A 
HETATM    3  C3  UNL     1       8.877  28.752  -2.081  1.00  0.00     0.019 A 
HETATM    4  C4  UNL     1       9.313  28.159  -3.291  1.00  0.00     0.035 A 
HETATM    5  C5  UNL     1       8.659  28.271  -4.536  1.00  0.00     0.119 A 
HETATM    6  N3  UNL     1       9.108  27.638  -5.633  1.00  0.00    -0.338 N 
ATOM      7  H3  UNL     1       8.625  27.713  -6.528  1.00  0.00     0.168 HD
HETATM    8  C12 UNL     1      10.217  26.907  -5.496  1.00  0.00     0.182 A 
HETATM    9  N4  UNL     1      10.926  26.748  -4.374  1.00  0.00    -0.351 N 
ATOM     10  H4  UNL     1      11.773  26.179  -4.353  1.00  0.00     0.166 HD
HETATM   11  C13 UNL     1      10.471  27.370  -3.283  1.00  0.00     0.048 A 
HETATM   12  C14 UNL     1      11.174  27.223  -2.091  1.00  0.00     0.053 A 
ENDROOT
BRANCH   5  13
HETATM   13  N2  UNL     1       7.503  29.095  -4.626  1.00  0.00    -0.342 N 
HETATM   14  H5  UNL     1       6.979  29.014  -3.761  1.00  0.00     0.167 HD
BRANCH  13  15
HETATM   15  C6  UNL     1       7.384  30.391  -5.179  1.00  0.00     0.033 A 
HETATM   16  C7  UNL     1       6.216  30.848  -5.798  1.00  0.00     0.029 A 
HETATM   17  C8  UNL     1       6.114  32.161  -6.270  1.00  0.00     0.002 A 
HETATM   18  C9  UNL     1       7.175  33.047  -6.105  1.00  0.00     0.000 A 
HETATM   19  C10 UNL     1       8.331  32.623  -5.458  1.00  0.00     0.002 A 
HETATM   20  C11 UNL     1       8.429  31.309  -4.989  1.00  0.00     0.029 A 
ENDBRANCH  13  15
ENDBRANCH   5  13
BRANCH   1  21
HETATM   21  N1  UNL     1      11.458  27.592   0.292  1.00  0.00    -0.303 NA
HETATM   22  H1  UNL     1      11.333  28.299   1.010  1.00  0.00     0.124 HD
HETATM   23  H2  UNL     1      12.432  27.327   0.176  1.00  0.00     0.124 HD
ENDBRANCH   1  21
TORSDOF 3
ENDMDL
MODEL 4
REMARK minimizedAffinity -6.53705645
REMARK  3 active torsions:
REMARK  status: ('A' for Active; 'I' for Inactive)
REMARK    1  A    between atoms: N1_1  and  C1_2 
REMARK    2  A    between atoms: C5_6  and  N2_7 
REMARK    3  A    between atoms: N2_7  and  C6_8 
ROOT
HETATM    1  C1  UNL     1      10.141  34.089  21.826  1.00  0.00     0.008 A 
HETATM    2  C2  UNL     1      11.395  33.775  21.315  1.00  0.00     0.024 A 
HETATM    3  C3  UNL     1      11.709  34.085  19.991  1.00  0.00     0.019 A 
HETATM    4  C4  UNL     1      10.776  34.755  19.162  1.00  0.00     0.035 A 
HETATM    5  C5  UNL     1      10.991  35.107  17.812  1.00  0.00     0.119 A 
HETATM    6  N3  UNL     1      10.074  35.786  17.101  1.00  0.00    -0.338 N 
ATOM      7  H3  UNL     1      10.239  36.048  16.129  1.00  0.00     0.168 HD
HETATM    8  C12 UNL     1       8.938  36.100  17.727  1.00  0.00     0.182 A 
HETATM    9  N4  UNL     1       8.621  35.801  18.991  1.00  0.00    -0.351 N 
ATOM     10  H4  UNL     1       7.723  36.068  19.395  1.00  0.00     0.166 HD
HETATM   11  C13 UNL     1       9.539  35.135  19.698  1.00  0.00     0.048 A 
HETATM   12  C14 UNL     1       9.254  34.812  21.021  1.00  0.00     0.053 A 
ENDROOT
BRANCH   5  13
HETATM   13  N2  UNL     1      12.207  34.710  17.190  1.00  0.00    -0.342 N 
HETATM   14  H5  UNL     1      11.989  34.276  16.299  1.00  0.00     0.167 HD
BRANCH  13  15
HETATM   15  C6  UNL     1      13.438  35.404  17.136  1.00  0.00     0.033 A 
HETATM   16  C7  UNL     1      13.538  36.740  16.735  1.00  0.00     0.029 A 
HETATM   17  C8  UNL     1      14.765  37.413  16.763  1.00  0.00     0.002 A 
HETATM   18  C9  UNL     1      15.908  36.764  17.220  1.00  0.00     0.000 A 
HETATM   19  C10 UNL     1      15.821  35.447  17.660  1.00  0.00     0.002 A 
HETATM   20  C11 UNL     1      14.593  34.778  17.629  1.00  0.00     0.029 A 
ENDBRANCH  13  15
ENDBRANCH   5  13
BRANCH   1  21
HETATM   21  N1  UNL     1       9.863  33.890  23.183  1.00  0.00    -0.303 NA
HETATM   22  H1  UNL     1      10.374  33.122  23.607  1.00  0.00     0.124 HD
HETATM   23  H2  UNL     1       8.872  33.865  23.406  1.00  0.00     0.124 HD
ENDBRANCH   1  21
TORSDOF 3
ENDMDL
MODEL 5
REMARK minimizedAffinity -6.52263689
REMARK  3 active torsions:
REMARK  status: ('A' for Active; 'I' for Inactive)
REMARK    1  A    between atoms: N1_1  and  C1_2 
REMARK    2  A    between atoms: C5_6  and  N2_7 
REMARK    3  A    between atoms: N2_7  and  C6_8 
ROOT
HETATM    1  C1  UNL     1       8.065  36.012  19.117  1.00  0.00     0.008 A 
HETATM    2  C2  UNL     1       8.674  36.280  17.897  1.00  0.00     0.024 A 
HETATM    3  C3  UNL     1       9.981  35.851  17.657  1.00  0.00     0.019 A 
HETATM    4  C4  UNL     1      10.691  35.107  18.631  1.00  0.00     0.035 A 
HETATM    5  C5  UNL     1      12.013  34.634  18.491  1.00  0.00     0.119 A 
HETATM    6  N3  UNL     1      12.605  33.892  19.443  1.00  0.00    -0.338 N 
ATOM      7  H3  UNL     1      13.557  33.543  19.332  1.00  0.00     0.168 HD
HETATM    8  C12 UNL     1      11.889  33.634  20.539  1.00  0.00     0.182 A 
HETATM    9  N4  UNL     1      10.641  34.047  20.785  1.00  0.00    -0.351 N 
ATOM     10  H4  UNL     1      10.163  33.817  21.656  1.00  0.00     0.166 HD
HETATM   11  C13 UNL     1      10.051  34.776  19.833  1.00  0.00     0.048 A 
HETATM   12  C14 UNL     1       8.749  35.218  20.043  1.00  0.00     0.053 A 
ENDROOT
BRANCH   5  13
HETATM   13  N2  UNL     1      12.737  34.974  17.315  1.00  0.00    -0.342 N 
HETATM   14  H5  UNL     1      12.274  35.756  16.863  1.00  0.00     0.167 HD
BRANCH  13  15
HETATM   15  C6  UNL     1      14.137  35.029  17.127  1.00  0.00     0.033 A 
HETATM   16  C7  UNL     1      15.041  34.353  17.953  1.00  0.00     0.029 A 
HETATM   17  C8  UNL     1      16.415  34.374  17.690  1.00  0.00     0.002 A 
HETATM   18  C9  UNL     1      16.904  35.053  16.577  1.00  0.00     0.000 A 
HETATM   19  C10 UNL     1      16.018  35.699  15.722  1.00  0.00     0.002 A 
HETATM   20  C11 UNL     1      14.645  35.676  15.989  1.00  0.00     0.029 A 
ENDBRANCH  13  15
ENDBRANCH   5  13
BRANCH   1  21
HETATM   21  N1  UNL     1       6.718  36.334  19.318  1.00  0.00    -0.303 NA
HETATM   22  H1  UNL     1       6.396  37.138  18.789  1.00  0.00     0.124 HD
HETATM   23  H2  UNL     1       6.443  36.378  20.295  1.00  0.00     0.124 HD
ENDBRANCH   1  21
TORSDOF 3
ENDMDL
MODEL 6
REMARK minimizedAffinity -6.27860832
REMARK  3 active torsions:
REMARK  status: ('A' for Active; 'I' for Inactive)
REMARK    1  A    between atoms: N1_1  and  C1_2 
REMARK    2  A    between atoms: C5_6  and  N2_7 
REMARK    3  A    between atoms: N2_7  and  C6_8 
ROOT
HETATM    1  C1  UNL     1       8.285  34.697  23.130  1.00  0.00     0.008 A 
HETATM    2  C2  UNL     1       9.648  34.965  23.180  1.00  0.00     0.024 A 
HETATM    3  C3  UNL     1      10.285  35.557  22.088  1.00  0.00     0.019 A 
HETATM    4  C4  UNL     1       9.553  35.927  20.934  1.00  0.00     0.035 A 
HETATM    5  C5  UNL     1      10.101  36.522  19.778  1.00  0.00     0.119 A 
HETATM    6  N3  UNL     1       9.333  36.890  18.737  1.00  0.00    -0.338 N 
ATOM      7  H3  UNL     1       9.733  37.331  17.909  1.00  0.00     0.168 HD
HETATM    8  C12 UNL     1       8.024  36.651  18.840  1.00  0.00     0.182 A 
HETATM    9  N4  UNL     1       7.403  36.076  19.875  1.00  0.00    -0.351 N 
ATOM     10  H4  UNL     1       6.395  35.917  19.873  1.00  0.00     0.166 HD
HETATM   11  C13 UNL     1       8.167  35.722  20.912  1.00  0.00     0.048 A 
HETATM   12  C14 UNL     1       7.560  35.129  22.015  1.00  0.00     0.053 A 
ENDROOT
BRANCH   5  13
HETATM   13  N2  UNL     1      11.509  36.717  19.713  1.00  0.00    -0.342 N 
HETATM   14  H5  UNL     1      11.805  37.217  20.545  1.00  0.00     0.167 HD
BRANCH  13  15
HETATM   15  C6  UNL     1      12.505  35.815  19.273  1.00  0.00     0.033 A 
HETATM   16  C7  UNL     1      13.598  35.448  20.064  1.00  0.00     0.029 A 
HETATM   17  C8  UNL     1      14.524  34.498  19.620  1.00  0.00     0.002 A 
HETATM   18  C9  UNL     1      14.354  33.880  18.384  1.00  0.00     0.000 A 
HETATM   19  C10 UNL     1      13.252  34.204  17.599  1.00  0.00     0.002 A 
HETATM   20  C11 UNL     1      12.329  35.155  18.047  1.00  0.00     0.029 A 
ENDBRANCH  13  15
ENDBRANCH   5  13
BRANCH   1  21
HETATM   21  N1  UNL     1       7.619  34.214  24.263  1.00  0.00    -0.303 NA
HETATM   22  H1  UNL     1       8.196  33.651  24.879  1.00  0.00     0.124 HD
HETATM   23  H2  UNL     1       6.723  33.779  24.065  1.00  0.00     0.124 HD
ENDBRANCH   1  21
TORSDOF 3
ENDMDL
MODEL 7
REMARK minimizedAffinity -6.27271509
REMARK  3 active torsions:
REMARK  status: ('A' for Active; 'I' for Inactive)
REMARK    1  A    between atoms: N1_1  and  C1_2 
REMARK    2  A    between atoms: C5_6  and  N2_7 
REMARK    3  A    between atoms: N2_7  and  C6_8 
ROOT
HETATM    1  C1  UNL     1      15.410  34.516  18.837  1.00  0.00     0.008 A 
HETATM    2  C2  UNL     1      14.806  33.975  19.967  1.00  0.00     0.024 A 
HETATM    3  C3  UNL     1      13.420  34.042  20.119  1.00  0.00     0.019 A 
HETATM    4  C4  UNL     1      12.607  34.624  19.116  1.00  0.00     0.035 A 
HETATM    5  C5  UNL     1      11.202  34.748  19.175  1.00  0.00     0.119 A 
HETATM    6  N3  UNL     1      10.493  35.270  18.160  1.00  0.00    -0.338 N 
ATOM      7  H3  UNL     1       9.477  35.347  18.203  1.00  0.00     0.168 HD
HETATM    8  C12 UNL     1      11.181  35.684  17.094  1.00  0.00     0.182 A 
HETATM    9  N4  UNL     1      12.507  35.634  16.940  1.00  0.00    -0.351 N 
ATOM     10  H4  UNL     1      12.962  35.983  16.095  1.00  0.00     0.166 HD
HETATM   11  C13 UNL     1      13.210  35.105  17.946  1.00  0.00     0.048 A 
HETATM   12  C14 UNL     1      14.593  35.024  17.823  1.00  0.00     0.053 A 
ENDROOT
BRANCH   5  13
HETATM   13  N2  UNL     1      10.531  34.322  20.355  1.00  0.00    -0.342 N 
HETATM   14  H5  UNL     1      11.222  34.141  21.074  1.00  0.00     0.167 HD
BRANCH  13  15
HETATM   15  C6  UNL     1       9.327  34.814  20.911  1.00  0.00     0.033 A 
HETATM   16  C7  UNL     1       9.166  35.055  22.279  1.00  0.00     0.029 A 
HETATM   17  C8  UNL     1       7.984  35.609  22.781  1.00  0.00     0.002 A 
HETATM   18  C9  UNL     1       6.952  35.957  21.914  1.00  0.00     0.000 A 
HETATM   19  C10 UNL     1       7.108  35.761  20.546  1.00  0.00     0.002 A 
HETATM   20  C11 UNL     1       8.291  35.206  20.048  1.00  0.00     0.029 A 
ENDBRANCH  13  15
ENDBRANCH   5  13
BRANCH   1  21
HETATM   21  N1  UNL     1      16.783  34.346  18.623  1.00  0.00    -0.303 NA
HETATM   22  H1  UNL     1      17.334  34.273  19.472  1.00  0.00     0.124 HD
HETATM   23  H2  UNL     1      17.184  34.999  17.957  1.00  0.00     0.124 HD
ENDBRANCH   1  21
TORSDOF 3
ENDMDL
MODEL 8
REMARK minimizedAffinity -6.20833635
REMARK  3 active torsions:
REMARK  status: ('A' for Active; 'I' for Inactive)
REMARK    1  A    between atoms: N1_1  and  C1_2 
REMARK    2  A    between atoms: C5_6  and  N2_7 
REMARK    3  A    between atoms: N2_7  and  C6_8 
ROOT
HETATM    1  C1  UNL     1      15.136  37.160  20.191  1.00  0.00     0.008 A 
HETATM    2  C2  UNL     1      14.131  36.310  20.636  1.00  0.00     0.024 A 
HETATM    3  C3  UNL     1      13.159  35.848  19.747  1.00  0.00     0.019 A 
HETATM    4  C4  UNL     1      13.202  36.205  18.377  1.00  0.00     0.035 A 
HETATM    5  C5  UNL     1      12.267  35.800  17.400  1.00  0.00     0.119 A 
HETATM    6  N3  UNL     1      12.400  36.140  16.107  1.00  0.00    -0.338 N 
ATOM      7  H3  UNL     1      11.728  35.835  15.403  1.00  0.00     0.168 HD
HETATM    8  C12 UNL     1      13.453  36.897  15.788  1.00  0.00     0.182 A 
HETATM    9  N4  UNL     1      14.384  37.353  16.631  1.00  0.00    -0.351 N 
ATOM     10  H4  UNL     1      15.156  37.938  16.310  1.00  0.00     0.166 HD
HETATM   11  C13 UNL     1      14.255  37.004  17.914  1.00  0.00     0.048 A 
HETATM   12  C14 UNL     1      15.209  37.449  18.824  1.00  0.00     0.053 A 
ENDROOT
BRANCH   5  13
HETATM   13  N2  UNL     1      11.146  35.026  17.810  1.00  0.00    -0.342 N 
HETATM   14  H5  UNL     1      11.482  34.158  18.215  1.00  0.00     0.167 HD
BRANCH  13  15
HETATM   15  C6  UNL     1       9.957  35.460  18.439  1.00  0.00     0.033 A 
HETATM   16  C7  UNL     1       9.007  36.260  17.796  1.00  0.00     0.029 A 
HETATM   17  C8  UNL     1       7.809  36.610  18.428  1.00  0.00     0.002 A 
HETATM   18  C9  UNL     1       7.532  36.140  19.708  1.00  0.00     0.000 A 
HETATM   19  C10 UNL     1       8.446  35.311  20.350  1.00  0.00     0.002 A 
HETATM   20  C11 UNL     1       9.643  34.965  19.714  1.00  0.00     0.029 A 
ENDBRANCH  13  15
ENDBRANCH   5  13
BRANCH   1  21
HETATM   21  N1  UNL     1      16.179  37.529  21.049  1.00  0.00    -0.303 NA
HETATM   22  H1  UNL     1      15.922  37.565  22.030  1.00  0.00     0.124 HD
HETATM   23  H2  UNL     1      16.689  38.356  20.752  1.00  0.00     0.124 HD
ENDBRANCH   1  21
TORSDOF 3
ENDMDL
MODEL 9
REMARK minimizedAffinity -6.2034936
REMARK  3 active torsions:
REMARK  status: ('A' for Active; 'I' for Inactive)
REMARK    1  A    between atoms: N1_1  and  C1_2 
REMARK    2  A    between atoms: C5_6  and  N2_7 
REMARK    3  A    between atoms: N2_7  and  C6_8 
ROOT
HETATM    1  C1  UNL     1      15.634  34.327  18.979  1.00  0.00     0.008 A 
HETATM    2  C2  UNL     1      14.525  33.905  18.254  1.00  0.00     0.024 A 
HETATM    3  C3  UNL     1      13.245  34.035  18.795  1.00  0.00     0.019 A 
HETATM    4  C4  UNL     1      13.051  34.630  20.066  1.00  0.00     0.035 A 
HETATM    5  C5  UNL     1      11.803  34.801  20.703  1.00  0.00     0.119 A 
HETATM    6  N3  UNL     1      11.693  35.418  21.892  1.00  0.00    -0.338 N 
ATOM      7  H3  UNL     1      10.788  35.550  22.343  1.00  0.00     0.168 HD
HETATM    8  C12 UNL     1      12.824  35.850  22.454  1.00  0.00     0.182 A 
HETATM    9  N4  UNL     1      14.056  35.724  21.952  1.00  0.00    -0.351 N 
ATOM     10  H4  UNL     1      14.876  36.072  22.450  1.00  0.00     0.166 HD
HETATM   11  C13 UNL     1      14.162  35.119  20.765  1.00  0.00     0.048 A 
HETATM   12  C14 UNL     1      15.425  34.975  20.201  1.00  0.00     0.053 A 
ENDROOT
BRANCH   5  13
HETATM   13  N2  UNL     1      10.638  34.285  20.070  1.00  0.00    -0.342 N 
HETATM   14  H5  UNL     1      10.442  33.366  20.452  1.00  0.00     0.167 HD
BRANCH  13  15
HETATM   15  C6  UNL     1       9.447  34.964  19.727  1.00  0.00     0.033 A 
HETATM   16  C7  UNL     1       8.276  34.875  20.488  1.00  0.00     0.029 A 
HETATM   17  C8  UNL     1       7.139  35.619  20.155  1.00  0.00     0.002 A 
HETATM   18  C9  UNL     1       7.165  36.486  19.067  1.00  0.00     0.000 A 
HETATM   19  C10 UNL     1       8.332  36.618  18.320  1.00  0.00     0.002 A 
HETATM   20  C11 UNL     1       9.466  35.872  18.656  1.00  0.00     0.029 A 
ENDBRANCH  13  15
ENDBRANCH   5  13
BRANCH   1  21
HETATM   21  N1  UNL     1      16.906  34.309  18.395  1.00  0.00    -0.303 NA
HETATM   22  H1  UNL     1      17.037  33.583  17.699  1.00  0.00     0.124 HD
HETATM   23  H2  UNL     1      17.671  34.349  19.063  1.00  0.00     0.124 HD
ENDBRANCH   1  21
TORSDOF 3
ENDMDL
