MODEL 1
REMARK minimizedAffinity -7.56337214
REMARK CNNscore 0.467137307
REMARK CNNaffinity 6.40524292
REMARK  9 active torsions:
REMARK  status: ('A' for Active; 'I' for Inactive)
REMARK       I    between atoms: N1_1  and  C1_2 
REMARK    1  A    between atoms: C1_2  and  O2_4 
REMARK    2  A    between atoms: O2_4  and  C2_5 
REMARK    3  A    between atoms: C4_8  and  C5_9 
REMARK    4  A    between atoms: C6_10  and  C7_11 
REMARK    5  A    between atoms: C11_19  and  N5_20 
REMARK    6  A    between atoms: N5_20  and  C12_21 
REMARK    7  A    between atoms: C15_24  and  O3_25 
REMARK    8  A    between atoms: O3_25  and  C16_26 
REMARK    9  A    between atoms: C16_26  and  C17_27 
ROOT
HETATM    1  C7  UNL     1       9.277  58.235  -5.463  1.00  0.00     0.061 A 
HETATM    2  C8  UNL     1       9.726  57.399  -6.459  1.00  0.00     0.059 A 
HETATM    3  C9  UNL     1      10.423  56.267  -5.947  1.00  0.00     0.056 A 
HETATM    4  N3  UNL     1      10.972  55.286  -6.702  1.00  0.00    -0.351 N 
ATOM      5  H3  UNL     1      10.932  55.280  -7.720  1.00  0.00     0.166 HD
HETATM    6  C10 UNL     1      11.571  54.329  -5.991  1.00  0.00     0.182 A 
HETATM    7  N4  UNL     1      11.679  54.248  -4.657  1.00  0.00    -0.337 N 
ATOM      8  H4  UNL     1      12.165  53.461  -4.226  1.00  0.00     0.168 HD
HETATM    9  C11 UNL     1      11.137  55.220  -3.887  1.00  0.00     0.126 A 
HETATM   10  C25 UNL     1      10.484  56.269  -4.558  1.00  0.00     0.077 A 
HETATM   11  S1  UNL     1       9.689  57.656  -3.914  1.00  0.00    -0.075 SA
ENDROOT
BRANCH   9  12
HETATM   12  N5  UNL     1      11.205  55.196  -2.486  1.00  0.00    -0.341 N 
HETATM   13  H10 UNL     1      10.344  54.864  -2.065  1.00  0.00     0.167 HD
BRANCH  12  14
HETATM   14  C12 UNL     1      12.206  55.554  -1.569  1.00  0.00     0.035 A 
HETATM   15  C13 UNL     1      11.981  56.329  -0.428  1.00  0.00     0.032 A 
HETATM   16  C14 UNL     1      13.024  56.668   0.448  1.00  0.00     0.041 A 
HETATM   17  C15 UNL     1      14.329  56.249   0.195  1.00  0.00     0.091 A 
HETATM   18  C23 UNL     1      14.563  55.462  -0.940  1.00  0.00     0.069 A 
HETATM   19 CL1  UNL     1      16.150  54.885  -1.322  1.00  0.00    -0.081 Cl
HETATM   20  C24 UNL     1      13.519  55.126  -1.810  1.00  0.00     0.056 A 
BRANCH  17  21
HETATM   21  O3  UNL     1      15.405  56.519   0.997  1.00  0.00    -0.345 OA
BRANCH  21  22
HETATM   22  C16 UNL     1      15.170  56.957   2.337  1.00  0.00     0.214 C 
BRANCH  22  23
HETATM   23  C17 UNL     1      15.525  55.911   3.369  1.00  0.00    -0.031 A 
HETATM   24  C18 UNL     1      16.872  55.593   3.612  1.00  0.00     0.009 A 
HETATM   25  C19 UNL     1      17.216  54.609   4.543  1.00  0.00     0.004 A 
HETATM   26  C20 UNL     1      16.217  53.924   5.232  1.00  0.00     0.042 A 
HETATM   27  C21 UNL     1      14.884  54.225   4.982  1.00  0.00     0.117 A 
HETATM   28  F1  UNL     1      13.924  53.560   5.638  1.00  0.00    -0.206 F 
HETATM   29  C22 UNL     1      14.530  55.202   4.057  1.00  0.00     0.051 A 
ENDBRANCH  22  23
ENDBRANCH  21  22
ENDBRANCH  17  21
ENDBRANCH  12  14
ENDBRANCH   9  12
BRANCH   1  30
HETATM   30  C6  UNL     1       8.552  59.442  -5.679  1.00  0.00    -0.057 C 
HETATM   31  C5  UNL     1       7.942  60.460  -5.864  1.00  0.00    -0.065 C 
BRANCH  31  32
HETATM   32  C4  UNL     1       7.197  61.698  -6.091  1.00  0.00     0.301 C 
HETATM   33  N2  UNL     1       6.723  62.259  -4.829  1.00  0.00     0.102 N 
HETATM   34  C3  UNL     1       6.396  63.662  -5.117  1.00  0.00     0.303 C 
HETATM   35  H6  UNL     1       5.903  61.755  -4.497  1.00  0.00     0.317 HD
HETATM   36  C2  UNL     1       7.272  64.071  -6.311  1.00  0.00     0.164 C 
HETATM   37  C26 UNL     1       8.073  62.815  -6.637  1.00  0.00     0.083 C 
BRANCH  36  38
HETATM   38  O2  UNL     1       6.469  64.391  -7.463  1.00  0.00    -0.297 OA
BRANCH  38  39
HETATM   39  C1  UNL     1       6.463  65.700  -7.799  1.00  0.00     0.358 C 
HETATM   40  N1  UNL     1       7.445  65.951  -8.690  1.00  0.00    -0.346 N 
HETATM   41  H1  UNL     1       8.104  65.227  -8.928  1.00  0.00     0.161 HD
HETATM   42  H2  UNL     1       7.608  66.906  -8.974  1.00  0.00     0.161 HD
HETATM   43  O1  UNL     1       5.695  66.550  -7.378  1.00  0.00    -0.239 OA
ENDBRANCH  38  39
ENDBRANCH  36  38
ENDBRANCH  31  32
ENDBRANCH   1  30
TORSDOF 9
ENDMDL
MODEL 2
REMARK minimizedAffinity -7.20802259
REMARK CNNscore 0.439544797
REMARK CNNaffinity 6.27538061
REMARK  9 active torsions:
REMARK  status: ('A' for Active; 'I' for Inactive)
REMARK       I    between atoms: N1_1  and  C1_2 
REMARK    1  A    between atoms: C1_2  and  O2_4 
REMARK    2  A    between atoms: O2_4  and  C2_5 
REMARK    3  A    between atoms: C4_8  and  C5_9 
REMARK    4  A    between atoms: C6_10  and  C7_11 
REMARK    5  A    between atoms: C11_19  and  N5_20 
REMARK    6  A    between atoms: N5_20  and  C12_21 
REMARK    7  A    between atoms: C15_24  and  O3_25 
REMARK    8  A    between atoms: O3_25  and  C16_26 
REMARK    9  A    between atoms: C16_26  and  C17_27 
ROOT
HETATM    1  C7  UNL     1      12.850  52.863  -2.512  1.00  0.00     0.061 A 
HETATM    2  C8  UNL     1      14.117  53.126  -2.977  1.00  0.00     0.059 A 
HETATM    3  C9  UNL     1      14.331  54.513  -3.222  1.00  0.00     0.056 A 
HETATM    4  N3  UNL     1      15.484  55.051  -3.684  1.00  0.00    -0.351 N 
ATOM      5  H3  UNL     1      16.310  54.495  -3.900  1.00  0.00     0.166 HD
HETATM    6  C10 UNL     1      15.440  56.377  -3.831  1.00  0.00     0.182 A 
HETATM    7  N4  UNL     1      14.408  57.194  -3.578  1.00  0.00    -0.337 N 
ATOM      8  H4  UNL     1      14.496  58.198  -3.731  1.00  0.00     0.168 HD
HETATM    9  C11 UNL     1      13.247  56.672  -3.117  1.00  0.00     0.126 A 
HETATM   10  C25 UNL     1      13.208  55.279  -2.932  1.00  0.00     0.077 A 
HETATM   11  S1  UNL     1      11.919  54.284  -2.367  1.00  0.00    -0.075 SA
ENDROOT
BRANCH   9  12
HETATM   12  N5  UNL     1      12.129  57.467  -2.823  1.00  0.00    -0.341 N 
HETATM   13  H10 UNL     1      12.056  57.678  -1.834  1.00  0.00     0.167 HD
BRANCH  12  14
HETATM   14  C12 UNL     1      11.099  58.002  -3.614  1.00  0.00     0.035 A 
HETATM   15  C13 UNL     1       9.890  57.349  -3.869  1.00  0.00     0.032 A 
HETATM   16  C14 UNL     1       8.900  57.926  -4.680  1.00  0.00     0.041 A 
HETATM   17  C15 UNL     1       9.102  59.173  -5.269  1.00  0.00     0.091 A 
HETATM   18  C23 UNL     1      10.305  59.840  -5.010  1.00  0.00     0.069 A 
HETATM   19 CL1  UNL     1      10.633  61.399  -5.689  1.00  0.00    -0.081 Cl
HETATM   20  C24 UNL     1      11.290  59.260  -4.200  1.00  0.00     0.056 A 
BRANCH  17  21
HETATM   21  O3  UNL     1       8.191  59.818  -6.061  1.00  0.00    -0.345 OA
BRANCH  21  22
HETATM   22  C16 UNL     1       7.108  60.512  -5.439  1.00  0.00     0.214 C 
BRANCH  22  23
HETATM   23  C17 UNL     1       7.052  61.974  -5.816  1.00  0.00    -0.031 A 
HETATM   24  C18 UNL     1       7.450  62.384  -7.100  1.00  0.00     0.009 A 
HETATM   25  C19 UNL     1       7.431  63.736  -7.455  1.00  0.00     0.004 A 
HETATM   26  C20 UNL     1       7.024  64.693  -6.528  1.00  0.00     0.042 A 
HETATM   27  C21 UNL     1       6.646  64.292  -5.252  1.00  0.00     0.117 A 
HETATM   28  F1  UNL     1       6.264  65.214  -4.359  1.00  0.00    -0.206 F 
HETATM   29  C22 UNL     1       6.662  62.950  -4.888  1.00  0.00     0.051 A 
ENDBRANCH  22  23
ENDBRANCH  21  22
ENDBRANCH  17  21
ENDBRANCH  12  14
ENDBRANCH   9  12
BRANCH   1  30
HETATM   30  C6  UNL     1      12.355  51.567  -2.185  1.00  0.00    -0.057 C 
HETATM   31  C5  UNL     1      11.936  50.477  -1.908  1.00  0.00    -0.065 C 
BRANCH  31  32
HETATM   32  C4  UNL     1      11.422  49.149  -1.572  1.00  0.00     0.301 C 
HETATM   33  N2  UNL     1      10.334  49.242  -0.602  1.00  0.00     0.102 N 
HETATM   34  C3  UNL     1       9.628  47.955  -0.675  1.00  0.00     0.303 C 
HETATM   35  H6  UNL     1      10.700  49.404   0.334  1.00  0.00     0.317 HD
HETATM   36  C2  UNL     1       9.877  47.408  -2.089  1.00  0.00     0.164 C 
HETATM   37  C26 UNL     1      10.750  48.467  -2.754  1.00  0.00     0.083 C 
BRANCH  36  38
HETATM   38  O2  UNL     1      10.630  46.182  -2.049  1.00  0.00    -0.297 OA
BRANCH  38  39
HETATM   39  C1  UNL     1      10.251  45.320  -1.080  1.00  0.00     0.358 C 
HETATM   40  N1  UNL     1      11.215  45.231  -0.139  1.00  0.00    -0.346 N 
HETATM   41  H1  UNL     1      12.098  45.696  -0.279  1.00  0.00     0.161 HD
HETATM   42  H2  UNL     1      11.101  44.564   0.610  1.00  0.00     0.161 HD
HETATM   43  O1  UNL     1       9.200  44.701  -1.034  1.00  0.00    -0.239 OA
ENDBRANCH  38  39
ENDBRANCH  36  38
ENDBRANCH  31  32
ENDBRANCH   1  30
TORSDOF 9
ENDMDL
MODEL 3
REMARK minimizedAffinity -7.60706234
REMARK CNNscore 0.429260314
REMARK CNNaffinity 6.51574278
REMARK  9 active torsions:
REMARK  status: ('A' for Active; 'I' for Inactive)
REMARK       I    between atoms: N1_1  and  C1_2 
REMARK    1  A    between atoms: C1_2  and  O2_4 
REMARK    2  A    between atoms: O2_4  and  C2_5 
REMARK    3  A    between atoms: C4_8  and  C5_9 
REMARK    4  A    between atoms: C6_10  and  C7_11 
REMARK    5  A    between atoms: C11_19  and  N5_20 
REMARK    6  A    between atoms: N5_20  and  C12_21 
REMARK    7  A    between atoms: C15_24  and  O3_25 
REMARK    8  A    between atoms: O3_25  and  C16_26 
REMARK    9  A    between atoms: C16_26  and  C17_27 
ROOT
HETATM    1  C7  UNL     1      12.708  54.451  -2.198  1.00  0.00     0.061 A 
HETATM    2  C8  UNL     1      11.755  55.166  -2.885  1.00  0.00     0.059 A 
HETATM    3  C9  UNL     1      11.720  56.537  -2.499  1.00  0.00     0.056 A 
HETATM    4  N3  UNL     1      10.880  57.466  -3.012  1.00  0.00    -0.351 N 
ATOM      5  H3  UNL     1      10.188  57.255  -3.730  1.00  0.00     0.166 HD
HETATM    6  C10 UNL     1      11.039  58.684  -2.491  1.00  0.00     0.182 A 
HETATM    7  N4  UNL     1      11.914  59.062  -1.547  1.00  0.00    -0.337 N 
ATOM      8  H4  UNL     1      11.942  60.030  -1.228  1.00  0.00     0.168 HD
HETATM    9  C11 UNL     1      12.761  58.145  -1.023  1.00  0.00     0.126 A 
HETATM   10  C25 UNL     1      12.660  56.833  -1.519  1.00  0.00     0.077 A 
HETATM   11  S1  UNL     1      13.562  55.428  -1.093  1.00  0.00    -0.075 SA
ENDROOT
BRANCH   9  12
HETATM   12  N5  UNL     1      13.707  58.470  -0.039  1.00  0.00    -0.341 N 
HETATM   13  H10 UNL     1      14.572  58.817  -0.438  1.00  0.00     0.167 HD
BRANCH  12  14
HETATM   14  C12 UNL     1      13.697  58.391   1.362  1.00  0.00     0.035 A 
HETATM   15  C13 UNL     1      13.801  59.498   2.208  1.00  0.00     0.032 A 
HETATM   16  C14 UNL     1      13.799  59.359   3.605  1.00  0.00     0.041 A 
HETATM   17  C15 UNL     1      13.703  58.099   4.194  1.00  0.00     0.091 A 
HETATM   18  C23 UNL     1      13.586  56.984   3.354  1.00  0.00     0.069 A 
HETATM   19 CL1  UNL     1      13.448  55.384   4.000  1.00  0.00    -0.081 Cl
HETATM   20  C24 UNL     1      13.589  57.128   1.962  1.00  0.00     0.056 A 
BRANCH  17  21
HETATM   21  O3  UNL     1      13.680  57.868   5.542  1.00  0.00    -0.345 OA
BRANCH  21  22
HETATM   22  C16 UNL     1      14.008  58.939   6.430  1.00  0.00     0.214 C 
BRANCH  22  23
HETATM   23  C17 UNL     1      12.796  59.531   7.111  1.00  0.00    -0.031 A 
HETATM   24  C18 UNL     1      12.105  60.597   6.512  1.00  0.00     0.009 A 
HETATM   25  C19 UNL     1      10.998  61.174   7.142  1.00  0.00     0.004 A 
HETATM   26  C20 UNL     1      10.578  60.699   8.382  1.00  0.00     0.042 A 
HETATM   27  C21 UNL     1      11.270  59.655   8.985  1.00  0.00     0.117 A 
HETATM   28  F1  UNL     1      10.871  59.205  10.181  1.00  0.00    -0.206 F 
HETATM   29  C22 UNL     1      12.372  59.074   8.367  1.00  0.00     0.051 A 
ENDBRANCH  22  23
ENDBRANCH  21  22
ENDBRANCH  17  21
ENDBRANCH  12  14
ENDBRANCH   9  12
BRANCH   1  30
HETATM   30  C6  UNL     1      12.966  53.060  -2.374  1.00  0.00    -0.057 C 
HETATM   31  C5  UNL     1      13.186  51.889  -2.520  1.00  0.00    -0.065 C 
BRANCH  31  32
HETATM   32  C4  UNL     1      13.452  50.461  -2.694  1.00  0.00     0.301 C 
HETATM   33  N2  UNL     1      14.887  50.192  -2.672  1.00  0.00     0.102 N 
HETATM   34  C3  UNL     1      15.016  48.751  -2.415  1.00  0.00     0.303 C 
HETATM   35  H6  UNL     1      15.313  50.443  -3.562  1.00  0.00     0.317 HD
HETATM   36  C2  UNL     1      13.747  48.335  -1.656  1.00  0.00     0.164 C 
HETATM   37  C26 UNL     1      12.944  49.626  -1.528  1.00  0.00     0.083 C 
BRANCH  36  38
HETATM   38  O2  UNL     1      12.961  47.404  -2.422  1.00  0.00    -0.297 OA
BRANCH  38  39
HETATM   39  C1  UNL     1      12.847  46.176  -1.870  1.00  0.00     0.358 C 
HETATM   40  N1  UNL     1      13.431  45.256  -2.667  1.00  0.00    -0.346 N 
HETATM   41  H1  UNL     1      13.781  45.526  -3.573  1.00  0.00     0.161 HD
HETATM   42  H2  UNL     1      13.356  44.281  -2.417  1.00  0.00     0.161 HD
HETATM   43  O1  UNL     1      12.304  45.908  -0.811  1.00  0.00    -0.239 OA
ENDBRANCH  38  39
ENDBRANCH  36  38
ENDBRANCH  31  32
ENDBRANCH   1  30
TORSDOF 9
ENDMDL
MODEL 4
REMARK minimizedAffinity -6.10630417
REMARK CNNscore 0.398794353
REMARK CNNaffinity 6.78812742
REMARK  9 active torsions:
REMARK  status: ('A' for Active; 'I' for Inactive)
REMARK       I    between atoms: N1_1  and  C1_2 
REMARK    1  A    between atoms: C1_2  and  O2_4 
REMARK    2  A    between atoms: O2_4  and  C2_5 
REMARK    3  A    between atoms: C4_8  and  C5_9 
REMARK    4  A    between atoms: C6_10  and  C7_11 
REMARK    5  A    between atoms: C11_19  and  N5_20 
REMARK    6  A    between atoms: N5_20  and  C12_21 
REMARK    7  A    between atoms: C15_24  and  O3_25 
REMARK    8  A    between atoms: O3_25  and  C16_26 
REMARK    9  A    between atoms: C16_26  and  C17_27 
ROOT
HETATM    1  C7  UNL     1      13.007  60.439   4.550  1.00  0.00     0.061 A 
HETATM    2  C8  UNL     1      13.329  59.395   5.385  1.00  0.00     0.059 A 
HETATM    3  C9  UNL     1      13.697  58.219   4.670  1.00  0.00     0.056 A 
HETATM    4  N3  UNL     1      14.059  57.045   5.239  1.00  0.00    -0.351 N 
ATOM      5  H3  UNL     1      14.096  56.905   6.249  1.00  0.00     0.166 HD
HETATM    6  C10 UNL     1      14.362  56.089   4.360  1.00  0.00     0.182 A 
HETATM    7  N4  UNL     1      14.343  56.173   3.022  1.00  0.00    -0.337 N 
ATOM      8  H4  UNL     1      14.597  55.367   2.451  1.00  0.00     0.168 HD
HETATM    9  C11 UNL     1      13.982  57.339   2.436  1.00  0.00     0.126 A 
HETATM   10  C25 UNL     1      13.648  58.402   3.293  1.00  0.00     0.077 A 
HETATM   11  S1  UNL     1      13.150  60.006   2.908  1.00  0.00    -0.075 SA
ENDROOT
BRANCH   9  12
HETATM   12  N5  UNL     1      13.947  57.502   1.042  1.00  0.00    -0.341 N 
HETATM   13  H10 UNL     1      14.337  58.390   0.750  1.00  0.00     0.167 HD
BRANCH  12  14
HETATM   14  C12 UNL     1      13.468  56.697  -0.004  1.00  0.00     0.035 A 
HETATM   15  C13 UNL     1      14.194  55.652  -0.581  1.00  0.00     0.032 A 
HETATM   16  C14 UNL     1      13.670  54.888  -1.636  1.00  0.00     0.041 A 
HETATM   17  C15 UNL     1      12.403  55.160  -2.150  1.00  0.00     0.091 A 
HETATM   18  C23 UNL     1      11.663  56.198  -1.570  1.00  0.00     0.069 A 
HETATM   19 CL1  UNL     1      10.076  56.596  -2.136  1.00  0.00    -0.081 Cl
HETATM   20  C24 UNL     1      12.190  56.958  -0.518  1.00  0.00     0.056 A 
BRANCH  17  21
HETATM   21  O3  UNL     1      11.807  54.462  -3.165  1.00  0.00    -0.345 OA
BRANCH  21  22
HETATM   22  C16 UNL     1      12.537  53.409  -3.797  1.00  0.00     0.214 C 
BRANCH  22  23
HETATM   23  C17 UNL     1      11.975  52.039  -3.491  1.00  0.00    -0.031 A 
HETATM   24  C18 UNL     1      12.051  51.524  -2.186  1.00  0.00     0.009 A 
HETATM   25  C19 UNL     1      11.561  50.249  -1.892  1.00  0.00     0.004 A 
HETATM   26  C20 UNL     1      11.001  49.470  -2.902  1.00  0.00     0.042 A 
HETATM   27  C21 UNL     1      10.939  49.970  -4.197  1.00  0.00     0.117 A 
HETATM   28  F1  UNL     1      10.408  49.216  -5.169  1.00  0.00    -0.206 F 
HETATM   29  C22 UNL     1      11.424  51.237  -4.500  1.00  0.00     0.051 A 
ENDBRANCH  22  23
ENDBRANCH  21  22
ENDBRANCH  17  21
ENDBRANCH  12  14
ENDBRANCH   9  12
BRANCH   1  30
HETATM   30  C6  UNL     1      12.600  61.733   4.985  1.00  0.00    -0.057 C 
HETATM   31  C5  UNL     1      12.254  62.824   5.350  1.00  0.00    -0.065 C 
BRANCH  31  32
HETATM   32  C4  UNL     1      11.831  64.150   5.798  1.00  0.00     0.301 C 
HETATM   33  N2  UNL     1      11.427  64.121   7.202  1.00  0.00     0.102 N 
HETATM   34  C3  UNL     1      11.453  65.521   7.650  1.00  0.00     0.303 C 
HETATM   35  H6  UNL     1      10.495  63.724   7.299  1.00  0.00     0.317 HD
HETATM   36  C2  UNL     1      12.468  66.242   6.750  1.00  0.00     0.164 C 
HETATM   37  C26 UNL     1      12.974  65.155   5.807  1.00  0.00     0.083 C 
BRANCH  36  38
HETATM   38  O2  UNL     1      11.831  67.255   5.951  1.00  0.00    -0.297 OA
BRANCH  38  39
HETATM   39  C1  UNL     1      11.629  68.430   6.587  1.00  0.00     0.358 C 
HETATM   40  N1  UNL     1      10.379  68.877   6.344  1.00  0.00    -0.346 N 
HETATM   41  H1  UNL     1       9.791  68.391   5.686  1.00  0.00     0.161 HD
HETATM   42  H2  UNL     1      10.113  69.785   6.695  1.00  0.00     0.161 HD
HETATM   43  O1  UNL     1      12.437  69.021   7.285  1.00  0.00    -0.239 OA
ENDBRANCH  38  39
ENDBRANCH  36  38
ENDBRANCH  31  32
ENDBRANCH   1  30
TORSDOF 9
ENDMDL
MODEL 5
REMARK minimizedAffinity -6.84995747
REMARK CNNscore 0.39353168
REMARK CNNaffinity 6.41930532
REMARK  9 active torsions:
REMARK  status: ('A' for Active; 'I' for Inactive)
REMARK       I    between atoms: N1_1  and  C1_2 
REMARK    1  A    between atoms: C1_2  and  O2_4 
REMARK    2  A    between atoms: O2_4  and  C2_5 
REMARK    3  A    between atoms: C4_8  and  C5_9 
REMARK    4  A    between atoms: C6_10  and  C7_11 
REMARK    5  A    between atoms: C11_19  and  N5_20 
REMARK    6  A    between atoms: N5_20  and  C12_21 
REMARK    7  A    between atoms: C15_24  and  O3_25 
REMARK    8  A    between atoms: O3_25  and  C16_26 
REMARK    9  A    between atoms: C16_26  and  C17_27 
ROOT
HETATM    1  C7  UNL     1       9.565  59.703  -5.443  1.00  0.00     0.061 A 
HETATM    2  C8  UNL     1       9.164  58.411  -5.691  1.00  0.00     0.059 A 
HETATM    3  C9  UNL     1       9.991  57.450  -5.040  1.00  0.00     0.056 A 
HETATM    4  N3  UNL     1       9.826  56.108  -5.112  1.00  0.00    -0.351 N 
ATOM      5  H3  UNL     1       9.082  55.667  -5.652  1.00  0.00     0.166 HD
HETATM    6  C10 UNL     1      10.727  55.415  -4.414  1.00  0.00     0.182 A 
HETATM    7  N4  UNL     1      11.739  55.898  -3.678  1.00  0.00    -0.337 N 
ATOM      8  H4  UNL     1      12.366  55.263  -3.185  1.00  0.00     0.168 HD
HETATM    9  C11 UNL     1      11.918  57.237  -3.596  1.00  0.00     0.126 A 
HETATM   10  C25 UNL     1      11.009  58.043  -4.303  1.00  0.00     0.077 A 
HETATM   11  S1  UNL     1      10.932  59.760  -4.426  1.00  0.00    -0.075 SA
ENDROOT
BRANCH   9  12
HETATM   12  N5  UNL     1      12.950  57.813  -2.839  1.00  0.00    -0.341 N 
HETATM   13  H10 UNL     1      13.537  58.426  -3.393  1.00  0.00     0.167 HD
BRANCH  12  14
HETATM   14  C12 UNL     1      13.332  57.693  -1.493  1.00  0.00     0.035 A 
HETATM   15  C13 UNL     1      13.953  56.563  -0.954  1.00  0.00     0.032 A 
HETATM   16  C14 UNL     1      14.301  56.492   0.404  1.00  0.00     0.041 A 
HETATM   17  C15 UNL     1      14.024  57.553   1.265  1.00  0.00     0.091 A 
HETATM   18  C23 UNL     1      13.412  58.695   0.732  1.00  0.00     0.069 A 
HETATM   19 CL1  UNL     1      13.045  60.064   1.725  1.00  0.00    -0.081 Cl
HETATM   20  C24 UNL     1      13.067  58.760  -0.624  1.00  0.00     0.056 A 
BRANCH  17  21
HETATM   21  O3  UNL     1      14.337  57.579   2.597  1.00  0.00    -0.345 OA
BRANCH  21  22
HETATM   22  C16 UNL     1      13.641  56.702   3.484  1.00  0.00     0.214 C 
BRANCH  22  23
HETATM   23  C17 UNL     1      14.518  55.599   4.030  1.00  0.00    -0.031 A 
HETATM   24  C18 UNL     1      13.951  54.562   4.790  1.00  0.00     0.009 A 
HETATM   25  C19 UNL     1      14.752  53.549   5.325  1.00  0.00     0.004 A 
HETATM   26  C20 UNL     1      16.129  53.568   5.115  1.00  0.00     0.042 A 
HETATM   27  C21 UNL     1      16.695  54.602   4.378  1.00  0.00     0.117 A 
HETATM   28  F1  UNL     1      18.020  54.624   4.185  1.00  0.00    -0.206 F 
HETATM   29  C22 UNL     1      15.907  55.615   3.842  1.00  0.00     0.051 A 
ENDBRANCH  22  23
ENDBRANCH  21  22
ENDBRANCH  17  21
ENDBRANCH  12  14
ENDBRANCH   9  12
BRANCH   1  30
HETATM   30  C6  UNL     1       8.929  60.867  -5.964  1.00  0.00    -0.057 C 
HETATM   31  C5  UNL     1       8.395  61.848  -6.405  1.00  0.00    -0.065 C 
BRANCH  31  32
HETATM   32  C4  UNL     1       7.743  63.041  -6.944  1.00  0.00     0.301 C 
HETATM   33  N2  UNL     1       8.594  64.217  -6.781  1.00  0.00     0.102 N 
HETATM   34  C3  UNL     1       8.064  65.221  -7.715  1.00  0.00     0.303 C 
HETATM   35  H6  UNL     1       8.557  64.557  -5.822  1.00  0.00     0.317 HD
HETATM   36  C2  UNL     1       7.372  64.438  -8.841  1.00  0.00     0.164 C 
HETATM   37  C26 UNL     1       7.562  62.975  -8.454  1.00  0.00     0.083 C 
BRANCH  36  38
HETATM   38  O2  UNL     1       5.958  64.704  -8.870  1.00  0.00    -0.297 OA
BRANCH  38  39
HETATM   39  C1  UNL     1       5.514  65.500  -7.872  1.00  0.00     0.358 C 
HETATM   40  N1  UNL     1       4.361  65.011  -7.370  1.00  0.00    -0.346 N 
HETATM   41  H1  UNL     1       3.916  64.221  -7.811  1.00  0.00     0.161 HD
HETATM   42  H2  UNL     1       3.873  65.546  -6.667  1.00  0.00     0.161 HD
HETATM   43  O1  UNL     1       6.055  66.514  -7.463  1.00  0.00    -0.239 OA
ENDBRANCH  38  39
ENDBRANCH  36  38
ENDBRANCH  31  32
ENDBRANCH   1  30
TORSDOF 9
ENDMDL
MODEL 6
REMARK minimizedAffinity -7.68527174
REMARK CNNscore 0.381917953
REMARK CNNaffinity 6.27989578
REMARK  9 active torsions:
REMARK  status: ('A' for Active; 'I' for Inactive)
REMARK       I    between atoms: N1_1  and  C1_2 
REMARK    1  A    between atoms: C1_2  and  O2_4 
REMARK    2  A    between atoms: O2_4  and  C2_5 
REMARK    3  A    between atoms: C4_8  and  C5_9 
REMARK    4  A    between atoms: C6_10  and  C7_11 
REMARK    5  A    between atoms: C11_19  and  N5_20 
REMARK    6  A    between atoms: N5_20  and  C12_21 
REMARK    7  A    between atoms: C15_24  and  O3_25 
REMARK    8  A    between atoms: O3_25  and  C16_26 
REMARK    9  A    between atoms: C16_26  and  C17_27 
ROOT
HETATM    1  C7  UNL     1      10.809  58.259  -3.913  1.00  0.00     0.061 A 
HETATM    2  C8  UNL     1      10.641  56.899  -4.016  1.00  0.00     0.059 A 
HETATM    3  C9  UNL     1      11.393  56.182  -3.041  1.00  0.00     0.056 A 
HETATM    4  N3  UNL     1      11.416  54.834  -2.915  1.00  0.00    -0.351 N 
ATOM      5  H3  UNL     1      10.886  54.209  -3.522  1.00  0.00     0.166 HD
HETATM    6  C10 UNL     1      12.195  54.398  -1.924  1.00  0.00     0.182 A 
HETATM    7  N4  UNL     1      12.929  55.134  -1.076  1.00  0.00    -0.337 N 
ATOM      8  H4  UNL     1      13.489  54.682  -0.354  1.00  0.00     0.168 HD
HETATM    9  C11 UNL     1      12.919  56.482  -1.189  1.00  0.00     0.126 A 
HETATM   10  C25 UNL     1      12.120  57.026  -2.210  1.00  0.00     0.077 A 
HETATM   11  S1  UNL     1      11.867  58.675  -2.643  1.00  0.00    -0.075 SA
ENDROOT
BRANCH   9  12
HETATM   12  N5  UNL     1      13.656  57.315  -0.333  1.00  0.00    -0.341 N 
HETATM   13  H10 UNL     1      14.416  57.782  -0.813  1.00  0.00     0.167 HD
BRANCH  12  14
HETATM   14  C12 UNL     1      13.558  57.607   1.037  1.00  0.00     0.035 A 
HETATM   15  C13 UNL     1      13.333  58.886   1.549  1.00  0.00     0.032 A 
HETATM   16  C14 UNL     1      13.258  59.122   2.931  1.00  0.00     0.041 A 
HETATM   17  C15 UNL     1      13.420  58.078   3.841  1.00  0.00     0.091 A 
HETATM   18  C23 UNL     1      13.634  56.790   3.336  1.00  0.00     0.069 A 
HETATM   19 CL1  UNL     1      13.831  55.432   4.392  1.00  0.00    -0.081 Cl
HETATM   20  C24 UNL     1      13.708  56.560   1.957  1.00  0.00     0.056 A 
BRANCH  17  21
HETATM   21  O3  UNL     1      13.350  58.211   5.201  1.00  0.00    -0.345 OA
BRANCH  21  22
HETATM   22  C16 UNL     1      13.198  59.518   5.757  1.00  0.00     0.214 C 
BRANCH  22  23
HETATM   23  C17 UNL     1      12.402  59.521   7.043  1.00  0.00    -0.031 A 
HETATM   24  C18 UNL     1      11.189  60.227   7.116  1.00  0.00     0.009 A 
HETATM   25  C19 UNL     1      10.455  60.262   8.305  1.00  0.00     0.004 A 
HETATM   26  C20 UNL     1      10.931  59.602   9.435  1.00  0.00     0.042 A 
HETATM   27  C21 UNL     1      12.138  58.917   9.371  1.00  0.00     0.117 A 
HETATM   28  F1  UNL     1      12.598  58.290  10.461  1.00  0.00    -0.206 F 
HETATM   29  C22 UNL     1      12.877  58.876   8.193  1.00  0.00     0.051 A 
ENDBRANCH  22  23
ENDBRANCH  21  22
ENDBRANCH  17  21
ENDBRANCH  12  14
ENDBRANCH   9  12
BRANCH   1  30
HETATM   30  C6  UNL     1      10.183  59.223  -4.756  1.00  0.00    -0.057 C 
HETATM   31  C5  UNL     1       9.655  60.033  -5.469  1.00  0.00    -0.065 C 
BRANCH  31  32
HETATM   32  C4  UNL     1       9.010  61.018  -6.336  1.00  0.00     0.301 C 
HETATM   33  N2  UNL     1       8.654  60.424  -7.623  1.00  0.00     0.102 N 
HETATM   34  C3  UNL     1       7.658  61.328  -8.214  1.00  0.00     0.303 C 
HETATM   35  H6  UNL     1       9.473  60.343  -8.221  1.00  0.00     0.317 HD
HETATM   36  C2  UNL     1       6.975  62.043  -7.038  1.00  0.00     0.164 C 
HETATM   37  C26 UNL     1       7.661  61.473  -5.801  1.00  0.00     0.083 C 
BRANCH  36  38
HETATM   38  O2  UNL     1       7.231  63.459  -7.068  1.00  0.00    -0.297 OA
BRANCH  38  39
HETATM   39  C1  UNL     1       6.595  64.168  -6.109  1.00  0.00     0.358 C 
HETATM   40  N1  UNL     1       5.455  64.694  -6.605  1.00  0.00    -0.346 N 
HETATM   41  H1  UNL     1       5.247  64.606  -7.587  1.00  0.00     0.161 HD
HETATM   42  H2  UNL     1       4.913  65.312  -6.021  1.00  0.00     0.161 HD
HETATM   43  O1  UNL     1       6.969  64.324  -4.959  1.00  0.00    -0.239 OA
ENDBRANCH  38  39
ENDBRANCH  36  38
ENDBRANCH  31  32
ENDBRANCH   1  30
TORSDOF 9
ENDMDL
MODEL 7
REMARK minimizedAffinity -6.41845369
REMARK CNNscore 0.37589708
REMARK CNNaffinity 6.56371069
REMARK  9 active torsions:
REMARK  status: ('A' for Active; 'I' for Inactive)
REMARK       I    between atoms: N1_1  and  C1_2 
REMARK    1  A    between atoms: C1_2  and  O2_4 
REMARK    2  A    between atoms: O2_4  and  C2_5 
REMARK    3  A    between atoms: C4_8  and  C5_9 
REMARK    4  A    between atoms: C6_10  and  C7_11 
REMARK    5  A    between atoms: C11_19  and  N5_20 
REMARK    6  A    between atoms: N5_20  and  C12_21 
REMARK    7  A    between atoms: C15_24  and  O3_25 
REMARK    8  A    between atoms: O3_25  and  C16_26 
REMARK    9  A    between atoms: C16_26  and  C17_27 
ROOT
HETATM    1  C7  UNL     1      13.618  58.678   5.758  1.00  0.00     0.061 A 
HETATM    2  C8  UNL     1      14.505  57.717   6.182  1.00  0.00     0.059 A 
HETATM    3  C9  UNL     1      15.066  56.979   5.100  1.00  0.00     0.056 A 
HETATM    4  N3  UNL     1      15.964  55.974   5.229  1.00  0.00    -0.351 N 
ATOM      5  H3  UNL     1      16.318  55.657   6.131  1.00  0.00     0.166 HD
HETATM    6  C10 UNL     1      16.344  55.436   4.068  1.00  0.00     0.182 A 
HETATM    7  N4  UNL     1      15.937  55.779   2.837  1.00  0.00    -0.337 N 
ATOM      8  H4  UNL     1      16.302  55.291   2.019  1.00  0.00     0.168 HD
HETATM    9  C11 UNL     1      15.039  56.781   2.690  1.00  0.00     0.126 A 
HETATM   10  C25 UNL     1      14.587  57.404   3.866  1.00  0.00     0.077 A 
HETATM   11  S1  UNL     1      13.462  58.695   4.061  1.00  0.00    -0.075 SA
ENDROOT
BRANCH   9  12
HETATM   12  N5  UNL     1      14.576  57.198   1.433  1.00  0.00    -0.341 N 
HETATM   13  H10 UNL     1      14.628  58.204   1.319  1.00  0.00     0.167 HD
BRANCH  12  14
HETATM   14  C12 UNL     1      14.046  56.509   0.330  1.00  0.00     0.035 A 
HETATM   15  C13 UNL     1      14.786  55.643  -0.479  1.00  0.00     0.032 A 
HETATM   16  C14 UNL     1      14.207  54.990  -1.578  1.00  0.00     0.041 A 
HETATM   17  C15 UNL     1      12.868  55.198  -1.905  1.00  0.00     0.091 A 
HETATM   18  C23 UNL     1      12.115  56.055  -1.092  1.00  0.00     0.069 A 
HETATM   19 CL1  UNL     1      10.441  56.359  -1.415  1.00  0.00    -0.081 Cl
HETATM   20  C24 UNL     1      12.697  56.704   0.004  1.00  0.00     0.056 A 
BRANCH  17  21
HETATM   21  O3  UNL     1      12.216  54.596  -2.947  1.00  0.00    -0.345 OA
BRANCH  21  22
HETATM   22  C16 UNL     1      12.849  53.501  -3.613  1.00  0.00     0.214 C 
BRANCH  22  23
HETATM   23  C17 UNL     1      12.475  52.160  -3.025  1.00  0.00    -0.031 A 
HETATM   24  C18 UNL     1      13.377  51.486  -2.185  1.00  0.00     0.009 A 
HETATM   25  C19 UNL     1      13.058  50.232  -1.655  1.00  0.00     0.004 A 
HETATM   26  C20 UNL     1      11.839  49.635  -1.969  1.00  0.00     0.042 A 
HETATM   27  C21 UNL     1      10.952  50.292  -2.813  1.00  0.00     0.117 A 
HETATM   28  F1  UNL     1       9.784  49.712  -3.121  1.00  0.00    -0.206 F 
HETATM   29  C22 UNL     1      11.259  51.539  -3.346  1.00  0.00     0.051 A 
ENDBRANCH  22  23
ENDBRANCH  21  22
ENDBRANCH  17  21
ENDBRANCH  12  14
ENDBRANCH   9  12
BRANCH   1  30
HETATM   30  C6  UNL     1      12.905  59.564   6.617  1.00  0.00    -0.057 C 
HETATM   31  C5  UNL     1      12.301  60.309   7.340  1.00  0.00    -0.065 C 
BRANCH  31  32
HETATM   32  C4  UNL     1      11.565  61.214   8.222  1.00  0.00     0.301 C 
HETATM   33  N2  UNL     1      10.743  60.464   9.168  1.00  0.00     0.102 N 
HETATM   34  C3  UNL     1      10.415  61.410  10.244  1.00  0.00     0.303 C 
HETATM   35  H6  UNL     1       9.899  60.119   8.717  1.00  0.00     0.317 HD
HETATM   36  C2  UNL     1      11.545  62.451  10.260  1.00  0.00     0.164 C 
HETATM   37  C26 UNL     1      12.482  62.008   9.141  1.00  0.00     0.083 C 
BRANCH  36  38
HETATM   38  O2  UNL     1      11.053  63.762   9.927  1.00  0.00    -0.297 OA
BRANCH  38  39
HETATM   39  C1  UNL     1      11.414  64.735  10.792  1.00  0.00     0.358 C 
HETATM   40  N1  UNL     1      12.135  64.209  11.804  1.00  0.00    -0.346 N 
HETATM   41  H1  UNL     1      12.246  63.210  11.875  1.00  0.00     0.161 HD
HETATM   42  H2  UNL     1      12.409  64.809  12.567  1.00  0.00     0.161 HD
HETATM   43  O1  UNL     1      11.144  65.922  10.697  1.00  0.00    -0.239 OA
ENDBRANCH  38  39
ENDBRANCH  36  38
ENDBRANCH  31  32
ENDBRANCH   1  30
TORSDOF 9
ENDMDL
MODEL 8
REMARK minimizedAffinity -7.27301693
REMARK CNNscore 0.365439266
REMARK CNNaffinity 6.32295418
REMARK  9 active torsions:
REMARK  status: ('A' for Active; 'I' for Inactive)
REMARK       I    between atoms: N1_1  and  C1_2 
REMARK    1  A    between atoms: C1_2  and  O2_4 
REMARK    2  A    between atoms: O2_4  and  C2_5 
REMARK    3  A    between atoms: C4_8  and  C5_9 
REMARK    4  A    between atoms: C6_10  and  C7_11 
REMARK    5  A    between atoms: C11_19  and  N5_20 
REMARK    6  A    between atoms: N5_20  and  C12_21 
REMARK    7  A    between atoms: C15_24  and  O3_25 
REMARK    8  A    between atoms: O3_25  and  C16_26 
REMARK    9  A    between atoms: C16_26  and  C17_27 
ROOT
HETATM    1  C7  UNL     1      17.159  52.838   5.407  1.00  0.00     0.061 A 
HETATM    2  C8  UNL     1      18.196  53.622   5.857  1.00  0.00     0.059 A 
HETATM    3  C9  UNL     1      17.866  55.008   5.865  1.00  0.00     0.056 A 
HETATM    4  N3  UNL     1      18.698  56.002   6.258  1.00  0.00    -0.351 N 
ATOM      5  H3  UNL     1      19.649  55.834   6.585  1.00  0.00     0.166 HD
HETATM    6  C10 UNL     1      18.161  57.220   6.177  1.00  0.00     0.182 A 
HETATM    7  N4  UNL     1      16.928  57.543   5.760  1.00  0.00    -0.337 N 
ATOM      8  H4  UNL     1      16.629  58.518   5.743  1.00  0.00     0.168 HD
HETATM    9  C11 UNL     1      16.083  56.563   5.363  1.00  0.00     0.126 A 
HETATM   10  C25 UNL     1      16.572  55.246   5.418  1.00  0.00     0.077 A 
HETATM   11  S1  UNL     1      15.790  53.768   4.999  1.00  0.00    -0.075 SA
ENDROOT
BRANCH   9  12
HETATM   12  N5  UNL     1      14.777  56.826   4.923  1.00  0.00    -0.341 N 
HETATM   13  H10 UNL     1      14.102  56.781   5.677  1.00  0.00     0.167 HD
BRANCH  12  14
HETATM   14  C12 UNL     1      14.232  57.116   3.662  1.00  0.00     0.035 A 
HETATM   15  C13 UNL     1      14.064  56.171   2.647  1.00  0.00     0.032 A 
HETATM   16  C14 UNL     1      13.525  56.520   1.399  1.00  0.00     0.041 A 
HETATM   17  C15 UNL     1      13.149  57.835   1.130  1.00  0.00     0.091 A 
HETATM   18  C23 UNL     1      13.302  58.788   2.145  1.00  0.00     0.069 A 
HETATM   19 CL1  UNL     1      12.847  60.441   1.903  1.00  0.00    -0.081 Cl
HETATM   20  C24 UNL     1      13.840  58.434   3.389  1.00  0.00     0.056 A 
BRANCH  17  21
HETATM   21  O3  UNL     1      12.603  58.265  -0.049  1.00  0.00    -0.345 OA
BRANCH  21  22
HETATM   22  C16 UNL     1      12.109  57.293  -0.973  1.00  0.00     0.214 C 
BRANCH  22  23
HETATM   23  C17 UNL     1      11.519  57.912  -2.219  1.00  0.00    -0.031 A 
HETATM   24  C18 UNL     1      12.138  59.026  -2.810  1.00  0.00     0.009 A 
HETATM   25  C19 UNL     1      11.590  59.627  -3.947  1.00  0.00     0.004 A 
HETATM   26  C20 UNL     1      10.412  59.129  -4.498  1.00  0.00     0.042 A 
HETATM   27  C21 UNL     1       9.788  58.037  -3.905  1.00  0.00     0.117 A 
HETATM   28  F1  UNL     1       8.650  57.564  -4.430  1.00  0.00    -0.206 F 
HETATM   29  C22 UNL     1      10.324  57.432  -2.774  1.00  0.00     0.051 A 
ENDBRANCH  22  23
ENDBRANCH  21  22
ENDBRANCH  17  21
ENDBRANCH  12  14
ENDBRANCH   9  12
BRANCH   1  30
HETATM   30  C6  UNL     1      17.203  51.419   5.290  1.00  0.00    -0.057 C 
HETATM   31  C5  UNL     1      17.237  50.223   5.192  1.00  0.00    -0.065 C 
BRANCH  31  32
HETATM   32  C4  UNL     1      17.277  48.766   5.068  1.00  0.00     0.301 C 
HETATM   33  N2  UNL     1      18.556  48.325   4.516  1.00  0.00     0.102 N 
HETATM   34  C3  UNL     1      18.657  46.896   4.842  1.00  0.00     0.303 C 
HETATM   35  H6  UNL     1      18.583  48.472   3.509  1.00  0.00     0.317 HD
HETATM   36  C2  UNL     1      17.800  46.680   6.099  1.00  0.00     0.164 C 
HETATM   37  C26 UNL     1      17.244  48.064   6.418  1.00  0.00     0.083 C 
BRANCH  36  38
HETATM   38  O2  UNL     1      16.685  45.811   5.829  1.00  0.00    -0.297 OA
BRANCH  38  39
HETATM   39  C1  UNL     1      15.710  45.839   6.764  1.00  0.00     0.358 C 
HETATM   40  N1  UNL     1      16.067  45.088   7.827  1.00  0.00    -0.346 N 
HETATM   41  H1  UNL     1      16.911  44.538   7.791  1.00  0.00     0.161 HD
HETATM   42  H2  UNL     1      15.401  44.956   8.572  1.00  0.00     0.161 HD
HETATM   43  O1  UNL     1      14.654  46.446   6.687  1.00  0.00    -0.239 OA
ENDBRANCH  38  39
ENDBRANCH  36  38
ENDBRANCH  31  32
ENDBRANCH   1  30
TORSDOF 9
ENDMDL
MODEL 9
REMARK minimizedAffinity -7.36028337
REMARK CNNscore 0.362395644
REMARK CNNaffinity 6.18375349
REMARK  9 active torsions:
REMARK  status: ('A' for Active; 'I' for Inactive)
REMARK       I    between atoms: N1_1  and  C1_2 
REMARK    1  A    between atoms: C1_2  and  O2_4 
REMARK    2  A    between atoms: O2_4  and  C2_5 
REMARK    3  A    between atoms: C4_8  and  C5_9 
REMARK    4  A    between atoms: C6_10  and  C7_11 
REMARK    5  A    between atoms: C11_19  and  N5_20 
REMARK    6  A    between atoms: N5_20  and  C12_21 
REMARK    7  A    between atoms: C15_24  and  O3_25 
REMARK    8  A    between atoms: O3_25  and  C16_26 
REMARK    9  A    between atoms: C16_26  and  C17_27 
ROOT
HETATM    1  C7  UNL     1      12.597  53.645  -2.610  1.00  0.00     0.061 A 
HETATM    2  C8  UNL     1      11.787  54.286  -3.518  1.00  0.00     0.059 A 
HETATM    3  C9  UNL     1      11.796  55.701  -3.353  1.00  0.00     0.056 A 
HETATM    4  N3  UNL     1      11.090  56.575  -4.108  1.00  0.00    -0.351 N 
ATOM      5  H3  UNL     1      10.479  56.285  -4.871  1.00  0.00     0.166 HD
HETATM    6  C10 UNL     1      11.264  57.851  -3.761  1.00  0.00     0.182 A 
HETATM    7  N4  UNL     1      12.038  58.333  -2.777  1.00  0.00    -0.337 N 
ATOM      8  H4  UNL     1      12.090  59.337  -2.607  1.00  0.00     0.168 HD
HETATM    9  C11 UNL     1      12.750  57.472  -2.012  1.00  0.00     0.126 A 
HETATM   10  C25 UNL     1      12.624  56.105  -2.312  1.00  0.00     0.077 A 
HETATM   11  S1  UNL     1      13.370  54.744  -1.562  1.00  0.00    -0.075 SA
ENDROOT
BRANCH   9  12
HETATM   12  N5  UNL     1      13.587  57.905  -0.972  1.00  0.00    -0.341 N 
HETATM   13  H10 UNL     1      14.357  58.472  -1.309  1.00  0.00     0.167 HD
BRANCH  12  14
HETATM   14  C12 UNL     1      13.575  57.695   0.416  1.00  0.00     0.035 A 
HETATM   15  C13 UNL     1      13.690  56.439   1.017  1.00  0.00     0.032 A 
HETATM   16  C14 UNL     1      13.659  56.286   2.412  1.00  0.00     0.041 A 
HETATM   17  C15 UNL     1      13.499  57.392   3.246  1.00  0.00     0.091 A 
HETATM   18  C23 UNL     1      13.395  58.656   2.653  1.00  0.00     0.069 A 
HETATM   19 CL1  UNL     1      13.209  60.086   3.612  1.00  0.00    -0.081 Cl
HETATM   20  C24 UNL     1      13.427  58.804   1.261  1.00  0.00     0.056 A 
BRANCH  17  21
HETATM   21  O3  UNL     1      13.471  57.341   4.613  1.00  0.00    -0.345 OA
BRANCH  21  22
HETATM   22  C16 UNL     1      14.701  57.170   5.320  1.00  0.00     0.214 C 
BRANCH  22  23
HETATM   23  C17 UNL     1      15.265  55.774   5.191  1.00  0.00    -0.031 A 
HETATM   24  C18 UNL     1      14.441  54.660   5.423  1.00  0.00     0.009 A 
HETATM   25  C19 UNL     1      14.953  53.362   5.335  1.00  0.00     0.004 A 
HETATM   26  C20 UNL     1      16.297  53.166   5.025  1.00  0.00     0.042 A 
HETATM   27  C21 UNL     1      17.118  54.266   4.811  1.00  0.00     0.117 A 
HETATM   28  F1  UNL     1      18.412  54.075   4.522  1.00  0.00    -0.206 F 
HETATM   29  C22 UNL     1      16.619  55.561   4.897  1.00  0.00     0.051 A 
ENDBRANCH  22  23
ENDBRANCH  21  22
ENDBRANCH  17  21
ENDBRANCH  12  14
ENDBRANCH   9  12
BRANCH   1  30
HETATM   30  C6  UNL     1      12.782  52.234  -2.537  1.00  0.00    -0.057 C 
HETATM   31  C5  UNL     1      12.938  51.045  -2.479  1.00  0.00    -0.065 C 
BRANCH  31  32
HETATM   32  C4  UNL     1      13.132  49.597  -2.408  1.00  0.00     0.301 C 
HETATM   33  N2  UNL     1      14.343  49.270  -1.660  1.00  0.00     0.102 N 
HETATM   34  C3  UNL     1      14.205  47.856  -1.282  1.00  0.00     0.303 C 
HETATM   35  H6  UNL     1      15.171  49.414  -2.235  1.00  0.00     0.317 HD
HETATM   36  C2  UNL     1      12.696  47.571  -1.228  1.00  0.00     0.164 C 
HETATM   37  C26 UNL     1      12.048  48.901  -1.598  1.00  0.00     0.083 C 
BRANCH  36  38
HETATM   38  O2  UNL     1      12.312  46.604  -2.223  1.00  0.00    -0.297 OA
BRANCH  38  39
HETATM   39  C1  UNL     1      11.524  45.607  -1.764  1.00  0.00     0.358 C 
HETATM   40  N1  UNL     1      11.649  45.501  -0.424  1.00  0.00    -0.346 N 
HETATM   41  H1  UNL     1      12.334  46.057   0.062  1.00  0.00     0.161 HD
HETATM   42  H2  UNL     1      11.174  44.746   0.048  1.00  0.00     0.161 HD
HETATM   43  O1  UNL     1      10.797  44.893  -2.436  1.00  0.00    -0.239 OA
ENDBRANCH  38  39
ENDBRANCH  36  38
ENDBRANCH  31  32
ENDBRANCH   1  30
TORSDOF 9
ENDMDL
