MODEL 1
REMARK minimizedAffinity -8.82161999
REMARK  4 active torsions:
REMARK  status: ('A' for Active; 'I' for Inactive)
REMARK    1  A    between atoms: N1_1  and  C1_2 
REMARK    2  A    between atoms: C5_10  and  C6_11 
REMARK    3  A    between atoms: N4_18  and  C13_19 
REMARK    4  A    between atoms: C15_21  and  O1_22 
ROOT
HETATM    1  C1  UNL     1      11.359  -4.314  29.893  1.00  0.00     0.093 A 
HETATM    2  N2  UNL     1      11.508  -4.469  28.562  1.00  0.00    -0.343 N 
ATOM      3  H2  UNL     1      12.400  -4.269  28.110  1.00  0.00     0.167 HD
HETATM    4  C2  UNL     1      10.453  -4.894  27.844  1.00  0.00     0.183 A 
HETATM    5  N3  UNL     1       9.225  -5.206  28.284  1.00  0.00    -0.338 N 
ATOM      6  H3  UNL     1       8.468  -5.535  27.684  1.00  0.00     0.168 HD
HETATM    7  C3  UNL     1       9.114  -5.033  29.613  1.00  0.00     0.123 A 
HETATM    8  C4  UNL     1      10.115  -4.601  30.477  1.00  0.00     0.059 A 
HETATM    9  C5  UNL     1       9.551  -4.598  31.796  1.00  0.00     0.007 A 
HETATM   10  C12 UNL     1       8.245  -5.046  31.689  1.00  0.00     0.106 A 
HETATM   11  N4  UNL     1       7.986  -5.255  30.362  1.00  0.00    -0.337 N 
ENDROOT
BRANCH   9  12
HETATM   12  C6  UNL     1      10.143  -4.227  33.068  1.00  0.00    -0.024 A 
HETATM   13  C7  UNL     1       9.453  -4.469  34.261  1.00  0.00     0.012 A 
HETATM   14  C8  UNL     1      10.016  -4.106  35.487  1.00  0.00     0.001 A 
HETATM   15  C9  UNL     1      11.272  -3.504  35.527  1.00  0.00     0.000 A 
HETATM   16  C10 UNL     1      11.968  -3.263  34.342  1.00  0.00     0.001 A 
HETATM   17  C11 UNL     1      11.407  -3.624  33.115  1.00  0.00     0.012 A 
ENDBRANCH   9  12
BRANCH   1  18
HETATM   18  N1  UNL     1      12.480  -3.902  30.600  1.00  0.00    -0.288 NA
HETATM   19  H1  UNL     1      13.321  -4.044  30.054  1.00  0.00     0.125 HD
HETATM   20  H2  UNL     1      12.511  -4.212  31.563  1.00  0.00     0.125 HD
ENDBRANCH   1  18
BRANCH  11  21
HETATM   21  C13 UNL     1       6.723  -5.788  29.815  1.00  0.00     0.096 C 
HETATM   22  C14 UNL     1       5.543  -5.843  30.819  1.00  0.00     0.057 C 
HETATM   23  C15 UNL     1       4.628  -5.382  29.661  1.00  0.00     0.122 C 
HETATM   24  C16 UNL     1       5.887  -4.738  29.037  1.00  0.00     0.057 C 
BRANCH  23  25
HETATM   25  O1  UNL     1       3.568  -4.483  30.023  1.00  0.00    -0.395 OA
HETATM   26  H14 UNL     1       3.219  -4.150  29.178  1.00  0.00     0.210 HD
ENDBRANCH  23  25
ENDBRANCH  11  21
TORSDOF 4
ENDMDL
MODEL 2
REMARK minimizedAffinity -8.35720825
REMARK  4 active torsions:
REMARK  status: ('A' for Active; 'I' for Inactive)
REMARK    1  A    between atoms: N1_1  and  C1_2 
REMARK    2  A    between atoms: C5_10  and  C6_11 
REMARK    3  A    between atoms: N4_18  and  C13_19 
REMARK    4  A    between atoms: C15_21  and  O1_22 
ROOT
HETATM    1  C1  UNL     1      10.723  -4.633  29.752  1.00  0.00     0.093 A 
HETATM    2  N2  UNL     1      10.517  -5.101  28.504  1.00  0.00    -0.343 N 
ATOM      3  H2  UNL     1      11.285  -5.159  27.836  1.00  0.00     0.167 HD
HETATM    4  C2  UNL     1       9.276  -5.489  28.161  1.00  0.00     0.183 A 
HETATM    5  N3  UNL     1       8.169  -5.486  28.919  1.00  0.00    -0.338 N 
ATOM      6  H3  UNL     1       7.255  -5.806  28.600  1.00  0.00     0.168 HD
HETATM    7  C3  UNL     1       8.413  -5.008  30.152  1.00  0.00     0.123 A 
HETATM    8  C4  UNL     1       9.639  -4.570  30.643  1.00  0.00     0.059 A 
HETATM    9  C5  UNL     1       9.425  -4.181  32.006  1.00  0.00     0.007 A 
HETATM   10  C12 UNL     1       8.092  -4.416  32.300  1.00  0.00     0.106 A 
HETATM   11  N4  UNL     1       7.490  -4.865  31.157  1.00  0.00    -0.337 N 
ENDROOT
BRANCH   9  12
HETATM   12  C6  UNL     1      10.353  -3.644  32.985  1.00  0.00    -0.024 A 
HETATM   13  C7  UNL     1      10.424  -4.203  34.266  1.00  0.00     0.012 A 
HETATM   14  C8  UNL     1      11.310  -3.683  35.213  1.00  0.00     0.001 A 
HETATM   15  C9  UNL     1      12.132  -2.607  34.883  1.00  0.00     0.000 A 
HETATM   16  C10 UNL     1      12.070  -2.048  33.607  1.00  0.00     0.001 A 
HETATM   17  C11 UNL     1      11.185  -2.565  32.659  1.00  0.00     0.012 A 
ENDBRANCH   9  12
BRANCH   1  18
HETATM   18  N1  UNL     1      12.023  -4.270  30.073  1.00  0.00    -0.288 NA
HETATM   19  H1  UNL     1      12.680  -4.669  29.414  1.00  0.00     0.125 HD
HETATM   20  H2  UNL     1      12.258  -4.361  31.054  1.00  0.00     0.125 HD
ENDBRANCH   1  18
BRANCH  11  21
HETATM   21  C13 UNL     1       6.079  -5.285  31.048  1.00  0.00     0.096 C 
HETATM   22  C14 UNL     1       5.144  -4.272  30.339  1.00  0.00     0.057 C 
HETATM   23  C15 UNL     1       4.463  -5.483  29.660  1.00  0.00     0.122 C 
HETATM   24  C16 UNL     1       5.800  -6.233  29.853  1.00  0.00     0.057 C 
BRANCH  23  25
HETATM   25  O1  UNL     1       4.038  -5.280  28.302  1.00  0.00    -0.395 OA
HETATM   26  H14 UNL     1       3.814  -6.167  27.973  1.00  0.00     0.210 HD
ENDBRANCH  23  25
ENDBRANCH  11  21
TORSDOF 4
ENDMDL
MODEL 3
REMARK minimizedAffinity -8.18530083
REMARK  4 active torsions:
REMARK  status: ('A' for Active; 'I' for Inactive)
REMARK    1  A    between atoms: N1_1  and  C1_2 
REMARK    2  A    between atoms: C5_10  and  C6_11 
REMARK    3  A    between atoms: N4_18  and  C13_19 
REMARK    4  A    between atoms: C15_21  and  O1_22 
ROOT
HETATM    1  C1  UNL     1       5.861  -3.632  30.897  1.00  0.00     0.093 A 
HETATM    2  N2  UNL     1       6.324  -2.609  31.644  1.00  0.00    -0.343 N 
ATOM      3  H2  UNL     1       5.699  -1.866  31.955  1.00  0.00     0.167 HD
HETATM    4  C2  UNL     1       7.629  -2.591  31.968  1.00  0.00     0.183 A 
HETATM    5  N3  UNL     1       8.574  -3.488  31.649  1.00  0.00    -0.338 N 
ATOM      6  H3  UNL     1       9.549  -3.421  31.938  1.00  0.00     0.168 HD
HETATM    7  C3  UNL     1       8.075  -4.488  30.901  1.00  0.00     0.123 A 
HETATM    8  C4  UNL     1       6.755  -4.636  30.489  1.00  0.00     0.059 A 
HETATM    9  C5  UNL     1       6.687  -5.858  29.742  1.00  0.00     0.007 A 
HETATM   10  C12 UNL     1       7.954  -6.417  29.746  1.00  0.00     0.106 A 
HETATM   11  N4  UNL     1       8.785  -5.553  30.404  1.00  0.00    -0.337 N 
ENDROOT
BRANCH   9  12
HETATM   12  C6  UNL     1       5.561  -6.489  29.077  1.00  0.00    -0.024 A 
HETATM   13  C7  UNL     1       5.744  -7.682  28.368  1.00  0.00     0.012 A 
HETATM   14  C8  UNL     1       4.665  -8.288  27.720  1.00  0.00     0.001 A 
HETATM   15  C9  UNL     1       3.399  -7.708  27.781  1.00  0.00     0.000 A 
HETATM   16  C10 UNL     1       3.208  -6.522  28.490  1.00  0.00     0.001 A 
HETATM   17  C11 UNL     1       4.286  -5.914  29.138  1.00  0.00     0.012 A 
ENDBRANCH   9  12
BRANCH   1  18
HETATM   18  N1  UNL     1       4.505  -3.626  30.609  1.00  0.00    -0.288 NA
HETATM   19  H1  UNL     1       4.007  -3.003  31.233  1.00  0.00     0.125 HD
HETATM   20  H2  UNL     1       4.097  -4.543  30.470  1.00  0.00     0.125 HD
ENDBRANCH   1  18
BRANCH  11  21
HETATM   21  C13 UNL     1      10.215  -5.793  30.681  1.00  0.00     0.096 C 
HETATM   22  C14 UNL     1      11.122  -4.539  30.588  1.00  0.00     0.057 C 
HETATM   23  C15 UNL     1      11.871  -5.076  31.830  1.00  0.00     0.122 C 
HETATM   24  C16 UNL     1      10.564  -5.816  32.192  1.00  0.00     0.057 C 
BRANCH  23  25
HETATM   25  O1  UNL     1      12.320  -4.083  32.766  1.00  0.00    -0.395 OA
HETATM   26  H14 UNL     1      12.590  -4.584  33.555  1.00  0.00     0.210 HD
ENDBRANCH  23  25
ENDBRANCH  11  21
TORSDOF 4
ENDMDL
MODEL 4
REMARK minimizedAffinity -8.12865448
REMARK  4 active torsions:
REMARK  status: ('A' for Active; 'I' for Inactive)
REMARK    1  A    between atoms: N1_1  and  C1_2 
REMARK    2  A    between atoms: C5_10  and  C6_11 
REMARK    3  A    between atoms: N4_18  and  C13_19 
REMARK    4  A    between atoms: C15_21  and  O1_22 
ROOT
HETATM    1  C1  UNL     1       9.611  -7.000  29.876  1.00  0.00     0.093 A 
HETATM    2  N2  UNL     1      10.901  -7.355  30.047  1.00  0.00    -0.343 N 
ATOM      3  H2  UNL     1      11.279  -8.182  29.587  1.00  0.00     0.167 HD
HETATM    4  C2  UNL     1      11.676  -6.592  30.839  1.00  0.00     0.183 A 
HETATM    5  N3  UNL     1      11.336  -5.478  31.504  1.00  0.00    -0.338 N 
ATOM      6  H3  UNL     1      11.979  -4.937  32.082  1.00  0.00     0.168 HD
HETATM    7  C3  UNL     1      10.043  -5.160  31.313  1.00  0.00     0.123 A 
HETATM    8  C4  UNL     1       9.128  -5.853  30.527  1.00  0.00     0.059 A 
HETATM    9  C5  UNL     1       7.890  -5.134  30.601  1.00  0.00     0.007 A 
HETATM   10  C12 UNL     1       8.102  -4.026  31.404  1.00  0.00     0.106 A 
HETATM   11  N4  UNL     1       9.388  -4.087  31.863  1.00  0.00    -0.337 N 
ENDROOT
BRANCH   9  12
HETATM   12  C6  UNL     1       6.605  -5.413  29.986  1.00  0.00    -0.024 A 
HETATM   13  C7  UNL     1       5.422  -5.019  30.621  1.00  0.00     0.012 A 
HETATM   14  C8  UNL     1       4.183  -5.293  30.036  1.00  0.00     0.001 A 
HETATM   15  C9  UNL     1       4.121  -5.958  28.813  1.00  0.00     0.000 A 
HETATM   16  C10 UNL     1       5.296  -6.351  28.172  1.00  0.00     0.001 A 
HETATM   17  C11 UNL     1       6.535  -6.078  28.755  1.00  0.00     0.012 A 
ENDBRANCH   9  12
BRANCH   1  18
HETATM   18  N1  UNL     1       8.854  -7.797  29.030  1.00  0.00    -0.288 NA
HETATM   19  H1  UNL     1       9.452  -8.369  28.445  1.00  0.00     0.125 HD
HETATM   20  H2  UNL     1       8.095  -7.318  28.563  1.00  0.00     0.125 HD
ENDBRANCH   1  18
BRANCH  11  21
HETATM   21  C13 UNL     1      10.039  -3.068  32.710  1.00  0.00     0.096 C 
HETATM   22  C14 UNL     1      11.551  -3.295  32.967  1.00  0.00     0.057 C 
HETATM   23  C15 UNL     1      11.735  -1.767  32.809  1.00  0.00     0.122 C 
HETATM   24  C16 UNL     1      10.460  -1.790  31.937  1.00  0.00     0.057 C 
BRANCH  23  25
HETATM   25  O1  UNL     1      12.945  -1.348  32.157  1.00  0.00    -0.395 OA
HETATM   26  H14 UNL     1      12.817  -0.402  31.972  1.00  0.00     0.210 HD
ENDBRANCH  23  25
ENDBRANCH  11  21
TORSDOF 4
ENDMDL
MODEL 5
REMARK minimizedAffinity -8.09932709
REMARK  4 active torsions:
REMARK  status: ('A' for Active; 'I' for Inactive)
REMARK    1  A    between atoms: N1_1  and  C1_2 
REMARK    2  A    between atoms: C5_10  and  C6_11 
REMARK    3  A    between atoms: N4_18  and  C13_19 
REMARK    4  A    between atoms: C15_21  and  O1_22 
ROOT
HETATM    1  C1  UNL     1      10.093  -4.667  29.308  1.00  0.00     0.093 A 
HETATM    2  N2  UNL     1      11.415  -4.450  29.151  1.00  0.00    -0.343 N 
ATOM      3  H2  UNL     1      11.879  -4.677  28.271  1.00  0.00     0.167 HD
HETATM    4  C2  UNL     1      12.106  -3.928  30.179  1.00  0.00     0.183 A 
HETATM    5  N3  UNL     1      11.648  -3.569  31.387  1.00  0.00    -0.338 N 
ATOM      6  H3  UNL     1      12.227  -3.166  32.124  1.00  0.00     0.168 HD
HETATM    7  C3  UNL     1      10.329  -3.806  31.508  1.00  0.00     0.123 A 
HETATM    8  C4  UNL     1       9.492  -4.340  30.534  1.00  0.00     0.059 A 
HETATM    9  C5  UNL     1       8.173  -4.381  31.098  1.00  0.00     0.007 A 
HETATM   10  C12 UNL     1       8.253  -3.853  32.376  1.00  0.00     0.106 A 
HETATM   11  N4  UNL     1       9.566  -3.560  32.622  1.00  0.00    -0.337 N 
ENDROOT
BRANCH   9  12
HETATM   12  C6  UNL     1       6.924  -4.852  30.528  1.00  0.00    -0.024 A 
HETATM   13  C7  UNL     1       6.841  -6.139  29.986  1.00  0.00     0.012 A 
HETATM   14  C8  UNL     1       5.642  -6.593  29.430  1.00  0.00     0.001 A 
HETATM   15  C9  UNL     1       4.522  -5.765  29.417  1.00  0.00     0.000 A 
HETATM   16  C10 UNL     1       4.596  -4.482  29.960  1.00  0.00     0.001 A 
HETATM   17  C11 UNL     1       5.793  -4.026  30.515  1.00  0.00     0.012 A 
ENDBRANCH   9  12
BRANCH   1  18
HETATM   18  N1  UNL     1       9.413  -5.180  28.214  1.00  0.00    -0.288 NA
HETATM   19  H1  UNL     1       9.953  -5.057  27.366  1.00  0.00     0.125 HD
HETATM   20  H2  UNL     1       8.435  -4.923  28.165  1.00  0.00     0.125 HD
ENDBRANCH   1  18
BRANCH  11  21
HETATM   21  C13 UNL     1      10.080  -2.927  33.852  1.00  0.00     0.096 C 
HETATM   22  C14 UNL     1      10.640  -3.909  34.912  1.00  0.00     0.057 C 
HETATM   23  C15 UNL     1      11.767  -2.882  35.167  1.00  0.00     0.122 C 
HETATM   24  C16 UNL     1      11.531  -2.393  33.720  1.00  0.00     0.057 C 
BRANCH  23  25
HETATM   25  O1  UNL     1      13.063  -3.435  35.448  1.00  0.00    -0.395 OA
HETATM   26  H14 UNL     1      13.676  -2.681  35.393  1.00  0.00     0.210 HD
ENDBRANCH  23  25
ENDBRANCH  11  21
TORSDOF 4
ENDMDL
MODEL 6
REMARK minimizedAffinity -8.04242706
REMARK  4 active torsions:
REMARK  status: ('A' for Active; 'I' for Inactive)
REMARK    1  A    between atoms: N1_1  and  C1_2 
REMARK    2  A    between atoms: C5_10  and  C6_11 
REMARK    3  A    between atoms: N4_18  and  C13_19 
REMARK    4  A    between atoms: C15_21  and  O1_22 
ROOT
HETATM    1  C1  UNL     1       6.038  -4.661  30.179  1.00  0.00     0.093 A 
HETATM    2  N2  UNL     1       5.259  -3.618  30.532  1.00  0.00    -0.343 N 
ATOM      3  H2  UNL     1       4.295  -3.554  30.207  1.00  0.00     0.167 HD
HETATM    4  C2  UNL     1       5.783  -2.665  31.322  1.00  0.00     0.183 A 
HETATM    5  N3  UNL     1       7.020  -2.605  31.838  1.00  0.00    -0.338 N 
ATOM      6  H3  UNL     1       7.354  -1.855  32.443  1.00  0.00     0.168 HD
HETATM    7  C3  UNL     1       7.767  -3.658  31.459  1.00  0.00     0.123 A 
HETATM    8  C4  UNL     1       7.360  -4.712  30.648  1.00  0.00     0.059 A 
HETATM    9  C5  UNL     1       8.475  -5.609  30.543  1.00  0.00     0.007 A 
HETATM   10  C12 UNL     1       9.504  -5.082  31.306  1.00  0.00     0.106 A 
HETATM   11  N4  UNL     1       9.075  -3.884  31.808  1.00  0.00    -0.337 N 
ENDROOT
BRANCH   9  12
HETATM   12  C6  UNL     1       8.609  -6.858  29.815  1.00  0.00    -0.024 A 
HETATM   13  C7  UNL     1       9.855  -7.247  29.312  1.00  0.00     0.012 A 
HETATM   14  C8  UNL     1       9.986  -8.445  28.605  1.00  0.00     0.001 A 
HETATM   15  C9  UNL     1       8.874  -9.260  28.401  1.00  0.00     0.000 A 
HETATM   16  C10 UNL     1       7.629  -8.880  28.903  1.00  0.00     0.001 A 
HETATM   17  C11 UNL     1       7.496  -7.683  29.609  1.00  0.00     0.012 A 
ENDBRANCH   9  12
BRANCH   1  18
HETATM   18  N1  UNL     1       5.449  -5.636  29.387  1.00  0.00    -0.288 NA
HETATM   19  H1  UNL     1       4.440  -5.562  29.418  1.00  0.00     0.125 HD
HETATM   20  H2  UNL     1       5.836  -6.564  29.500  1.00  0.00     0.125 HD
ENDBRANCH   1  18
BRANCH  11  21
HETATM   21  C13 UNL     1       9.848  -3.019  32.721  1.00  0.00     0.096 C 
HETATM   22  C14 UNL     1      11.350  -3.377  32.852  1.00  0.00     0.057 C 
HETATM   23  C15 UNL     1      11.640  -1.858  32.858  1.00  0.00     0.122 C 
HETATM   24  C16 UNL     1      10.319  -1.691  32.073  1.00  0.00     0.057 C 
BRANCH  23  25
HETATM   25  O1  UNL     1      12.839  -1.448  32.181  1.00  0.00    -0.395 OA
HETATM   26  H14 UNL     1      12.772  -0.480  32.114  1.00  0.00     0.210 HD
ENDBRANCH  23  25
ENDBRANCH  11  21
TORSDOF 4
ENDMDL
MODEL 7
REMARK minimizedAffinity -7.90874195
REMARK  4 active torsions:
REMARK  status: ('A' for Active; 'I' for Inactive)
REMARK    1  A    between atoms: N1_1  and  C1_2 
REMARK    2  A    between atoms: C5_10  and  C6_11 
REMARK    3  A    between atoms: N4_18  and  C13_19 
REMARK    4  A    between atoms: C15_21  and  O1_22 
ROOT
HETATM    1  C1  UNL     1       6.406  -3.311  31.183  1.00  0.00     0.093 A 
HETATM    2  N2  UNL     1       5.199  -3.312  30.582  1.00  0.00    -0.343 N 
ATOM      3  H2  UNL     1       4.517  -2.580  30.782  1.00  0.00     0.167 HD
HETATM    4  C2  UNL     1       4.916  -4.298  29.714  1.00  0.00     0.183 A 
HETATM    5  N3  UNL     1       5.699  -5.320  29.338  1.00  0.00    -0.338 N 
ATOM      6  H3  UNL     1       5.425  -6.034  28.662  1.00  0.00     0.168 HD
HETATM    7  C3  UNL     1       6.889  -5.289  29.962  1.00  0.00     0.123 A 
HETATM    8  C4  UNL     1       7.318  -4.336  30.881  1.00  0.00     0.059 A 
HETATM    9  C5  UNL     1       8.656  -4.691  31.254  1.00  0.00     0.007 A 
HETATM   10  C12 UNL     1       8.999  -5.825  30.537  1.00  0.00     0.106 A 
HETATM   11  N4  UNL     1       7.905  -6.198  29.805  1.00  0.00    -0.337 N 
ENDROOT
BRANCH   9  12
HETATM   12  C6  UNL     1       9.572  -4.053  32.182  1.00  0.00    -0.024 A 
HETATM   13  C7  UNL     1      10.225  -2.869  31.823  1.00  0.00     0.012 A 
HETATM   14  C8  UNL     1      11.112  -2.256  32.710  1.00  0.00     0.001 A 
HETATM   15  C9  UNL     1      11.349  -2.822  33.962  1.00  0.00     0.000 A 
HETATM   16  C10 UNL     1      10.698  -4.000  34.329  1.00  0.00     0.001 A 
HETATM   17  C11 UNL     1       9.811  -4.614  33.443  1.00  0.00     0.012 A 
ENDBRANCH   9  12
BRANCH   1  18
HETATM   18  N1  UNL     1       6.669  -2.260  32.050  1.00  0.00    -0.288 NA
HETATM   19  H1  UNL     1       6.022  -1.496  31.894  1.00  0.00     0.125 HD
HETATM   20  H2  UNL     1       7.647  -2.012  32.131  1.00  0.00     0.125 HD
ENDBRANCH   1  18
BRANCH  11  21
HETATM   21  C13 UNL     1       7.861  -7.330  28.858  1.00  0.00     0.096 C 
HETATM   22  C14 UNL     1       6.476  -7.595  28.215  1.00  0.00     0.057 C 
HETATM   23  C15 UNL     1       7.223  -7.881  26.891  1.00  0.00     0.122 C 
HETATM   24  C16 UNL     1       8.348  -6.969  27.430  1.00  0.00     0.057 C 
BRANCH  23  25
HETATM   25  O1  UNL     1       6.564  -7.438  25.694  1.00  0.00    -0.395 OA
HETATM   26  H14 UNL     1       7.234  -7.518  24.993  1.00  0.00     0.210 HD
ENDBRANCH  23  25
ENDBRANCH  11  21
TORSDOF 4
ENDMDL
MODEL 8
REMARK minimizedAffinity -7.6686039
REMARK  4 active torsions:
REMARK  status: ('A' for Active; 'I' for Inactive)
REMARK    1  A    between atoms: N1_1  and  C1_2 
REMARK    2  A    between atoms: C5_10  and  C6_11 
REMARK    3  A    between atoms: N4_18  and  C13_19 
REMARK    4  A    between atoms: C15_21  and  O1_22 
ROOT
HETATM    1  C1  UNL     1       7.958  -2.740  31.872  1.00  0.00     0.093 A 
HETATM    2  N2  UNL     1       8.793  -1.949  32.576  1.00  0.00    -0.343 N 
ATOM      3  H2  UNL     1       8.480  -1.044  32.928  1.00  0.00     0.167 HD
HETATM    4  C2  UNL     1      10.047  -2.379  32.801  1.00  0.00     0.183 A 
HETATM    5  N3  UNL     1      10.606  -3.536  32.416  1.00  0.00    -0.338 N 
ATOM      6  H3  UNL     1      11.565  -3.808  32.631  1.00  0.00     0.168 HD
HETATM    7  C3  UNL     1       9.746  -4.294  31.714  1.00  0.00     0.123 A 
HETATM    8  C4  UNL     1       8.427  -3.978  31.404  1.00  0.00     0.059 A 
HETATM    9  C5  UNL     1       7.895  -5.091  30.671  1.00  0.00     0.007 A 
HETATM   10  C12 UNL     1       8.895  -6.044  30.583  1.00  0.00     0.106 A 
HETATM   11  N4  UNL     1      10.015  -5.526  31.171  1.00  0.00    -0.337 N 
ENDROOT
BRANCH   9  12
HETATM   12  C6  UNL     1       6.577  -5.291  30.097  1.00  0.00    -0.024 A 
HETATM   13  C7  UNL     1       6.441  -5.916  28.853  1.00  0.00     0.012 A 
HETATM   14  C8  UNL     1       5.175  -6.104  28.293  1.00  0.00     0.001 A 
HETATM   15  C9  UNL     1       4.039  -5.672  28.976  1.00  0.00     0.000 A 
HETATM   16  C10 UNL     1       4.166  -5.052  30.219  1.00  0.00     0.001 A 
HETATM   17  C11 UNL     1       5.431  -4.863  30.779  1.00  0.00     0.012 A 
ENDBRANCH   9  12
BRANCH   1  18
HETATM   18  N1  UNL     1       6.666  -2.271  31.687  1.00  0.00    -0.288 NA
HETATM   19  H1  UNL     1       6.456  -1.529  32.343  1.00  0.00     0.125 HD
HETATM   20  H2  UNL     1       5.963  -2.993  31.585  1.00  0.00     0.125 HD
ENDBRANCH   1  18
BRANCH  11  21
HETATM   21  C13 UNL     1      11.296  -6.240  31.340  1.00  0.00     0.096 C 
HETATM   22  C14 UNL     1      11.496  -7.460  30.406  1.00  0.00     0.057 C 
HETATM   23  C15 UNL     1      12.969  -7.015  30.257  1.00  0.00     0.122 C 
HETATM   24  C16 UNL     1      12.481  -5.586  30.583  1.00  0.00     0.057 C 
BRANCH  23  25
HETATM   25  O1  UNL     1      13.551  -7.207  28.957  1.00  0.00    -0.395 OA
HETATM   26  H14 UNL     1      14.389  -6.713  28.980  1.00  0.00     0.210 HD
ENDBRANCH  23  25
ENDBRANCH  11  21
TORSDOF 4
ENDMDL
MODEL 9
REMARK minimizedAffinity -7.65767288
REMARK  4 active torsions:
REMARK  status: ('A' for Active; 'I' for Inactive)
REMARK    1  A    between atoms: N1_1  and  C1_2 
REMARK    2  A    between atoms: C5_10  and  C6_11 
REMARK    3  A    between atoms: N4_18  and  C13_19 
REMARK    4  A    between atoms: C15_21  and  O1_22 
ROOT
HETATM    1  C1  UNL     1       7.281  -7.263  25.988  1.00  0.00     0.093 A 
HETATM    2  N2  UNL     1       8.500  -7.115  25.432  1.00  0.00    -0.343 N 
ATOM      3  H2  UNL     1       8.688  -7.457  24.490  1.00  0.00     0.167 HD
HETATM    4  C2  UNL     1       9.462  -6.507  26.148  1.00  0.00     0.183 A 
HETATM    5  N3  UNL     1       9.375  -5.997  27.386  1.00  0.00    -0.338 N 
ATOM      6  H3  UNL     1      10.145  -5.536  27.871  1.00  0.00     0.168 HD
HETATM    7  C3  UNL     1       8.148  -6.169  27.908  1.00  0.00     0.123 A 
HETATM    8  C4  UNL     1       7.062  -6.778  27.288  1.00  0.00     0.059 A 
HETATM    9  C5  UNL     1       5.964  -6.705  28.208  1.00  0.00     0.007 A 
HETATM   10  C12 UNL     1       6.413  -6.040  29.337  1.00  0.00     0.106 A 
HETATM   11  N4  UNL     1       7.742  -5.771  29.157  1.00  0.00    -0.337 N 
ENDROOT
BRANCH   9  12
HETATM   12  C6  UNL     1       4.602  -7.191  28.083  1.00  0.00    -0.024 A 
HETATM   13  C7  UNL     1       3.528  -6.370  28.445  1.00  0.00     0.012 A 
HETATM   14  C8  UNL     1       2.216  -6.836  28.334  1.00  0.00     0.001 A 
HETATM   15  C9  UNL     1       1.971  -8.122  27.856  1.00  0.00     0.000 A 
HETATM   16  C10 UNL     1       3.036  -8.945  27.489  1.00  0.00     0.001 A 
HETATM   17  C11 UNL     1       4.348  -8.481  27.600  1.00  0.00     0.012 A 
ENDBRANCH   9  12
BRANCH   1  18
HETATM   18  N1  UNL     1       6.310  -7.870  25.205  1.00  0.00    -0.288 NA
HETATM   19  H1  UNL     1       6.580  -7.864  24.229  1.00  0.00     0.125 HD
HETATM   20  H2  UNL     1       5.360  -7.584  25.410  1.00  0.00     0.125 HD
ENDBRANCH   1  18
BRANCH  11  21
HETATM   21  C13 UNL     1       8.594  -5.023  30.103  1.00  0.00     0.096 C 
HETATM   22  C14 UNL     1       7.883  -4.555  31.399  1.00  0.00     0.057 C 
HETATM   23  C15 UNL     1       9.178  -4.926  32.159  1.00  0.00     0.122 C 
HETATM   24  C16 UNL     1       9.457  -5.930  31.018  1.00  0.00     0.057 C 
BRANCH  23  25
HETATM   25  O1  UNL     1       8.993  -5.487  33.469  1.00  0.00    -0.395 OA
HETATM   26  H14 UNL     1       9.867  -5.832  33.721  1.00  0.00     0.210 HD
ENDBRANCH  23  25
ENDBRANCH  11  21
TORSDOF 4
ENDMDL
