MODEL 1
REMARK minimizedAffinity -7.81650162
REMARK  3 active torsions:
REMARK  status: ('A' for Active; 'I' for Inactive)
REMARK    1  A    between atoms: N1_1  and  C1_2 
REMARK    2  A    between atoms: C6_11  and  N4_12 
REMARK    3  A    between atoms: N4_12  and  C7_13 
ROOT
HETATM    1  C1  UNL     1      10.349  34.859  21.640  1.00  0.00     0.006 A 
HETATM    2  C2  UNL     1       9.105  35.452  21.818  1.00  0.00     0.025 A 
HETATM    3  C3  UNL     1       8.363  35.893  20.717  1.00  0.00     0.032 A 
HETATM    4  C4  UNL     1       8.847  35.795  19.421  1.00  0.00     0.046 A 
HETATM    5  N2  UNL     1       8.089  36.247  18.419  1.00  0.00    -0.352 N 
ATOM      6  H2  UNL     1       7.162  36.638  18.583  1.00  0.00     0.166 HD
HETATM    7  C5  UNL     1       8.607  36.159  17.188  1.00  0.00     0.182 A 
HETATM    8  N3  UNL     1       9.798  35.648  16.870  1.00  0.00    -0.342 N 
ATOM      9  H3  UNL     1      10.122  35.611  15.903  1.00  0.00     0.167 HD
HETATM   10  C6  UNL     1      10.550  35.183  17.884  1.00  0.00     0.098 A 
HETATM   11  C17 UNL     1      10.118  35.241  19.223  1.00  0.00     0.031 A 
HETATM   12  C18 UNL     1      10.871  34.805  20.348  1.00  0.00     0.040 A 
ENDROOT
BRANCH  10  13
HETATM   13  N4  UNL     1      11.826  34.615  17.593  1.00  0.00    -0.244 NA
HETATM   14  H6  UNL     1      11.704  34.005  16.791  1.00  0.00     0.135 HD
BRANCH  13  15
HETATM   15  C7  UNL     1      13.020  35.381  17.449  1.00  0.00     0.025 A 
HETATM   16  C8  UNL     1      13.040  36.405  16.486  1.00  0.00     0.025 A 
HETATM   17  C9  UNL     1      14.161  37.215  16.331  1.00  0.00     0.003 A 
HETATM   18  C10 UNL     1      15.276  37.017  17.139  1.00  0.00     0.012 A 
HETATM   19  C11 UNL     1      15.291  36.007  18.112  1.00  0.00    -0.024 A 
HETATM   20  C12 UNL     1      16.429  35.817  18.916  1.00  0.00     0.012 A 
HETATM   21  C16 UNL     1      14.157  35.172  18.281  1.00  0.00    -0.004 A 
HETATM   22  C13 UNL     1      16.469  34.812  19.881  1.00  0.00     0.001 A 
HETATM   23  C14 UNL     1      15.371  33.978  20.052  1.00  0.00     0.001 A 
HETATM   24  C15 UNL     1      14.233  34.155  19.261  1.00  0.00     0.014 A 
ENDBRANCH  13  15
ENDBRANCH  10  13
BRANCH   1  25
HETATM   25  N1  UNL     1      11.146  34.540  22.741  1.00  0.00    -0.303 NA
HETATM   26  H1  UNL     1      11.879  33.864  22.555  1.00  0.00     0.124 HD
HETATM   27  H2  UNL     1      10.627  34.325  23.587  1.00  0.00     0.124 HD
ENDBRANCH   1  25
TORSDOF 3
ENDMDL
MODEL 2
REMARK minimizedAffinity -7.65365744
REMARK  3 active torsions:
REMARK  status: ('A' for Active; 'I' for Inactive)
REMARK    1  A    between atoms: N1_1  and  C1_2 
REMARK    2  A    between atoms: C6_11  and  N4_12 
REMARK    3  A    between atoms: N4_12  and  C7_13 
ROOT
HETATM    1  C1  UNL     1       8.887  35.992  17.997  1.00  0.00     0.006 A 
HETATM    2  C2  UNL     1       7.753  35.625  18.712  1.00  0.00     0.025 A 
HETATM    3  C3  UNL     1       7.761  35.633  20.111  1.00  0.00     0.032 A 
HETATM    4  C4  UNL     1       8.896  35.965  20.835  1.00  0.00     0.046 A 
HETATM    5  N2  UNL     1       8.833  35.941  22.169  1.00  0.00    -0.352 N 
ATOM      6  H2  UNL     1       7.971  35.706  22.661  1.00  0.00     0.166 HD
HETATM    7  C5  UNL     1       9.959  36.239  22.828  1.00  0.00     0.182 A 
HETATM    8  N3  UNL     1      11.128  36.576  22.278  1.00  0.00    -0.342 N 
ATOM      9  H3  UNL     1      11.943  36.796  22.849  1.00  0.00     0.167 HD
HETATM   10  C6  UNL     1      11.178  36.610  20.934  1.00  0.00     0.098 A 
HETATM   11  C17 UNL     1      10.063  36.296  20.135  1.00  0.00     0.031 A 
HETATM   12  C18 UNL     1      10.051  36.274  18.712  1.00  0.00     0.040 A 
ENDROOT
BRANCH  10  13
HETATM   13  N4  UNL     1      12.402  36.977  20.299  1.00  0.00    -0.244 NA
HETATM   14  H6  UNL     1      12.766  37.784  20.797  1.00  0.00     0.135 HD
BRANCH  13  15
HETATM   15  C7  UNL     1      13.456  36.058  20.019  1.00  0.00     0.025 A 
HETATM   16  C8  UNL     1      13.913  35.233  21.062  1.00  0.00     0.025 A 
HETATM   17  C9  UNL     1      14.907  34.286  20.837  1.00  0.00     0.003 A 
HETATM   18  C10 UNL     1      15.456  34.146  19.567  1.00  0.00     0.012 A 
HETATM   19  C11 UNL     1      15.023  34.949  18.501  1.00  0.00    -0.024 A 
HETATM   20  C12 UNL     1      15.593  34.797  17.225  1.00  0.00     0.012 A 
HETATM   21  C16 UNL     1      14.012  35.920  18.714  1.00  0.00    -0.004 A 
HETATM   22  C13 UNL     1      15.185  35.593  16.155  1.00  0.00     0.001 A 
HETATM   23  C14 UNL     1      14.204  36.556  16.349  1.00  0.00     0.001 A 
HETATM   24  C15 UNL     1      13.628  36.718  17.612  1.00  0.00     0.014 A 
ENDBRANCH  13  15
ENDBRANCH  10  13
BRANCH   1  25
HETATM   25  N1  UNL     1       8.924  35.858  16.608  1.00  0.00    -0.303 NA
HETATM   26  H1  UNL     1       9.643  36.406  16.146  1.00  0.00     0.124 HD
HETATM   27  H2  UNL     1       8.020  35.945  16.154  1.00  0.00     0.124 HD
ENDBRANCH   1  25
TORSDOF 3
ENDMDL
MODEL 3
REMARK minimizedAffinity -7.57323027
REMARK  3 active torsions:
REMARK  status: ('A' for Active; 'I' for Inactive)
REMARK    1  A    between atoms: N1_1  and  C1_2 
REMARK    2  A    between atoms: C6_11  and  N4_12 
REMARK    3  A    between atoms: N4_12  and  C7_13 
ROOT
HETATM    1  C1  UNL     1      13.596  36.022  21.193  1.00  0.00     0.006 A 
HETATM    2  C2  UNL     1      14.710  36.697  20.711  1.00  0.00     0.025 A 
HETATM    3  C3  UNL     1      14.829  36.992  19.348  1.00  0.00     0.032 A 
HETATM    4  C4  UNL     1      13.872  36.595  18.427  1.00  0.00     0.046 A 
HETATM    5  N2  UNL     1      14.057  36.901  17.140  1.00  0.00    -0.352 N 
ATOM      6  H2  UNL     1      14.867  37.435  16.828  1.00  0.00     0.166 HD
HETATM    7  C5  UNL     1      13.123  36.472  16.282  1.00  0.00     0.182 A 
HETATM    8  N3  UNL     1      12.022  35.786  16.594  1.00  0.00    -0.342 N 
ATOM      9  H3  UNL     1      11.352  35.498  15.881  1.00  0.00     0.167 HD
HETATM   10  C6  UNL     1      11.838  35.493  17.894  1.00  0.00     0.098 A 
HETATM   11  C17 UNL     1      12.762  35.874  18.886  1.00  0.00     0.031 A 
HETATM   12  C18 UNL     1      12.654  35.568  20.271  1.00  0.00     0.040 A 
ENDROOT
BRANCH  10  13
HETATM   13  N4  UNL     1      10.669  34.772  18.280  1.00  0.00    -0.244 NA
HETATM   14  H6  UNL     1      10.963  34.060  18.941  1.00  0.00     0.135 HD
BRANCH  13  15
HETATM   15  C7  UNL     1       9.468  35.395  18.733  1.00  0.00     0.025 A 
HETATM   16  C8  UNL     1       8.773  36.229  17.840  1.00  0.00     0.025 A 
HETATM   17  C9  UNL     1       7.574  36.827  18.211  1.00  0.00     0.003 A 
HETATM   18  C10 UNL     1       7.048  36.598  19.479  1.00  0.00     0.012 A 
HETATM   19  C11 UNL     1       7.712  35.770  20.396  1.00  0.00    -0.024 A 
HETATM   20  C12 UNL     1       7.169  35.554  21.675  1.00  0.00     0.012 A 
HETATM   21  C16 UNL     1       8.937  35.154  20.033  1.00  0.00    -0.004 A 
HETATM   22  C13 UNL     1       7.819  34.744  22.605  1.00  0.00     0.001 A 
HETATM   23  C14 UNL     1       9.025  34.142  22.270  1.00  0.00     0.001 A 
HETATM   24  C15 UNL     1       9.576  34.347  21.003  1.00  0.00     0.014 A 
ENDBRANCH  13  15
ENDBRANCH  10  13
BRANCH   1  25
HETATM   25  N1  UNL     1      13.538  35.611  22.526  1.00  0.00    -0.303 NA
HETATM   26  H1  UNL     1      12.605  35.399  22.867  1.00  0.00     0.124 HD
HETATM   27  H2  UNL     1      14.060  36.198  23.170  1.00  0.00     0.124 HD
ENDBRANCH   1  25
TORSDOF 3
ENDMDL
MODEL 4
REMARK minimizedAffinity -7.51539183
REMARK  3 active torsions:
REMARK  status: ('A' for Active; 'I' for Inactive)
REMARK    1  A    between atoms: N1_1  and  C1_2 
REMARK    2  A    between atoms: C6_11  and  N4_12 
REMARK    3  A    between atoms: N4_12  and  C7_13 
ROOT
HETATM    1  C1  UNL     1      13.553  36.096  16.388  1.00  0.00     0.006 A 
HETATM    2  C2  UNL     1      14.766  35.420  16.338  1.00  0.00     0.025 A 
HETATM    3  C3  UNL     1      15.430  35.062  17.517  1.00  0.00     0.032 A 
HETATM    4  C4  UNL     1      14.932  35.396  18.767  1.00  0.00     0.046 A 
HETATM    5  N2  UNL     1      15.625  35.031  19.850  1.00  0.00    -0.352 N 
ATOM      6  H2  UNL     1      16.492  34.499  19.777  1.00  0.00     0.166 HD
HETATM    7  C5  UNL     1      15.124  35.399  21.034  1.00  0.00     0.182 A 
HETATM    8  N3  UNL     1      13.992  36.078  21.235  1.00  0.00    -0.342 N 
ATOM      9  H3  UNL     1      13.672  36.318  22.173  1.00  0.00     0.167 HD
HETATM   10  C6  UNL     1      13.295  36.430  20.140  1.00  0.00     0.098 A 
HETATM   11  C17 UNL     1      13.733  36.116  18.839  1.00  0.00     0.031 A 
HETATM   12  C18 UNL     1      13.070  36.486  17.636  1.00  0.00     0.040 A 
ENDROOT
BRANCH  10  13
HETATM   13  N4  UNL     1      12.071  37.146  20.302  1.00  0.00    -0.244 NA
HETATM   14  H6  UNL     1      11.820  37.516  19.390  1.00  0.00     0.135 HD
BRANCH  13  15
HETATM   15  C7  UNL     1      10.918  36.606  20.945  1.00  0.00     0.025 A 
HETATM   16  C8  UNL     1      11.001  36.303  22.315  1.00  0.00     0.025 A 
HETATM   17  C9  UNL     1       9.896  35.817  23.006  1.00  0.00     0.003 A 
HETATM   18  C10 UNL     1       8.689  35.631  22.339  1.00  0.00     0.012 A 
HETATM   19  C11 UNL     1       8.567  35.925  20.973  1.00  0.00    -0.024 A 
HETATM   20  C12 UNL     1       7.341  35.726  20.314  1.00  0.00     0.012 A 
HETATM   21  C16 UNL     1       9.685  36.419  20.254  1.00  0.00    -0.004 A 
HETATM   22  C13 UNL     1       7.202  36.000  18.954  1.00  0.00     0.001 A 
HETATM   23  C14 UNL     1       8.290  36.475  18.233  1.00  0.00     0.001 A 
HETATM   24  C15 UNL     1       9.514  36.679  18.875  1.00  0.00     0.014 A 
ENDBRANCH  13  15
ENDBRANCH  10  13
BRANCH   1  25
HETATM   25  N1  UNL     1      12.957  36.570  15.218  1.00  0.00    -0.303 NA
HETATM   26  H1  UNL     1      11.967  36.779  15.298  1.00  0.00     0.124 HD
HETATM   27  H2  UNL     1      13.171  36.025  14.387  1.00  0.00     0.124 HD
ENDBRANCH   1  25
TORSDOF 3
ENDMDL
MODEL 5
REMARK minimizedAffinity -7.22199106
REMARK  3 active torsions:
REMARK  status: ('A' for Active; 'I' for Inactive)
REMARK    1  A    between atoms: N1_1  and  C1_2 
REMARK    2  A    between atoms: C6_11  and  N4_12 
REMARK    3  A    between atoms: N4_12  and  C7_13 
ROOT
HETATM    1  C1  UNL     1       9.979  35.800  17.898  1.00  0.00     0.006 A 
HETATM    2  C2  UNL     1       8.639  36.144  17.761  1.00  0.00     0.025 A 
HETATM    3  C3  UNL     1       7.780  36.108  18.865  1.00  0.00     0.032 A 
HETATM    4  C4  UNL     1       8.212  35.698  20.116  1.00  0.00     0.046 A 
HETATM    5  N2  UNL     1       7.333  35.678  21.122  1.00  0.00    -0.352 N 
ATOM      6  H2  UNL     1       6.366  35.977  20.994  1.00  0.00     0.166 HD
HETATM    7  C5  UNL     1       7.785  35.247  22.305  1.00  0.00     0.182 A 
HETATM    8  N3  UNL     1       9.031  34.854  22.577  1.00  0.00    -0.342 N 
ATOM      9  H3  UNL     1       9.302  34.543  23.509  1.00  0.00     0.167 HD
HETATM   10  C6  UNL     1       9.913  34.889  21.561  1.00  0.00     0.098 A 
HETATM   11  C17 UNL     1       9.548  35.305  20.266  1.00  0.00     0.031 A 
HETATM   12  C18 UNL     1      10.413  35.332  19.138  1.00  0.00     0.040 A 
ENDROOT
BRANCH  10  13
HETATM   13  N4  UNL     1      11.261  34.491  21.804  1.00  0.00    -0.244 NA
HETATM   14  H6  UNL     1      11.509  33.821  21.082  1.00  0.00     0.135 HD
BRANCH  13  15
HETATM   15  C7  UNL     1      12.333  35.410  22.008  1.00  0.00     0.025 A 
HETATM   16  C8  UNL     1      12.111  36.516  22.846  1.00  0.00     0.025 A 
HETATM   17  C9  UNL     1      13.132  37.420  23.117  1.00  0.00     0.003 A 
HETATM   18  C10 UNL     1      14.392  37.231  22.560  1.00  0.00     0.012 A 
HETATM   19  C11 UNL     1      14.653  36.137  21.720  1.00  0.00    -0.024 A 
HETATM   20  C12 UNL     1      15.931  35.964  21.161  1.00  0.00     0.012 A 
HETATM   21  C16 UNL     1      13.621  35.207  21.433  1.00  0.00    -0.004 A 
HETATM   22  C13 UNL     1      16.206  34.890  20.316  1.00  0.00     0.001 A 
HETATM   23  C14 UNL     1      15.205  33.976  20.015  1.00  0.00     0.001 A 
HETATM   24  C15 UNL     1      13.931  34.135  20.564  1.00  0.00     0.014 A 
ENDBRANCH  13  15
ENDBRANCH  10  13
BRANCH   1  25
HETATM   25  N1  UNL     1      10.805  35.707  16.776  1.00  0.00    -0.303 NA
HETATM   26  H1  UNL     1      11.799  35.745  16.975  1.00  0.00     0.124 HD
HETATM   27  H2  UNL     1      10.540  36.316  16.008  1.00  0.00     0.124 HD
ENDBRANCH   1  25
TORSDOF 3
ENDMDL
MODEL 6
REMARK minimizedAffinity -7.0998764
REMARK  3 active torsions:
REMARK  status: ('A' for Active; 'I' for Inactive)
REMARK    1  A    between atoms: N1_1  and  C1_2 
REMARK    2  A    between atoms: C6_11  and  N4_12 
REMARK    3  A    between atoms: N4_12  and  C7_13 
ROOT
HETATM    1  C1  UNL     1       0.712  67.494  -0.711  1.00  0.00     0.006 A 
HETATM    2  C2  UNL     1      -0.478  66.857  -0.381  1.00  0.00     0.025 A 
HETATM    3  C3  UNL     1      -0.730  65.551  -0.817  1.00  0.00     0.032 A 
HETATM    4  C4  UNL     1       0.167  64.860  -1.617  1.00  0.00     0.046 A 
HETATM    5  N2  UNL     1      -0.145  63.620  -2.004  1.00  0.00    -0.352 N 
ATOM      6  H2  UNL     1      -1.010  63.169  -1.709  1.00  0.00     0.166 HD
HETATM    7  C5  UNL     1       0.735  63.002  -2.800  1.00  0.00     0.182 A 
HETATM    8  N3  UNL     1       1.898  63.499  -3.225  1.00  0.00    -0.342 N 
ATOM      9  H3  UNL     1       2.521  62.961  -3.828  1.00  0.00     0.167 HD
HETATM   10  C6  UNL     1       2.210  64.743  -2.820  1.00  0.00     0.098 A 
HETATM   11  C17 UNL     1       1.353  65.500  -1.998  1.00  0.00     0.031 A 
HETATM   12  C18 UNL     1       1.598  66.831  -1.561  1.00  0.00     0.040 A 
ENDROOT
BRANCH  10  13
HETATM   13  N4  UNL     1       3.450  65.315  -3.236  1.00  0.00    -0.244 NA
HETATM   14  H6  UNL     1       4.185  64.684  -2.932  1.00  0.00     0.135 HD
BRANCH  13  15
HETATM   15  C7  UNL     1       3.707  65.763  -4.565  1.00  0.00     0.025 A 
HETATM   16  C8  UNL     1       2.794  66.654  -5.155  1.00  0.00     0.025 A 
HETATM   17  C9  UNL     1       3.017  67.160  -6.432  1.00  0.00     0.003 A 
HETATM   18  C10 UNL     1       4.158  66.788  -7.136  1.00  0.00     0.012 A 
HETATM   19  C11 UNL     1       5.093  65.903  -6.578  1.00  0.00    -0.024 A 
HETATM   20  C12 UNL     1       6.237  65.533  -7.306  1.00  0.00     0.012 A 
HETATM   21  C16 UNL     1       4.879  65.377  -5.279  1.00  0.00    -0.004 A 
HETATM   22  C13 UNL     1       7.172  64.646  -6.775  1.00  0.00     0.001 A 
HETATM   23  C14 UNL     1       6.973  64.113  -5.508  1.00  0.00     0.001 A 
HETATM   24  C15 UNL     1       5.841  64.472  -4.773  1.00  0.00     0.014 A 
ENDBRANCH  13  15
ENDBRANCH  10  13
BRANCH   1  25
HETATM   25  N1  UNL     1       0.909  68.838  -0.392  1.00  0.00    -0.303 NA
HETATM   26  H1  UNL     1       1.878  69.140  -0.394  1.00  0.00     0.124 HD
HETATM   27  H2  UNL     1       0.409  69.151   0.435  1.00  0.00     0.124 HD
ENDBRANCH   1  25
TORSDOF 3
ENDMDL
MODEL 7
REMARK minimizedAffinity -7.09519577
REMARK  3 active torsions:
REMARK  status: ('A' for Active; 'I' for Inactive)
REMARK    1  A    between atoms: N1_1  and  C1_2 
REMARK    2  A    between atoms: C6_11  and  N4_12 
REMARK    3  A    between atoms: N4_12  and  C7_13 
ROOT
HETATM    1  C1  UNL     1      13.352  34.299  18.396  1.00  0.00     0.006 A 
HETATM    2  C2  UNL     1      14.568  33.819  18.868  1.00  0.00     0.025 A 
HETATM    3  C3  UNL     1      15.091  34.279  20.082  1.00  0.00     0.032 A 
HETATM    4  C4  UNL     1      14.447  35.247  20.837  1.00  0.00     0.046 A 
HETATM    5  N2  UNL     1      15.010  35.646  21.981  1.00  0.00    -0.352 N 
ATOM      6  H2  UNL     1      15.884  35.242  22.317  1.00  0.00     0.166 HD
HETATM    7  C5  UNL     1      14.370  36.604  22.662  1.00  0.00     0.182 A 
HETATM    8  N3  UNL     1      13.217  37.180  22.316  1.00  0.00    -0.342 N 
ATOM      9  H3  UNL     1      12.787  37.902  22.894  1.00  0.00     0.167 HD
HETATM   10  C6  UNL     1      12.651  36.763  21.169  1.00  0.00     0.098 A 
HETATM   11  C17 UNL     1      13.242  35.776  20.358  1.00  0.00     0.031 A 
HETATM   12  C18 UNL     1      12.722  35.313  19.117  1.00  0.00     0.040 A 
ENDROOT
BRANCH  10  13
HETATM   13  N4  UNL     1      11.411  37.340  20.763  1.00  0.00    -0.244 NA
HETATM   14  H6  UNL     1      11.597  37.888  19.929  1.00  0.00     0.135 HD
BRANCH  13  15
HETATM   15  C7  UNL     1      10.206  36.593  20.600  1.00  0.00     0.025 A 
HETATM   16  C8  UNL     1       9.549  36.654  19.359  1.00  0.00     0.025 A 
HETATM   17  C9  UNL     1       8.396  35.912  19.127  1.00  0.00     0.003 A 
HETATM   18  C10 UNL     1       7.884  35.094  20.129  1.00  0.00     0.012 A 
HETATM   19  C11 UNL     1       8.514  35.006  21.380  1.00  0.00    -0.024 A 
HETATM   20  C12 UNL     1       7.980  34.179  22.383  1.00  0.00     0.012 A 
HETATM   21  C16 UNL     1       9.690  35.758  21.632  1.00  0.00    -0.004 A 
HETATM   22  C13 UNL     1       8.585  34.086  23.636  1.00  0.00     0.001 A 
HETATM   23  C14 UNL     1       9.730  34.824  23.904  1.00  0.00     0.001 A 
HETATM   24  C15 UNL     1      10.273  35.649  22.916  1.00  0.00     0.014 A 
ENDBRANCH  13  15
ENDBRANCH  10  13
BRANCH   1  25
HETATM   25  N1  UNL     1      12.895  33.943  17.127  1.00  0.00    -0.303 NA
HETATM   26  H1  UNL     1      11.901  34.083  16.977  1.00  0.00     0.124 HD
HETATM   27  H2  UNL     1      13.209  33.032  16.807  1.00  0.00     0.124 HD
ENDBRANCH   1  25
TORSDOF 3
ENDMDL
MODEL 8
REMARK minimizedAffinity -7.06302547
REMARK  3 active torsions:
REMARK  status: ('A' for Active; 'I' for Inactive)
REMARK    1  A    between atoms: N1_1  and  C1_2 
REMARK    2  A    between atoms: C6_11  and  N4_12 
REMARK    3  A    between atoms: N4_12  and  C7_13 
ROOT
HETATM    1  C1  UNL     1      16.500  47.398   4.069  1.00  0.00     0.006 A 
HETATM    2  C2  UNL     1      17.406  46.430   4.485  1.00  0.00     0.025 A 
HETATM    3  C3  UNL     1      18.315  46.703   5.513  1.00  0.00     0.032 A 
HETATM    4  C4  UNL     1      18.377  47.945   6.127  1.00  0.00     0.046 A 
HETATM    5  N2  UNL     1      19.277  48.137   7.094  1.00  0.00    -0.352 N 
ATOM      6  H2  UNL     1      19.899  47.390   7.403  1.00  0.00     0.166 HD
HETATM    7  C5  UNL     1      19.322  49.359   7.638  1.00  0.00     0.182 A 
HETATM    8  N3  UNL     1      18.541  50.393   7.317  1.00  0.00    -0.342 N 
ATOM      9  H3  UNL     1      18.632  51.296   7.782  1.00  0.00     0.167 HD
HETATM   10  C6  UNL     1      17.629  50.187   6.350  1.00  0.00     0.098 A 
HETATM   11  C17 UNL     1      17.502  48.948   5.692  1.00  0.00     0.031 A 
HETATM   12  C18 UNL     1      16.589  48.668   4.638  1.00  0.00     0.040 A 
ENDROOT
BRANCH  10  13
HETATM   13  N4  UNL     1      16.761  51.258   5.981  1.00  0.00    -0.244 NA
HETATM   14  H6  UNL     1      16.187  51.469   6.791  1.00  0.00     0.135 HD
BRANCH  13  15
HETATM   15  C7  UNL     1      17.210  52.466   5.370  1.00  0.00     0.025 A 
HETATM   16  C8  UNL     1      18.581  52.600   5.091  1.00  0.00     0.025 A 
HETATM   17  C9  UNL     1      19.071  53.736   4.456  1.00  0.00     0.003 A 
HETATM   18  C10 UNL     1      18.197  54.754   4.085  1.00  0.00     0.012 A 
HETATM   19  C11 UNL     1      16.822  54.654   4.345  1.00  0.00    -0.024 A 
HETATM   20  C12 UNL     1      15.955  55.695   3.969  1.00  0.00     0.012 A 
HETATM   21  C16 UNL     1      16.308  53.502   4.994  1.00  0.00    -0.004 A 
HETATM   22  C13 UNL     1      14.587  55.620   4.228  1.00  0.00     0.001 A 
HETATM   23  C14 UNL     1      14.068  54.504   4.872  1.00  0.00     0.001 A 
HETATM   24  C15 UNL     1      14.918  53.462   5.251  1.00  0.00     0.014 A 
ENDBRANCH  13  15
ENDBRANCH  10  13
BRANCH   1  25
HETATM   25  N1  UNL     1      15.685  47.175   2.958  1.00  0.00    -0.303 NA
HETATM   26  H1  UNL     1      14.871  47.778   2.898  1.00  0.00     0.124 HD
HETATM   27  H2  UNL     1      15.456  46.199   2.794  1.00  0.00     0.124 HD
ENDBRANCH   1  25
TORSDOF 3
ENDMDL
MODEL 9
REMARK minimizedAffinity -7.03060484
REMARK  3 active torsions:
REMARK  status: ('A' for Active; 'I' for Inactive)
REMARK    1  A    between atoms: N1_1  and  C1_2 
REMARK    2  A    between atoms: C6_11  and  N4_12 
REMARK    3  A    between atoms: N4_12  and  C7_13 
ROOT
HETATM    1  C1  UNL     1       0.103  63.062  -2.790  1.00  0.00     0.006 A 
HETATM    2  C2  UNL     1      -1.058  63.650  -2.304  1.00  0.00     0.025 A 
HETATM    3  C3  UNL     1      -1.150  65.041  -2.174  1.00  0.00     0.032 A 
HETATM    4  C4  UNL     1      -0.089  65.877  -2.484  1.00  0.00     0.046 A 
HETATM    5  N2  UNL     1      -0.244  67.194  -2.325  1.00  0.00    -0.352 N 
ATOM      6  H2  UNL     1      -1.126  67.594  -2.004  1.00  0.00     0.166 HD
HETATM    7  C5  UNL     1       0.815  67.961  -2.608  1.00  0.00     0.182 A 
HETATM    8  N3  UNL     1       2.000  67.536  -3.049  1.00  0.00    -0.342 N 
ATOM      9  H3  UNL     1       2.760  68.186  -3.249  1.00  0.00     0.167 HD
HETATM   10  C6  UNL     1       2.144  66.209  -3.218  1.00  0.00     0.098 A 
HETATM   11  C17 UNL     1       1.106  65.301  -2.934  1.00  0.00     0.031 A 
HETATM   12  C18 UNL     1       1.196  63.887  -3.053  1.00  0.00     0.040 A 
ENDROOT
BRANCH  10  13
HETATM   13  N4  UNL     1       3.389  65.706  -3.702  1.00  0.00    -0.244 NA
HETATM   14  H6  UNL     1       3.425  64.721  -3.460  1.00  0.00     0.135 HD
BRANCH  13  15
HETATM   15  C7  UNL     1       3.858  65.902  -5.034  1.00  0.00     0.025 A 
HETATM   16  C8  UNL     1       3.112  66.735  -5.886  1.00  0.00     0.025 A 
HETATM   17  C9  UNL     1       3.545  66.998  -7.182  1.00  0.00     0.003 A 
HETATM   18  C10 UNL     1       4.731  66.437  -7.644  1.00  0.00     0.012 A 
HETATM   19  C11 UNL     1       5.503  65.603  -6.822  1.00  0.00    -0.024 A 
HETATM   20  C12 UNL     1       6.696  65.040  -7.307  1.00  0.00     0.012 A 
HETATM   21  C16 UNL     1       5.074  65.323  -5.499  1.00  0.00    -0.004 A 
HETATM   22  C13 UNL     1       7.471  64.199  -6.510  1.00  0.00     0.001 A 
HETATM   23  C14 UNL     1       7.061  63.906  -5.216  1.00  0.00     0.001 A 
HETATM   24  C15 UNL     1       5.878  64.459  -4.720  1.00  0.00     0.014 A 
ENDBRANCH  13  15
ENDBRANCH  10  13
BRANCH   1  25
HETATM   25  N1  UNL     1       0.245  61.673  -2.796  1.00  0.00    -0.303 NA
HETATM   26  H1  UNL     1       0.965  61.321  -3.418  1.00  0.00     0.124 HD
HETATM   27  H2  UNL     1      -0.628  61.162  -2.886  1.00  0.00     0.124 HD
ENDBRANCH   1  25
TORSDOF 3
ENDMDL
