MODEL 1
REMARK minimizedAffinity -7.47964048
REMARK  5 active torsions:
REMARK  status: ('A' for Active; 'I' for Inactive)
REMARK    1  A    between atoms: O1_1  and  C1_2 
REMARK    2  A    between atoms: C1_2  and  C2_3 
REMARK    3  A    between atoms: C5_6  and  C6_7 
REMARK    4  A    between atoms: C9_10  and  N1_11 
REMARK    5  A    between atoms: N1_11  and  C10_12 
ROOT
HETATM    1  C6  UNL     1      13.554  59.241   4.475  1.00  0.00     0.018 A 
HETATM    2  C7  UNL     1      12.782  60.000   5.337  1.00  0.00     0.038 A 
HETATM    3  C8  UNL     1      12.589  61.354   4.891  1.00  0.00     0.043 A 
HETATM    4  C9  UNL     1      11.898  62.465   5.431  1.00  0.00     0.119 A 
HETATM    5  N2  UNL     1      11.923  63.621   4.726  1.00  0.00    -0.338 N 
ATOM      6  H2  UNL     1      11.438  64.447   5.076  1.00  0.00     0.168 HD
HETATM    7  C16 UNL     1      12.589  63.674   3.563  1.00  0.00     0.182 A 
HETATM    8  N3  UNL     1      13.269  62.693   2.970  1.00  0.00    -0.346 N 
ATOM      9  H3  UNL     1      13.758  62.795   2.082  1.00  0.00     0.167 HD
HETATM   10  C17 UNL     1      13.233  61.554   3.681  1.00  0.00     0.089 A 
HETATM   11  S1  UNL     1      14.033  60.164   3.114  1.00  0.00    -0.071 SA
ENDROOT
BRANCH   1  12
HETATM   12  C5  UNL     1      13.942  57.829   4.597  1.00  0.00    -0.019 A 
HETATM   13  C4  UNL     1      14.892  57.406   5.537  1.00  0.00     0.013 A 
HETATM   14  C3  UNL     1      15.237  56.054   5.647  1.00  0.00     0.010 A 
HETATM   15  C2  UNL     1      14.642  55.091   4.820  1.00  0.00    -0.035 A 
HETATM   16  C19 UNL     1      13.682  55.512   3.892  1.00  0.00     0.010 A 
HETATM   17  C18 UNL     1      13.339  56.864   3.780  1.00  0.00     0.013 A 
BRANCH  15  18
HETATM   18  C1  UNL     1      15.022  53.641   4.984  1.00  0.00     0.202 C 
BRANCH  18  19
HETATM   19  O1  UNL     1      14.086  52.935   5.787  1.00  0.00    -0.396 OA
HETATM   20  H1  UNL     1      14.382  52.010   5.810  1.00  0.00     0.209 HD
ENDBRANCH  18  19
ENDBRANCH  15  18
ENDBRANCH   1  12
BRANCH   4  21
HETATM   21  N1  UNL     1      11.219  62.364   6.656  1.00  0.00    -0.342 N 
HETATM   22  H7  UNL     1      10.571  63.121   6.817  1.00  0.00     0.167 HD
BRANCH  21  23
HETATM   23  C10 UNL     1      11.261  61.424   7.701  1.00  0.00     0.033 A 
HETATM   24  C11 UNL     1      10.481  60.265   7.749  1.00  0.00     0.029 A 
HETATM   25  C12 UNL     1      10.570  59.373   8.825  1.00  0.00     0.002 A 
HETATM   26  C13 UNL     1      11.445  59.627   9.876  1.00  0.00     0.000 A 
HETATM   27  C14 UNL     1      12.230  60.774   9.852  1.00  0.00     0.002 A 
HETATM   28  C15 UNL     1      12.137  61.661   8.776  1.00  0.00     0.029 A 
ENDBRANCH  21  23
ENDBRANCH   4  21
TORSDOF 5
ENDMDL
MODEL 2
REMARK minimizedAffinity -7.21597672
REMARK  5 active torsions:
REMARK  status: ('A' for Active; 'I' for Inactive)
REMARK    1  A    between atoms: O1_1  and  C1_2 
REMARK    2  A    between atoms: C1_2  and  C2_3 
REMARK    3  A    between atoms: C5_6  and  C6_7 
REMARK    4  A    between atoms: C9_10  and  N1_11 
REMARK    5  A    between atoms: N1_11  and  C10_12 
ROOT
HETATM    1  C6  UNL     1      12.192  35.394  17.953  1.00  0.00     0.018 A 
HETATM    2  C7  UNL     1      12.868  36.191  17.046  1.00  0.00     0.038 A 
HETATM    3  C8  UNL     1      14.252  35.832  16.888  1.00  0.00     0.043 A 
HETATM    4  C9  UNL     1      15.306  36.354  16.100  1.00  0.00     0.119 A 
HETATM    5  N2  UNL     1      16.517  35.754  16.199  1.00  0.00    -0.338 N 
ATOM      6  H2  UNL     1      17.305  36.095  15.648  1.00  0.00     0.168 HD
HETATM    7  C16 UNL     1      16.674  34.709  17.024  1.00  0.00     0.182 A 
HETATM    8  N3  UNL     1      15.753  34.145  17.805  1.00  0.00    -0.346 N 
ATOM      9  H3  UNL     1      15.935  33.348  18.415  1.00  0.00     0.167 HD
HETATM   10  C17 UNL     1      14.560  34.749  17.695  1.00  0.00     0.089 A 
HETATM   11  S1  UNL     1      13.231  34.195  18.601  1.00  0.00    -0.071 SA
ENDROOT
BRANCH   1  12
HETATM   12  C5  UNL     1      10.780  35.457  18.352  1.00  0.00    -0.019 A 
HETATM   13  C4  UNL     1      10.341  34.953  19.584  1.00  0.00     0.013 A 
HETATM   14  C3  UNL     1       8.994  35.037  19.953  1.00  0.00     0.010 A 
HETATM   15  C2  UNL     1       8.050  35.624  19.098  1.00  0.00    -0.035 A 
HETATM   16  C19 UNL     1       8.491  36.140  17.874  1.00  0.00     0.010 A 
HETATM   17  C18 UNL     1       9.838  36.055  17.505  1.00  0.00     0.013 A 
BRANCH  15  18
HETATM   18  C1  UNL     1       6.611  35.716  19.540  1.00  0.00     0.202 C 
BRANCH  18  19
HETATM   19  O1  UNL     1       5.810  34.698  18.955  1.00  0.00    -0.396 OA
HETATM   20  H1  UNL     1       4.916  34.805  19.319  1.00  0.00     0.209 HD
ENDBRANCH  18  19
ENDBRANCH  15  18
ENDBRANCH   1  12
BRANCH   4  21
HETATM   21  N1  UNL     1      15.096  37.453  15.253  1.00  0.00    -0.342 N 
HETATM   22  H7  UNL     1      14.503  37.242  14.463  1.00  0.00     0.167 HD
BRANCH  21  23
HETATM   23  C10 UNL     1      15.547  38.785  15.281  1.00  0.00     0.033 A 
HETATM   24  C11 UNL     1      15.407  39.639  16.379  1.00  0.00     0.029 A 
HETATM   25  C12 UNL     1      15.875  40.959  16.337  1.00  0.00     0.002 A 
HETATM   26  C13 UNL     1      16.493  41.448  15.191  1.00  0.00     0.000 A 
HETATM   27  C14 UNL     1      16.642  40.618  14.085  1.00  0.00     0.002 A 
HETATM   28  C15 UNL     1      16.173  39.302  14.133  1.00  0.00     0.029 A 
ENDBRANCH  21  23
ENDBRANCH   4  21
TORSDOF 5
ENDMDL
MODEL 3
REMARK minimizedAffinity -7.08143616
REMARK  5 active torsions:
REMARK  status: ('A' for Active; 'I' for Inactive)
REMARK    1  A    between atoms: O1_1  and  C1_2 
REMARK    2  A    between atoms: C1_2  and  C2_3 
REMARK    3  A    between atoms: C5_6  and  C6_7 
REMARK    4  A    between atoms: C9_10  and  N1_11 
REMARK    5  A    between atoms: N1_11  and  C10_12 
ROOT
HETATM    1  C6  UNL     1      15.525  37.793  16.116  1.00  0.00     0.018 A 
HETATM    2  C7  UNL     1      14.261  37.251  16.262  1.00  0.00     0.038 A 
HETATM    3  C8  UNL     1      14.249  36.012  16.992  1.00  0.00     0.043 A 
HETATM    4  C9  UNL     1      13.219  35.117  17.370  1.00  0.00     0.119 A 
HETATM    5  N2  UNL     1      13.574  34.016  18.074  1.00  0.00    -0.338 N 
ATOM      6  H2  UNL     1      12.865  33.345  18.369  1.00  0.00     0.168 HD
HETATM    7  C16 UNL     1      14.863  33.813  18.383  1.00  0.00     0.182 A 
HETATM    8  N3  UNL     1      15.903  34.588  18.077  1.00  0.00    -0.346 N 
ATOM      9  H3  UNL     1      16.866  34.379  18.340  1.00  0.00     0.167 HD
HETATM   10  C17 UNL     1      15.535  35.675  17.380  1.00  0.00     0.089 A 
HETATM   11  S1  UNL     1      16.701  36.809  16.881  1.00  0.00    -0.071 SA
ENDROOT
BRANCH   1  12
HETATM   12  C5  UNL     1      15.914  39.043  15.449  1.00  0.00    -0.019 A 
HETATM   13  C4  UNL     1      15.887  40.274  16.120  1.00  0.00     0.013 A 
HETATM   14  C3  UNL     1      16.276  41.451  15.471  1.00  0.00     0.010 A 
HETATM   15  C2  UNL     1      16.699  41.429  14.134  1.00  0.00    -0.035 A 
HETATM   16  C19 UNL     1      16.740  40.198  13.470  1.00  0.00     0.010 A 
HETATM   17  C18 UNL     1      16.350  39.020  14.118  1.00  0.00     0.013 A 
BRANCH  15  18
HETATM   18  C1  UNL     1      17.132  42.715  13.476  1.00  0.00     0.202 C 
BRANCH  18  19
HETATM   19  O1  UNL     1      18.442  43.098  13.871  1.00  0.00    -0.396 OA
HETATM   20  H1  UNL     1      18.656  43.906  13.377  1.00  0.00     0.209 HD
ENDBRANCH  18  19
ENDBRANCH  15  18
ENDBRANCH   1  12
BRANCH   4  21
HETATM   21  N1  UNL     1      11.883  35.369  17.019  1.00  0.00    -0.342 N 
HETATM   22  H7  UNL     1      11.737  35.440  16.023  1.00  0.00     0.167 HD
BRANCH  21  23
HETATM   23  C10 UNL     1      10.710  35.544  17.776  1.00  0.00     0.033 A 
HETATM   24  C11 UNL     1       9.530  36.103  17.278  1.00  0.00     0.029 A 
HETATM   25  C12 UNL     1       8.398  36.253  18.089  1.00  0.00     0.002 A 
HETATM   26  C13 UNL     1       8.429  35.846  19.419  1.00  0.00     0.000 A 
HETATM   27  C14 UNL     1       9.592  35.289  19.938  1.00  0.00     0.002 A 
HETATM   28  C15 UNL     1      10.719  35.141  19.123  1.00  0.00     0.029 A 
ENDBRANCH  21  23
ENDBRANCH   4  21
TORSDOF 5
ENDMDL
MODEL 4
REMARK minimizedAffinity -7.07205963
REMARK  5 active torsions:
REMARK  status: ('A' for Active; 'I' for Inactive)
REMARK    1  A    between atoms: O1_1  and  C1_2 
REMARK    2  A    between atoms: C1_2  and  C2_3 
REMARK    3  A    between atoms: C5_6  and  C6_7 
REMARK    4  A    between atoms: C9_10  and  N1_11 
REMARK    5  A    between atoms: N1_11  and  C10_12 
ROOT
HETATM    1  C6  UNL     1      13.333  35.082  17.899  1.00  0.00     0.018 A 
HETATM    2  C7  UNL     1      13.941  35.466  16.717  1.00  0.00     0.038 A 
HETATM    3  C8  UNL     1      15.351  35.183  16.680  1.00  0.00     0.043 A 
HETATM    4  C9  UNL     1      16.360  35.399  15.710  1.00  0.00     0.119 A 
HETATM    5  N2  UNL     1      17.617  34.997  16.015  1.00  0.00    -0.338 N 
ATOM      6  H2  UNL     1      18.375  35.131  15.345  1.00  0.00     0.168 HD
HETATM    7  C16 UNL     1      17.860  34.421  17.201  1.00  0.00     0.182 A 
HETATM    8  N3  UNL     1      16.988  34.174  18.178  1.00  0.00    -0.346 N 
ATOM      9  H3  UNL     1      17.235  33.731  19.063  1.00  0.00     0.167 HD
HETATM   10  C17 UNL     1      15.747  34.577  17.861  1.00  0.00     0.089 A 
HETATM   11  S1  UNL     1      14.468  34.361  18.961  1.00  0.00    -0.071 SA
ENDROOT
BRANCH   1  12
HETATM   12  C5  UNL     1      11.919  35.198  18.281  1.00  0.00    -0.019 A 
HETATM   13  C4  UNL     1      10.987  35.848  17.459  1.00  0.00     0.013 A 
HETATM   14  C3  UNL     1       9.641  35.935  17.834  1.00  0.00     0.010 A 
HETATM   15  C2  UNL     1       9.193  35.378  19.040  1.00  0.00    -0.035 A 
HETATM   16  C19 UNL     1      10.122  34.717  19.853  1.00  0.00     0.010 A 
HETATM   17  C18 UNL     1      11.468  34.631  19.479  1.00  0.00     0.013 A 
BRANCH  15  18
HETATM   18  C1  UNL     1       7.732  35.473  19.398  1.00  0.00     0.202 C 
BRANCH  18  19
HETATM   19  O1  UNL     1       7.207  34.221  19.818  1.00  0.00    -0.396 OA
HETATM   20  H1  UNL     1       6.280  34.377  20.065  1.00  0.00     0.209 HD
ENDBRANCH  18  19
ENDBRANCH  15  18
ENDBRANCH   1  12
BRANCH   4  21
HETATM   21  N1  UNL     1      16.059  36.012  14.483  1.00  0.00    -0.342 N 
HETATM   22  H7  UNL     1      15.136  36.420  14.456  1.00  0.00     0.167 HD
BRANCH  21  23
HETATM   23  C10 UNL     1      16.781  36.166  13.287  1.00  0.00     0.033 A 
HETATM   24  C11 UNL     1      17.447  37.338  12.916  1.00  0.00     0.029 A 
HETATM   25  C12 UNL     1      18.145  37.425  11.704  1.00  0.00     0.002 A 
HETATM   26  C13 UNL     1      18.187  36.337  10.839  1.00  0.00     0.000 A 
HETATM   27  C14 UNL     1      17.530  35.161  11.185  1.00  0.00     0.002 A 
HETATM   28  C15 UNL     1      16.836  35.080  12.395  1.00  0.00     0.029 A 
ENDBRANCH  21  23
ENDBRANCH   4  21
TORSDOF 5
ENDMDL
MODEL 5
REMARK minimizedAffinity -7.03711843
REMARK  5 active torsions:
REMARK  status: ('A' for Active; 'I' for Inactive)
REMARK    1  A    between atoms: O1_1  and  C1_2 
REMARK    2  A    between atoms: C1_2  and  C2_3 
REMARK    3  A    between atoms: C5_6  and  C6_7 
REMARK    4  A    between atoms: C9_10  and  N1_11 
REMARK    5  A    between atoms: N1_11  and  C10_12 
ROOT
HETATM    1  C6  UNL     1      16.836  52.924   5.348  1.00  0.00     0.018 A 
HETATM    2  C7  UNL     1      16.502  51.583   5.414  1.00  0.00     0.038 A 
HETATM    3  C8  UNL     1      17.511  50.772   6.041  1.00  0.00     0.043 A 
HETATM    4  C9  UNL     1      17.610  49.386   6.316  1.00  0.00     0.119 A 
HETATM    5  N2  UNL     1      18.733  48.951   6.938  1.00  0.00    -0.338 N 
ATOM      6  H2  UNL     1      18.846  47.962   7.157  1.00  0.00     0.168 HD
HETATM    7  C16 UNL     1      19.693  49.828   7.264  1.00  0.00     0.182 A 
HETATM    8  N3  UNL     1      19.699  51.144   7.050  1.00  0.00    -0.346 N 
ATOM      9  H3  UNL     1      20.463  51.762   7.321  1.00  0.00     0.167 HD
HETATM   10  C17 UNL     1      18.580  51.559   6.435  1.00  0.00     0.089 A 
HETATM   11  S1  UNL     1      18.368  53.206   6.062  1.00  0.00    -0.071 SA
ENDROOT
BRANCH   1  12
HETATM   12  C5  UNL     1      16.051  54.037   4.796  1.00  0.00    -0.019 A 
HETATM   13  C4  UNL     1      16.653  55.072   4.068  1.00  0.00     0.013 A 
HETATM   14  C3  UNL     1      15.886  56.114   3.537  1.00  0.00     0.010 A 
HETATM   15  C2  UNL     1      14.496  56.151   3.723  1.00  0.00    -0.035 A 
HETATM   16  C19 UNL     1      13.893  55.109   4.437  1.00  0.00     0.010 A 
HETATM   17  C18 UNL     1      14.661  54.067   4.969  1.00  0.00     0.013 A 
BRANCH  15  18
HETATM   18  C1  UNL     1      13.701  57.279   3.116  1.00  0.00     0.202 C 
BRANCH  18  19
HETATM   19  O1  UNL     1      12.740  57.799   4.025  1.00  0.00    -0.396 OA
HETATM   20  H1  UNL     1      12.303  58.539   3.573  1.00  0.00     0.209 HD
ENDBRANCH  18  19
ENDBRANCH  15  18
ENDBRANCH   1  12
BRANCH   4  21
HETATM   21  N1  UNL     1      16.581  48.505   5.952  1.00  0.00    -0.342 N 
HETATM   22  H7  UNL     1      15.711  48.685   6.432  1.00  0.00     0.167 HD
BRANCH  21  23
HETATM   23  C10 UNL     1      16.519  47.421   5.057  1.00  0.00     0.033 A 
HETATM   24  C11 UNL     1      17.276  46.253   5.183  1.00  0.00     0.029 A 
HETATM   25  C12 UNL     1      17.168  45.213   4.252  1.00  0.00     0.002 A 
HETATM   26  C13 UNL     1      16.297  45.325   3.173  1.00  0.00     0.000 A 
HETATM   27  C14 UNL     1      15.535  46.478   3.025  1.00  0.00     0.002 A 
HETATM   28  C15 UNL     1      15.646  47.513   3.958  1.00  0.00     0.029 A 
ENDBRANCH  21  23
ENDBRANCH   4  21
TORSDOF 5
ENDMDL
MODEL 6
REMARK minimizedAffinity -7.02803564
REMARK  5 active torsions:
REMARK  status: ('A' for Active; 'I' for Inactive)
REMARK    1  A    between atoms: O1_1  and  C1_2 
REMARK    2  A    between atoms: C1_2  and  C2_3 
REMARK    3  A    between atoms: C5_6  and  C6_7 
REMARK    4  A    between atoms: C9_10  and  N1_11 
REMARK    5  A    between atoms: N1_11  and  C10_12 
ROOT
HETATM    1  C6  UNL     1      13.642  58.098   1.973  1.00  0.00     0.018 A 
HETATM    2  C7  UNL     1      13.320  58.096   0.627  1.00  0.00     0.038 A 
HETATM    3  C8  UNL     1      12.884  59.378   0.141  1.00  0.00     0.043 A 
HETATM    4  C9  UNL     1      12.456  59.842  -1.127  1.00  0.00     0.119 A 
HETATM    5  N2  UNL     1      12.110  61.147  -1.232  1.00  0.00    -0.338 N 
ATOM      6  H2  UNL     1      11.798  61.525  -2.126  1.00  0.00     0.168 HD
HETATM    7  C16 UNL     1      12.181  61.941  -0.153  1.00  0.00     0.182 A 
HETATM    8  N3  UNL     1      12.566  61.606   1.078  1.00  0.00    -0.346 N 
ATOM      9  H3  UNL     1      12.598  62.257   1.862  1.00  0.00     0.167 HD
HETATM   10  C17 UNL     1      12.907  60.310   1.165  1.00  0.00     0.089 A 
HETATM   11  S1  UNL     1      13.432  59.659   2.646  1.00  0.00    -0.071 SA
ENDROOT
BRANCH   1  12
HETATM   12  C5  UNL     1      14.132  56.985   2.797  1.00  0.00    -0.019 A 
HETATM   13  C4  UNL     1      13.260  56.188   3.551  1.00  0.00     0.013 A 
HETATM   14  C3  UNL     1      13.746  55.124   4.319  1.00  0.00     0.010 A 
HETATM   15  C2  UNL     1      15.116  54.830   4.354  1.00  0.00    -0.035 A 
HETATM   16  C19 UNL     1      15.986  55.617   3.590  1.00  0.00     0.010 A 
HETATM   17  C18 UNL     1      15.500  56.683   2.823  1.00  0.00     0.013 A 
BRANCH  15  18
HETATM   18  C1  UNL     1      15.599  53.661   5.175  1.00  0.00     0.202 C 
BRANCH  18  19
HETATM   19  O1  UNL     1      14.520  52.888   5.683  1.00  0.00    -0.396 OA
HETATM   20  H1  UNL     1      14.915  52.141   6.162  1.00  0.00     0.209 HD
ENDBRANCH  18  19
ENDBRANCH  15  18
ENDBRANCH   1  12
BRANCH   4  21
HETATM   21  N1  UNL     1      12.394  58.972  -2.228  1.00  0.00    -0.342 N 
HETATM   22  H7  UNL     1      13.290  58.580  -2.479  1.00  0.00     0.167 HD
BRANCH  21  23
HETATM   23  C10 UNL     1      11.338  58.542  -3.051  1.00  0.00     0.033 A 
HETATM   24  C11 UNL     1      10.530  57.435  -2.779  1.00  0.00     0.029 A 
HETATM   25  C12 UNL     1       9.497  57.059  -3.646  1.00  0.00     0.002 A 
HETATM   26  C13 UNL     1       9.254  57.786  -4.806  1.00  0.00     0.000 A 
HETATM   27  C14 UNL     1      10.046  58.891  -5.099  1.00  0.00     0.002 A 
HETATM   28  C15 UNL     1      11.076  59.262  -4.230  1.00  0.00     0.029 A 
ENDBRANCH  21  23
ENDBRANCH   4  21
TORSDOF 5
ENDMDL
MODEL 7
REMARK minimizedAffinity -7.02784395
REMARK  5 active torsions:
REMARK  status: ('A' for Active; 'I' for Inactive)
REMARK    1  A    between atoms: O1_1  and  C1_2 
REMARK    2  A    between atoms: C1_2  and  C2_3 
REMARK    3  A    between atoms: C5_6  and  C6_7 
REMARK    4  A    between atoms: C9_10  and  N1_11 
REMARK    5  A    between atoms: N1_11  and  C10_12 
ROOT
HETATM    1  C6  UNL     1      13.857  58.175   2.367  1.00  0.00     0.018 A 
HETATM    2  C7  UNL     1      13.871  59.501   2.764  1.00  0.00     0.038 A 
HETATM    3  C8  UNL     1      13.280  60.393   1.803  1.00  0.00     0.043 A 
HETATM    4  C9  UNL     1      13.083  61.795   1.773  1.00  0.00     0.119 A 
HETATM    5  N2  UNL     1      12.474  62.318   0.681  1.00  0.00    -0.338 N 
ATOM      6  H2  UNL     1      12.310  63.322   0.617  1.00  0.00     0.168 HD
HETATM    7  C16 UNL     1      12.087  61.507  -0.315  1.00  0.00     0.182 A 
HETATM    8  N3  UNL     1      12.226  60.183  -0.385  1.00  0.00    -0.346 N 
ATOM      9  H3  UNL     1      11.910  59.619  -1.173  1.00  0.00     0.167 HD
HETATM   10  C17 UNL     1      12.829  59.681   0.704  1.00  0.00     0.089 A 
HETATM   11  S1  UNL     1      13.111  58.008   0.833  1.00  0.00    -0.071 SA
ENDROOT
BRANCH   1  12
HETATM   12  C5  UNL     1      14.355  56.998   3.091  1.00  0.00    -0.019 A 
HETATM   13  C4  UNL     1      13.487  56.134   3.774  1.00  0.00     0.013 A 
HETATM   14  C3  UNL     1      13.979  55.009   4.445  1.00  0.00     0.010 A 
HETATM   15  C2  UNL     1      15.351  54.720   4.452  1.00  0.00    -0.035 A 
HETATM   16  C19 UNL     1      16.215  55.574   3.757  1.00  0.00     0.010 A 
HETATM   17  C18 UNL     1      15.723  56.700   3.087  1.00  0.00     0.013 A 
BRANCH  15  18
HETATM   18  C1  UNL     1      15.841  53.486   5.167  1.00  0.00     0.202 C 
BRANCH  18  19
HETATM   19  O1  UNL     1      14.769  52.641   5.561  1.00  0.00    -0.396 OA
HETATM   20  H1  UNL     1      15.169  51.858   5.975  1.00  0.00     0.209 HD
ENDBRANCH  18  19
ENDBRANCH  15  18
ENDBRANCH   1  12
BRANCH   4  21
HETATM   21  N1  UNL     1      13.509  62.605   2.837  1.00  0.00    -0.342 N 
HETATM   22  H7  UNL     1      14.454  62.945   2.727  1.00  0.00     0.167 HD
BRANCH  21  23
HETATM   23  C10 UNL     1      12.889  63.034   4.024  1.00  0.00     0.033 A 
HETATM   24  C11 UNL     1      12.228  62.186   4.917  1.00  0.00     0.029 A 
HETATM   25  C12 UNL     1      11.626  62.682   6.080  1.00  0.00     0.002 A 
HETATM   26  C13 UNL     1      11.674  64.041   6.370  1.00  0.00     0.000 A 
HETATM   27  C14 UNL     1      12.324  64.905   5.496  1.00  0.00     0.002 A 
HETATM   28  C15 UNL     1      12.924  64.405   4.337  1.00  0.00     0.029 A 
ENDBRANCH  21  23
ENDBRANCH   4  21
TORSDOF 5
ENDMDL
MODEL 8
REMARK minimizedAffinity -6.85293055
REMARK  5 active torsions:
REMARK  status: ('A' for Active; 'I' for Inactive)
REMARK    1  A    between atoms: O1_1  and  C1_2 
REMARK    2  A    between atoms: C1_2  and  C2_3 
REMARK    3  A    between atoms: C5_6  and  C6_7 
REMARK    4  A    between atoms: C9_10  and  N1_11 
REMARK    5  A    between atoms: N1_11  and  C10_12 
ROOT
HETATM    1  C6  UNL     1      14.686  56.616   3.195  1.00  0.00     0.018 A 
HETATM    2  C7  UNL     1      14.043  56.601   1.970  1.00  0.00     0.038 A 
HETATM    3  C8  UNL     1      13.503  57.880   1.591  1.00  0.00     0.043 A 
HETATM    4  C9  UNL     1      12.779  58.331   0.461  1.00  0.00     0.119 A 
HETATM    5  N2  UNL     1      12.420  59.637   0.430  1.00  0.00    -0.338 N 
ATOM      6  H2  UNL     1      11.898  60.006  -0.365  1.00  0.00     0.168 HD
HETATM    7  C16 UNL     1      12.755  60.442   1.448  1.00  0.00     0.182 A 
HETATM    8  N3  UNL     1      13.430  60.119   2.551  1.00  0.00    -0.346 N 
ATOM      9  H3  UNL     1      13.655  60.779   3.295  1.00  0.00     0.167 HD
HETATM   10  C17 UNL     1      13.779  58.823   2.567  1.00  0.00     0.089 A 
HETATM   11  S1  UNL     1      14.652  58.186   3.881  1.00  0.00    -0.071 SA
ENDROOT
BRANCH   1  12
HETATM   12  C5  UNL     1      15.362  55.510   3.887  1.00  0.00    -0.019 A 
HETATM   13  C4  UNL     1      14.641  54.510   4.554  1.00  0.00     0.013 A 
HETATM   14  C3  UNL     1      15.304  53.457   5.194  1.00  0.00     0.010 A 
HETATM   15  C2  UNL     1      16.704  53.378   5.187  1.00  0.00    -0.035 A 
HETATM   16  C19 UNL     1      17.422  54.369   4.509  1.00  0.00     0.010 A 
HETATM   17  C18 UNL     1      16.760  55.423   3.869  1.00  0.00     0.013 A 
BRANCH  15  18
HETATM   18  C1  UNL     1      17.381  52.216   5.869  1.00  0.00     0.202 C 
BRANCH  18  19
HETATM   19  O1  UNL     1      16.504  51.108   6.023  1.00  0.00    -0.396 OA
HETATM   20  H1  UNL     1      17.025  50.396   6.431  1.00  0.00     0.209 HD
ENDBRANCH  18  19
ENDBRANCH  15  18
ENDBRANCH   1  12
BRANCH   4  21
HETATM   21  N1  UNL     1      12.446  57.450  -0.580  1.00  0.00    -0.342 N 
HETATM   22  H7  UNL     1      12.887  56.546  -0.495  1.00  0.00     0.167 HD
BRANCH  21  23
HETATM   23  C10 UNL     1      11.626  57.575  -1.716  1.00  0.00     0.033 A 
HETATM   24  C11 UNL     1      11.747  58.595  -2.664  1.00  0.00     0.029 A 
HETATM   25  C12 UNL     1      10.892  58.662  -3.772  1.00  0.00     0.002 A 
HETATM   26  C13 UNL     1       9.898  57.706  -3.950  1.00  0.00     0.000 A 
HETATM   27  C14 UNL     1       9.758  56.682  -3.019  1.00  0.00     0.002 A 
HETATM   28  C15 UNL     1      10.613  56.620  -1.916  1.00  0.00     0.029 A 
ENDBRANCH  21  23
ENDBRANCH   4  21
TORSDOF 5
ENDMDL
MODEL 9
REMARK minimizedAffinity -6.76418686
REMARK  5 active torsions:
REMARK  status: ('A' for Active; 'I' for Inactive)
REMARK    1  A    between atoms: O1_1  and  C1_2 
REMARK    2  A    between atoms: C1_2  and  C2_3 
REMARK    3  A    between atoms: C5_6  and  C6_7 
REMARK    4  A    between atoms: C9_10  and  N1_11 
REMARK    5  A    between atoms: N1_11  and  C10_12 
ROOT
HETATM    1  C6  UNL     1      13.751  58.169   2.385  1.00  0.00     0.018 A 
HETATM    2  C7  UNL     1      13.591  59.441   2.906  1.00  0.00     0.038 A 
HETATM    3  C8  UNL     1      13.066  60.386   1.957  1.00  0.00     0.043 A 
HETATM    4  C9  UNL     1      12.751  61.764   2.032  1.00  0.00     0.119 A 
HETATM    5  N2  UNL     1      12.259  62.355   0.916  1.00  0.00    -0.338 N 
ATOM      6  H2  UNL     1      12.018  63.346   0.925  1.00  0.00     0.168 HD
HETATM    7  C16 UNL     1      12.091  61.630  -0.199  1.00  0.00     0.182 A 
HETATM    8  N3  UNL     1      12.355  60.336  -0.375  1.00  0.00    -0.346 N 
ATOM      9  H3  UNL     1      12.206  59.838  -1.252  1.00  0.00     0.167 HD
HETATM   10  C17 UNL     1      12.841  59.765   0.740  1.00  0.00     0.089 A 
HETATM   11  S1  UNL     1      13.248  58.113   0.748  1.00  0.00    -0.071 SA
ENDROOT
BRANCH   1  12
HETATM   12  C5  UNL     1      14.243  56.960   3.060  1.00  0.00    -0.019 A 
HETATM   13  C4  UNL     1      15.606  56.633   3.082  1.00  0.00     0.013 A 
HETATM   14  C3  UNL     1      16.056  55.485   3.742  1.00  0.00     0.010 A 
HETATM   15  C2  UNL     1      15.155  54.631   4.396  1.00  0.00    -0.035 A 
HETATM   16  C19 UNL     1      13.796  54.966   4.386  1.00  0.00     0.010 A 
HETATM   17  C18 UNL     1      13.346  56.114   3.724  1.00  0.00     0.013 A 
BRANCH  15  18
HETATM   18  C1  UNL     1      15.681  53.416   5.116  1.00  0.00     0.202 C 
BRANCH  18  19
HETATM   19  O1  UNL     1      14.661  52.753   5.851  1.00  0.00    -0.396 OA
HETATM   20  H1  UNL     1      15.072  51.967   6.248  1.00  0.00     0.209 HD
ENDBRANCH  18  19
ENDBRANCH  15  18
ENDBRANCH   1  12
BRANCH   4  21
HETATM   21  N1  UNL     1      12.949  62.484   3.221  1.00  0.00    -0.342 N 
HETATM   22  H7  UNL     1      12.729  61.953   4.051  1.00  0.00     0.167 HD
BRANCH  21  23
HETATM   23  C10 UNL     1      13.385  63.794   3.487  1.00  0.00     0.033 A 
HETATM   24  C11 UNL     1      12.677  64.716   4.263  1.00  0.00     0.029 A 
HETATM   25  C12 UNL     1      13.169  66.009   4.484  1.00  0.00     0.002 A 
HETATM   26  C13 UNL     1      14.383  66.402   3.930  1.00  0.00     0.000 A 
HETATM   27  C14 UNL     1      15.105  65.503   3.153  1.00  0.00     0.002 A 
HETATM   28  C15 UNL     1      14.609  64.214   2.936  1.00  0.00     0.029 A 
ENDBRANCH  21  23
ENDBRANCH   4  21
TORSDOF 5
ENDMDL
