MODEL 1
REMARK minimizedAffinity -7.83649254
REMARK  6 active torsions:
REMARK  status: ('A' for Active; 'I' for Inactive)
REMARK    1  A    between atoms: C1_2  and  C2_3 
REMARK    2  A    between atoms: C1_2  and  C10_11 
REMARK    3  A    between atoms: C3_4  and  C4_5 
REMARK    4  A    between atoms: C10_11  and  C11_12 
REMARK    5  A    between atoms: C14_15  and  N1_16 
REMARK    6  A    between atoms: N1_16  and  C15_17 
ROOT
HETATM    1  C11 UNL     1      15.156  35.508  16.622  1.00  0.00     0.017 A 
HETATM    2  C12 UNL     1      14.030  35.150  17.354  1.00  0.00     0.043 A 
HETATM    3  C13 UNL     1      14.099  35.074  18.767  1.00  0.00     0.038 A 
HETATM    4  C14 UNL     1      13.039  34.690  19.612  1.00  0.00     0.119 A 
HETATM    5  N2  UNL     1      13.165  34.683  20.952  1.00  0.00    -0.338 N 
ATOM      6  H2  UNL     1      12.387  34.424  21.559  1.00  0.00     0.168 HD
HETATM    7  C21 UNL     1      14.355  35.029  21.451  1.00  0.00     0.182 A 
HETATM    8  N3  UNL     1      15.432  35.386  20.747  1.00  0.00    -0.350 N 
ATOM      9  H3  UNL     1      16.314  35.631  21.199  1.00  0.00     0.166 HD
HETATM   10  C22 UNL     1      15.291  35.406  19.412  1.00  0.00     0.062 A 
HETATM   11  C23 UNL     1      16.346  35.765  18.589  1.00  0.00     0.118 A 
HETATM   12  N4  UNL     1      16.318  35.827  17.229  1.00  0.00    -0.367 N 
ATOM     13  H4  UNL     1      17.141  36.103  16.693  1.00  0.00     0.165 HD
ENDROOT
BRANCH   1  14
HETATM   14  C10 UNL     1      15.122  35.611  15.117  1.00  0.00     0.140 C 
BRANCH  14  15
HETATM   15  C1  UNL     1      16.474  35.868  14.477  1.00  0.00     0.154 C 
HETATM   16  O1  UNL     1      17.091  36.928  14.594  1.00  0.00    -0.293 OA
BRANCH  15  17
HETATM   17  C2  UNL     1      17.135  34.777  13.700  1.00  0.00     0.051 C 
HETATM   18  C3  UNL     1      16.676  34.271  12.546  1.00  0.00     0.015 C 
BRANCH  18  19
HETATM   19  C4  UNL     1      17.350  33.185  11.818  1.00  0.00    -0.036 A 
HETATM   20  C5  UNL     1      18.261  33.513  10.805  1.00  0.00     0.011 A 
HETATM   21  C6  UNL     1      18.942  32.512  10.109  1.00  0.00     0.001 A 
HETATM   22  C7  UNL     1      18.730  31.173  10.428  1.00  0.00     0.000 A 
HETATM   23  C8  UNL     1      17.840  30.835  11.445  1.00  0.00     0.001 A 
HETATM   24  C9  UNL     1      17.157  31.836  12.141  1.00  0.00     0.011 A 
ENDBRANCH  18  19
ENDBRANCH  15  17
ENDBRANCH  14  15
ENDBRANCH   1  14
BRANCH   4  25
HETATM   25  N1  UNL     1      11.810  34.286  19.020  1.00  0.00    -0.342 N 
HETATM   26  H11 UNL     1      11.656  33.304  19.235  1.00  0.00     0.167 HD
BRANCH  25  27
HETATM   27  C15 UNL     1      10.591  34.997  18.949  1.00  0.00     0.034 A 
HETATM   28  C16 UNL     1      10.130  35.596  17.769  1.00  0.00     0.029 A 
HETATM   29  C17 UNL     1       8.885  36.232  17.717  1.00  0.00     0.004 A 
HETATM   30  C18 UNL     1       8.066  36.255  18.842  1.00  0.00     0.019 A 
HETATM   31  C19 UNL     1       8.494  35.632  20.009  1.00  0.00     0.013 A 
HETATM   32 BR1  UNL     1       7.377  35.634  21.536  1.00  0.00    -0.051 Br
HETATM   33  C20 UNL     1       9.737  34.998  20.064  1.00  0.00     0.048 A 
ENDBRANCH  25  27
ENDBRANCH   4  25
TORSDOF 6
ENDMDL
MODEL 2
REMARK minimizedAffinity -7.62514639
REMARK  6 active torsions:
REMARK  status: ('A' for Active; 'I' for Inactive)
REMARK    1  A    between atoms: C1_2  and  C2_3 
REMARK    2  A    between atoms: C1_2  and  C10_11 
REMARK    3  A    between atoms: C3_4  and  C4_5 
REMARK    4  A    between atoms: C10_11  and  C11_12 
REMARK    5  A    between atoms: C14_15  and  N1_16 
REMARK    6  A    between atoms: N1_16  and  C15_17 
ROOT
HETATM    1  C11 UNL     1      15.352  35.307  17.482  1.00  0.00     0.017 A 
HETATM    2  C12 UNL     1      15.498  36.214  16.439  1.00  0.00     0.043 A 
HETATM    3  C13 UNL     1      16.630  36.140  15.591  1.00  0.00     0.038 A 
HETATM    4  C14 UNL     1      16.905  37.022  14.527  1.00  0.00     0.119 A 
HETATM    5  N2  UNL     1      17.981  36.864  13.735  1.00  0.00    -0.338 N 
ATOM      6  H2  UNL     1      18.163  37.493  12.952  1.00  0.00     0.168 HD
HETATM    7  C21 UNL     1      18.800  35.848  14.018  1.00  0.00     0.182 A 
HETATM    8  N3  UNL     1      18.652  34.969  15.013  1.00  0.00    -0.350 N 
ATOM      9  H3  UNL     1      19.326  34.220  15.175  1.00  0.00     0.166 HD
HETATM   10  C22 UNL     1      17.567  35.125  15.787  1.00  0.00     0.062 A 
HETATM   11  C23 UNL     1      17.316  34.266  16.844  1.00  0.00     0.118 A 
HETATM   12  N4  UNL     1      16.250  34.322  17.690  1.00  0.00    -0.367 N 
ATOM     13  H4  UNL     1      16.136  33.648  18.447  1.00  0.00     0.165 HD
ENDROOT
BRANCH   1  14
HETATM   14  C10 UNL     1      14.155  35.343  18.401  1.00  0.00     0.140 C 
BRANCH  14  15
HETATM   15  C1  UNL     1      13.021  34.423  17.987  1.00  0.00     0.154 C 
HETATM   16  O1  UNL     1      13.189  33.255  17.631  1.00  0.00    -0.293 OA
BRANCH  15  17
HETATM   17  C2  UNL     1      11.615  34.919  18.053  1.00  0.00     0.051 C 
HETATM   18  C3  UNL     1      10.873  34.978  19.169  1.00  0.00     0.015 C 
BRANCH  18  19
HETATM   19  C4  UNL     1       9.484  35.461  19.189  1.00  0.00    -0.036 A 
HETATM   20  C5  UNL     1       8.611  34.972  20.169  1.00  0.00     0.011 A 
HETATM   21  C6  UNL     1       7.292  35.426  20.238  1.00  0.00     0.001 A 
HETATM   22  C7  UNL     1       6.837  36.385  19.336  1.00  0.00     0.000 A 
HETATM   23  C8  UNL     1       7.700  36.892  18.368  1.00  0.00     0.001 A 
HETATM   24  C9  UNL     1       9.019  36.436  18.297  1.00  0.00     0.011 A 
ENDBRANCH  18  19
ENDBRANCH  15  17
ENDBRANCH  14  15
ENDBRANCH   1  14
BRANCH   4  25
HETATM   25  N1  UNL     1      16.022  38.114  14.303  1.00  0.00    -0.342 N 
HETATM   26  H11 UNL     1      15.066  37.772  14.359  1.00  0.00     0.167 HD
BRANCH  25  27
HETATM   27  C15 UNL     1      16.125  39.442  14.775  1.00  0.00     0.034 A 
HETATM   28  C16 UNL     1      15.834  39.801  16.097  1.00  0.00     0.029 A 
HETATM   29  C17 UNL     1      16.014  41.112  16.549  1.00  0.00     0.004 A 
HETATM   30  C18 UNL     1      16.517  42.084  15.689  1.00  0.00     0.019 A 
HETATM   31  C19 UNL     1      16.846  41.733  14.384  1.00  0.00     0.013 A 
HETATM   32 BR1  UNL     1      17.556  43.039  13.214  1.00  0.00    -0.051 Br
HETATM   33  C20 UNL     1      16.665  40.424  13.930  1.00  0.00     0.048 A 
ENDBRANCH  25  27
ENDBRANCH   4  25
TORSDOF 6
ENDMDL
MODEL 3
REMARK minimizedAffinity -7.6051898
REMARK  6 active torsions:
REMARK  status: ('A' for Active; 'I' for Inactive)
REMARK    1  A    between atoms: C1_2  and  C2_3 
REMARK    2  A    between atoms: C1_2  and  C10_11 
REMARK    3  A    between atoms: C3_4  and  C4_5 
REMARK    4  A    between atoms: C10_11  and  C11_12 
REMARK    5  A    between atoms: C14_15  and  N1_16 
REMARK    6  A    between atoms: N1_16  and  C15_17 
ROOT
HETATM    1  C11 UNL     1      12.770  60.558   5.538  1.00  0.00     0.017 A 
HETATM    2  C12 UNL     1      12.980  59.255   5.104  1.00  0.00     0.043 A 
HETATM    3  C13 UNL     1      13.173  58.991   3.726  1.00  0.00     0.038 A 
HETATM    4  C14 UNL     1      13.359  57.712   3.163  1.00  0.00     0.119 A 
HETATM    5  N2  UNL     1      13.580  57.541   1.847  1.00  0.00    -0.338 N 
ATOM      6  H2  UNL     1      13.735  56.614   1.449  1.00  0.00     0.168 HD
HETATM    7  C21 UNL     1      13.586  58.638   1.085  1.00  0.00     0.182 A 
HETATM    8  N3  UNL     1      13.398  59.891   1.505  1.00  0.00    -0.350 N 
ATOM      9  H3  UNL     1      13.408  60.683   0.861  1.00  0.00     0.166 HD
HETATM   10  C22 UNL     1      13.194  60.053   2.822  1.00  0.00     0.062 A 
HETATM   11  C23 UNL     1      12.991  61.312   3.363  1.00  0.00     0.118 A 
HETATM   12  N4  UNL     1      12.782  61.598   4.678  1.00  0.00    -0.367 N 
ATOM     13  H4  UNL     1      12.642  62.556   4.998  1.00  0.00     0.165 HD
ENDROOT
BRANCH   1  14
HETATM   14  C10 UNL     1      12.572  60.884   6.998  1.00  0.00     0.140 C 
BRANCH  14  15
HETATM   15  C1  UNL     1      11.759  59.855   7.763  1.00  0.00     0.154 C 
HETATM   16  O1  UNL     1      10.605  59.541   7.465  1.00  0.00    -0.293 OA
BRANCH  15  17
HETATM   17  C2  UNL     1      12.384  59.135   8.913  1.00  0.00     0.051 C 
HETATM   18  C3  UNL     1      13.584  58.537   8.881  1.00  0.00     0.015 C 
BRANCH  18  19
HETATM   19  C4  UNL     1      14.159  57.826  10.033  1.00  0.00    -0.036 A 
HETATM   20  C5  UNL     1      13.319  57.037  10.831  1.00  0.00     0.011 A 
HETATM   21  C6  UNL     1      13.832  56.325  11.917  1.00  0.00     0.001 A 
HETATM   22  C7  UNL     1      15.193  56.383  12.209  1.00  0.00     0.000 A 
HETATM   23  C8  UNL     1      16.041  57.149  11.414  1.00  0.00     0.001 A 
HETATM   24  C9  UNL     1      15.528  57.863  10.328  1.00  0.00     0.011 A 
ENDBRANCH  18  19
ENDBRANCH  15  17
ENDBRANCH  14  15
ENDBRANCH   1  14
BRANCH   4  25
HETATM   25  N1  UNL     1      13.294  56.577   4.018  1.00  0.00    -0.342 N 
HETATM   26  H11 UNL     1      12.422  56.086   3.837  1.00  0.00     0.167 HD
BRANCH  25  27
HETATM   27  C15 UNL     1      14.328  55.680   4.372  1.00  0.00     0.034 A 
HETATM   28  C16 UNL     1      14.081  54.423   4.938  1.00  0.00     0.029 A 
HETATM   29  C17 UNL     1      15.125  53.533   5.212  1.00  0.00     0.004 A 
HETATM   30  C18 UNL     1      16.435  53.877   4.897  1.00  0.00     0.019 A 
HETATM   31  C19 UNL     1      16.692  55.107   4.299  1.00  0.00     0.013 A 
HETATM   32 BR1  UNL     1      18.468  55.574   3.842  1.00  0.00    -0.051 Br
HETATM   33  C20 UNL     1      15.651  55.998   4.027  1.00  0.00     0.048 A 
ENDBRANCH  25  27
ENDBRANCH   4  25
TORSDOF 6
ENDMDL
MODEL 4
REMARK minimizedAffinity -7.44608307
REMARK  6 active torsions:
REMARK  status: ('A' for Active; 'I' for Inactive)
REMARK    1  A    between atoms: C1_2  and  C2_3 
REMARK    2  A    between atoms: C1_2  and  C10_11 
REMARK    3  A    between atoms: C3_4  and  C4_5 
REMARK    4  A    between atoms: C10_11  and  C11_12 
REMARK    5  A    between atoms: C14_15  and  N1_16 
REMARK    6  A    between atoms: N1_16  and  C15_17 
ROOT
HETATM    1  C11 UNL     1      12.984  55.165  -1.617  1.00  0.00     0.017 A 
HETATM    2  C12 UNL     1      12.349  53.959  -1.888  1.00  0.00     0.043 A 
HETATM    3  C13 UNL     1      13.106  52.843  -2.324  1.00  0.00     0.038 A 
HETATM    4  C14 UNL     1      12.572  51.583  -2.662  1.00  0.00     0.119 A 
HETATM    5  N2  UNL     1      13.359  50.555  -3.029  1.00  0.00    -0.338 N 
ATOM      6  H2  UNL     1      12.968  49.639  -3.252  1.00  0.00     0.168 HD
HETATM    7  C21 UNL     1      14.673  50.787  -3.089  1.00  0.00     0.182 A 
HETATM    8  N3  UNL     1      15.283  51.943  -2.815  1.00  0.00    -0.350 N 
ATOM      9  H3  UNL     1      16.295  52.049  -2.891  1.00  0.00     0.166 HD
HETATM   10  C22 UNL     1      14.491  52.958  -2.435  1.00  0.00     0.062 A 
HETATM   11  C23 UNL     1      15.023  54.199  -2.125  1.00  0.00     0.118 A 
HETATM   12  N4  UNL     1      14.323  55.295  -1.723  1.00  0.00    -0.367 N 
ATOM     13  H4  UNL     1      14.791  56.177  -1.512  1.00  0.00     0.165 HD
ENDROOT
BRANCH   1  14
HETATM   14  C10 UNL     1      12.217  56.373  -1.139  1.00  0.00     0.140 C 
BRANCH  14  15
HETATM   15  C1  UNL     1      12.836  57.073   0.058  1.00  0.00     0.154 C 
HETATM   16  O1  UNL     1      12.808  58.294   0.220  1.00  0.00    -0.293 OA
BRANCH  15  17
HETATM   17  C2  UNL     1      13.476  56.258   1.133  1.00  0.00     0.051 C 
HETATM   18  C3  UNL     1      13.941  56.747   2.292  1.00  0.00     0.015 C 
BRANCH  18  19
HETATM   19  C4  UNL     1      14.578  55.911   3.320  1.00  0.00    -0.036 A 
HETATM   20  C5  UNL     1      13.767  55.168   4.188  1.00  0.00     0.011 A 
HETATM   21  C6  UNL     1      14.333  54.341   5.160  1.00  0.00     0.001 A 
HETATM   22  C7  UNL     1      15.718  54.237   5.266  1.00  0.00     0.000 A 
HETATM   23  C8  UNL     1      16.536  54.957   4.398  1.00  0.00     0.001 A 
HETATM   24  C9  UNL     1      15.970  55.786   3.426  1.00  0.00     0.011 A 
ENDBRANCH  18  19
ENDBRANCH  15  17
ENDBRANCH  14  15
ENDBRANCH   1  14
BRANCH   4  25
HETATM   25  N1  UNL     1      11.161  51.410  -2.625  1.00  0.00    -0.342 N 
HETATM   26  H11 UNL     1      10.731  52.150  -3.174  1.00  0.00     0.167 HD
BRANCH  25  27
HETATM   27  C15 UNL     1      10.419  50.210  -2.703  1.00  0.00     0.034 A 
HETATM   28  C16 UNL     1       9.899  49.716  -3.907  1.00  0.00     0.029 A 
HETATM   29  C17 UNL     1       9.230  48.489  -3.959  1.00  0.00     0.004 A 
HETATM   30  C18 UNL     1       9.091  47.721  -2.807  1.00  0.00     0.019 A 
HETATM   31  C19 UNL     1       9.634  48.181  -1.612  1.00  0.00     0.013 A 
HETATM   32 BR1  UNL     1       9.475  47.132  -0.046  1.00  0.00    -0.051 Br
HETATM   33  C20 UNL     1      10.302  49.406  -1.558  1.00  0.00     0.048 A 
ENDBRANCH  25  27
ENDBRANCH   4  25
TORSDOF 6
ENDMDL
MODEL 5
REMARK minimizedAffinity -7.42405367
REMARK  6 active torsions:
REMARK  status: ('A' for Active; 'I' for Inactive)
REMARK    1  A    between atoms: C1_2  and  C2_3 
REMARK    2  A    between atoms: C1_2  and  C10_11 
REMARK    3  A    between atoms: C3_4  and  C4_5 
REMARK    4  A    between atoms: C10_11  and  C11_12 
REMARK    5  A    between atoms: C14_15  and  N1_16 
REMARK    6  A    between atoms: N1_16  and  C15_17 
ROOT
HETATM    1  C11 UNL     1       6.565  64.175  -5.726  1.00  0.00     0.017 A 
HETATM    2  C12 UNL     1       5.471  64.519  -4.940  1.00  0.00     0.043 A 
HETATM    3  C13 UNL     1       4.599  65.555  -5.357  1.00  0.00     0.038 A 
HETATM    4  C14 UNL     1       3.481  66.015  -4.631  1.00  0.00     0.119 A 
HETATM    5  N2  UNL     1       2.671  66.977  -5.110  1.00  0.00    -0.338 N 
ATOM      6  H2  UNL     1       1.852  67.291  -4.590  1.00  0.00     0.168 HD
HETATM    7  C21 UNL     1       2.988  67.502  -6.297  1.00  0.00     0.182 A 
HETATM    8  N3  UNL     1       4.031  67.160  -7.058  1.00  0.00    -0.350 N 
ATOM      9  H3  UNL     1       4.216  67.613  -7.953  1.00  0.00     0.166 HD
HETATM   10  C22 UNL     1       4.824  66.190  -6.578  1.00  0.00     0.062 A 
HETATM   11  C23 UNL     1       5.933  65.758  -7.289  1.00  0.00     0.118 A 
HETATM   12  N4  UNL     1       6.801  64.782  -6.907  1.00  0.00    -0.367 N 
ATOM     13  H4  UNL     1       7.596  64.520  -7.490  1.00  0.00     0.165 HD
ENDROOT
BRANCH   1  14
HETATM   14  C10 UNL     1       7.511  63.070  -5.324  1.00  0.00     0.140 C 
BRANCH  14  15
HETATM   15  C1  UNL     1       7.440  61.836  -6.205  1.00  0.00     0.154 C 
HETATM   16  O1  UNL     1       7.025  61.852  -7.365  1.00  0.00    -0.293 OA
BRANCH  15  17
HETATM   17  C2  UNL     1       7.938  60.531  -5.678  1.00  0.00     0.051 C 
HETATM   18  C3  UNL     1       8.734  59.685  -6.349  1.00  0.00     0.015 C 
BRANCH  18  19
HETATM   19  C4  UNL     1       9.192  58.401  -5.798  1.00  0.00    -0.036 A 
HETATM   20  C5  UNL     1       9.097  58.185  -4.417  1.00  0.00     0.011 A 
HETATM   21  C6  UNL     1       9.496  56.968  -3.858  1.00  0.00     0.001 A 
HETATM   22  C7  UNL     1       9.981  55.951  -4.677  1.00  0.00     0.000 A 
HETATM   23  C8  UNL     1      10.064  56.147  -6.053  1.00  0.00     0.001 A 
HETATM   24  C9  UNL     1       9.666  57.364  -6.612  1.00  0.00     0.011 A 
ENDBRANCH  18  19
ENDBRANCH  15  17
ENDBRANCH  14  15
ENDBRANCH   1  14
BRANCH   4  25
HETATM   25  N1  UNL     1       3.222  65.452  -3.351  1.00  0.00    -0.342 N 
HETATM   26  H11 UNL     1       3.795  65.934  -2.664  1.00  0.00     0.167 HD
BRANCH  25  27
HETATM   27  C15 UNL     1       1.984  65.048  -2.801  1.00  0.00     0.034 A 
HETATM   28  C16 UNL     1       1.402  63.804  -3.074  1.00  0.00     0.029 A 
HETATM   29  C17 UNL     1       0.211  63.409  -2.457  1.00  0.00     0.004 A 
HETATM   30  C18 UNL     1      -0.406  64.246  -1.532  1.00  0.00     0.019 A 
HETATM   31  C19 UNL     1       0.180  65.469  -1.222  1.00  0.00     0.013 A 
HETATM   32 BR1  UNL     1      -0.636  66.603   0.054  1.00  0.00    -0.051 Br
HETATM   33  C20 UNL     1       1.369  65.865  -1.839  1.00  0.00     0.048 A 
ENDBRANCH  25  27
ENDBRANCH   4  25
TORSDOF 6
ENDMDL
MODEL 6
REMARK minimizedAffinity -7.36943293
REMARK  6 active torsions:
REMARK  status: ('A' for Active; 'I' for Inactive)
REMARK    1  A    between atoms: C1_2  and  C2_3 
REMARK    2  A    between atoms: C1_2  and  C10_11 
REMARK    3  A    between atoms: C3_4  and  C4_5 
REMARK    4  A    between atoms: C10_11  and  C11_12 
REMARK    5  A    between atoms: C14_15  and  N1_16 
REMARK    6  A    between atoms: N1_16  and  C15_17 
ROOT
HETATM    1  C11 UNL     1      14.693  35.130  18.013  1.00  0.00     0.017 A 
HETATM    2  C12 UNL     1      15.059  35.208  16.674  1.00  0.00     0.043 A 
HETATM    3  C13 UNL     1      15.757  36.344  16.197  1.00  0.00     0.038 A 
HETATM    4  C14 UNL     1      16.149  36.553  14.860  1.00  0.00     0.119 A 
HETATM    5  N2  UNL     1      16.849  37.640  14.486  1.00  0.00    -0.338 N 
ATOM      6  H2  UNL     1      17.149  37.774  13.520  1.00  0.00     0.168 HD
HETATM    7  C21 UNL     1      17.135  38.534  15.436  1.00  0.00     0.182 A 
HETATM    8  N3  UNL     1      16.794  38.451  16.726  1.00  0.00    -0.350 N 
ATOM      9  H3  UNL     1      17.041  39.180  17.395  1.00  0.00     0.166 HD
HETATM   10  C22 UNL     1      16.110  37.356  17.090  1.00  0.00     0.062 A 
HETATM   11  C23 UNL     1      15.711  37.169  18.404  1.00  0.00     0.118 A 
HETATM   12  N4  UNL     1      15.022  36.101  18.891  1.00  0.00    -0.367 N 
ATOM     13  H4  UNL     1      14.765  36.038  19.876  1.00  0.00     0.165 HD
ENDROOT
BRANCH   1  14
HETATM   14  C10 UNL     1      13.959  33.932  18.564  1.00  0.00     0.140 C 
BRANCH  14  15
HETATM   15  C1  UNL     1      13.066  34.239  19.753  1.00  0.00     0.154 C 
HETATM   16  O1  UNL     1      13.430  34.121  20.924  1.00  0.00    -0.293 OA
BRANCH  15  17
HETATM   17  C2  UNL     1      11.686  34.757  19.517  1.00  0.00     0.051 C 
HETATM   18  C3  UNL     1      10.613  34.449  20.260  1.00  0.00     0.015 C 
BRANCH  18  19
HETATM   19  C4  UNL     1       9.266  34.971  19.986  1.00  0.00    -0.036 A 
HETATM   20  C5  UNL     1       9.111  35.965  19.011  1.00  0.00     0.011 A 
HETATM   21  C6  UNL     1       7.845  36.468  18.701  1.00  0.00     0.001 A 
HETATM   22  C7  UNL     1       6.719  35.972  19.355  1.00  0.00     0.000 A 
HETATM   23  C8  UNL     1       6.858  34.972  20.314  1.00  0.00     0.001 A 
HETATM   24  C9  UNL     1       8.125  34.470  20.625  1.00  0.00     0.011 A 
ENDBRANCH  18  19
ENDBRANCH  15  17
ENDBRANCH  14  15
ENDBRANCH   1  14
BRANCH   4  25
HETATM   25  N1  UNL     1      15.775  35.589  13.883  1.00  0.00    -0.342 N 
HETATM   26  H11 UNL     1      14.845  35.818  13.543  1.00  0.00     0.167 HD
BRANCH  25  27
HETATM   27  C15 UNL     1      16.570  35.010  12.867  1.00  0.00     0.034 A 
HETATM   28  C16 UNL     1      17.341  35.773  11.980  1.00  0.00     0.029 A 
HETATM   29  C17 UNL     1      18.169  35.165  11.032  1.00  0.00     0.004 A 
HETATM   30  C18 UNL     1      18.260  33.778  10.972  1.00  0.00     0.019 A 
HETATM   31  C19 UNL     1      17.529  33.008  11.871  1.00  0.00     0.013 A 
HETATM   32 BR1  UNL     1      17.667  31.122  11.816  1.00  0.00    -0.051 Br
HETATM   33  C20 UNL     1      16.700  33.613  12.818  1.00  0.00     0.048 A 
ENDBRANCH  25  27
ENDBRANCH   4  25
TORSDOF 6
ENDMDL
MODEL 7
REMARK minimizedAffinity -7.36553764
REMARK  6 active torsions:
REMARK  status: ('A' for Active; 'I' for Inactive)
REMARK    1  A    between atoms: C1_2  and  C2_3 
REMARK    2  A    between atoms: C1_2  and  C10_11 
REMARK    3  A    between atoms: C3_4  and  C4_5 
REMARK    4  A    between atoms: C10_11  and  C11_12 
REMARK    5  A    between atoms: C14_15  and  N1_16 
REMARK    6  A    between atoms: N1_16  and  C15_17 
ROOT
HETATM    1  C11 UNL     1      18.457  49.158   5.798  1.00  0.00     0.017 A 
HETATM    2  C12 UNL     1      17.567  48.122   5.542  1.00  0.00     0.043 A 
HETATM    3  C13 UNL     1      17.646  46.921   6.290  1.00  0.00     0.038 A 
HETATM    4  C14 UNL     1      16.824  45.792   6.099  1.00  0.00     0.119 A 
HETATM    5  N2  UNL     1      16.928  44.699   6.878  1.00  0.00    -0.338 N 
ATOM      6  H2  UNL     1      16.316  43.893   6.749  1.00  0.00     0.168 HD
HETATM    7  C21 UNL     1      17.868  44.717   7.827  1.00  0.00     0.182 A 
HETATM    8  N3  UNL     1      18.714  45.719   8.081  1.00  0.00    -0.350 N 
ATOM      9  H3  UNL     1      19.414  45.658   8.820  1.00  0.00     0.166 HD
HETATM   10  C22 UNL     1      18.591  46.810   7.309  1.00  0.00     0.062 A 
HETATM   11  C23 UNL     1      19.417  47.908   7.490  1.00  0.00     0.118 A 
HETATM   12  N4  UNL     1      19.382  49.067   6.776  1.00  0.00    -0.367 N 
ATOM     13  H4  UNL     1      20.027  49.832   6.973  1.00  0.00     0.165 HD
ENDROOT
BRANCH   1  14
HETATM   14  C10 UNL     1      18.400  50.457   5.032  1.00  0.00     0.140 C 
BRANCH  14  15
HETATM   15  C1  UNL     1      17.840  51.625   5.824  1.00  0.00     0.154 C 
HETATM   16  O1  UNL     1      18.238  51.937   6.948  1.00  0.00    -0.293 OA
BRANCH  15  17
HETATM   17  C2  UNL     1      16.786  52.487   5.212  1.00  0.00     0.051 C 
HETATM   18  C3  UNL     1      16.857  53.821   5.097  1.00  0.00     0.015 C 
BRANCH  18  19
HETATM   19  C4  UNL     1      15.788  54.635   4.498  1.00  0.00    -0.036 A 
HETATM   20  C5  UNL     1      16.127  55.598   3.539  1.00  0.00     0.011 A 
HETATM   21  C6  UNL     1      15.139  56.373   2.927  1.00  0.00     0.001 A 
HETATM   22  C7  UNL     1      13.799  56.183   3.260  1.00  0.00     0.000 A 
HETATM   23  C8  UNL     1      13.448  55.218   4.200  1.00  0.00     0.001 A 
HETATM   24  C9  UNL     1      14.436  54.443   4.813  1.00  0.00     0.011 A 
ENDBRANCH  18  19
ENDBRANCH  15  17
ENDBRANCH  14  15
ENDBRANCH   1  14
BRANCH   4  25
HETATM   25  N1  UNL     1      15.874  45.813   5.041  1.00  0.00    -0.342 N 
HETATM   26  H11 UNL     1      15.242  46.596   5.190  1.00  0.00     0.167 HD
BRANCH  25  27
HETATM   27  C15 UNL     1      16.082  45.571   3.664  1.00  0.00     0.034 A 
HETATM   28  C16 UNL     1      15.564  46.401   2.662  1.00  0.00     0.029 A 
HETATM   29  C17 UNL     1      15.849  46.172   1.312  1.00  0.00     0.004 A 
HETATM   30  C18 UNL     1      16.682  45.120   0.943  1.00  0.00     0.019 A 
HETATM   31  C19 UNL     1      17.235  44.311   1.930  1.00  0.00     0.013 A 
HETATM   32 BR1  UNL     1      18.391  42.896   1.442  1.00  0.00    -0.051 Br
HETATM   33  C20 UNL     1      16.951  44.537   3.279  1.00  0.00     0.048 A 
ENDBRANCH  25  27
ENDBRANCH   4  25
TORSDOF 6
ENDMDL
MODEL 8
REMARK minimizedAffinity -7.24748993
REMARK  6 active torsions:
REMARK  status: ('A' for Active; 'I' for Inactive)
REMARK    1  A    between atoms: C1_2  and  C2_3 
REMARK    2  A    between atoms: C1_2  and  C10_11 
REMARK    3  A    between atoms: C3_4  and  C4_5 
REMARK    4  A    between atoms: C10_11  and  C11_12 
REMARK    5  A    between atoms: C14_15  and  N1_16 
REMARK    6  A    between atoms: N1_16  and  C15_17 
ROOT
HETATM    1  C11 UNL     1      15.873  35.550  14.088  1.00  0.00     0.017 A 
HETATM    2  C12 UNL     1      14.824  35.483  14.997  1.00  0.00     0.043 A 
HETATM    3  C13 UNL     1      14.791  36.364  16.107  1.00  0.00     0.038 A 
HETATM    4  C14 UNL     1      13.802  36.368  17.110  1.00  0.00     0.119 A 
HETATM    5  N2  UNL     1      13.813  37.264  18.114  1.00  0.00    -0.338 N 
ATOM      6  H2  UNL     1      13.082  37.275  18.826  1.00  0.00     0.168 HD
HETATM    7  C21 UNL     1      14.823  38.138  18.136  1.00  0.00     0.182 A 
HETATM    8  N3  UNL     1      15.823  38.211  17.254  1.00  0.00    -0.350 N 
ATOM      9  H3  UNL     1      16.568  38.903  17.340  1.00  0.00     0.166 HD
HETATM   10  C22 UNL     1      15.794  37.322  16.249  1.00  0.00     0.062 A 
HETATM   11  C23 UNL     1      16.783  37.313  15.277  1.00  0.00     0.118 A 
HETATM   12  N4  UNL     1      16.855  36.468  14.213  1.00  0.00    -0.367 N 
ATOM     13  H4  UNL     1      17.618  36.526  13.538  1.00  0.00     0.165 HD
ENDROOT
BRANCH   1  14
HETATM   14  C10 UNL     1      15.939  34.638  12.888  1.00  0.00     0.140 C 
BRANCH  14  15
HETATM   15  C1  UNL     1      16.959  35.054  11.843  1.00  0.00     0.154 C 
HETATM   16  O1  UNL     1      17.095  36.214  11.450  1.00  0.00    -0.293 OA
BRANCH  15  17
HETATM   17  C2  UNL     1      17.890  34.031  11.280  1.00  0.00     0.051 C 
HETATM   18  C3  UNL     1      17.689  32.706  11.323  1.00  0.00     0.015 C 
BRANCH  18  19
HETATM   19  C4  UNL     1      18.639  31.730  10.769  1.00  0.00    -0.036 A 
HETATM   20  C5  UNL     1      18.989  31.819   9.415  1.00  0.00     0.011 A 
HETATM   21  C6  UNL     1      19.909  30.928   8.857  1.00  0.00     0.001 A 
HETATM   22  C7  UNL     1      20.498  29.946   9.651  1.00  0.00     0.000 A 
HETATM   23  C8  UNL     1      20.171  29.858  11.002  1.00  0.00     0.001 A 
HETATM   24  C9  UNL     1      19.251  30.748  11.560  1.00  0.00     0.011 A 
ENDBRANCH  18  19
ENDBRANCH  15  17
ENDBRANCH  14  15
ENDBRANCH   1  14
BRANCH   4  25
HETATM   25  N1  UNL     1      12.778  35.382  17.060  1.00  0.00    -0.342 N 
HETATM   26  H11 UNL     1      13.173  34.526  16.680  1.00  0.00     0.167 HD
BRANCH  25  27
HETATM   27  C15 UNL     1      11.772  35.108  18.014  1.00  0.00     0.034 A 
HETATM   28  C16 UNL     1      11.987  34.289  19.130  1.00  0.00     0.029 A 
HETATM   29  C17 UNL     1      10.989  34.096  20.091  1.00  0.00     0.004 A 
HETATM   30  C18 UNL     1       9.764  34.743  19.964  1.00  0.00     0.019 A 
HETATM   31  C19 UNL     1       9.549  35.589  18.882  1.00  0.00     0.013 A 
HETATM   32 BR1  UNL     1       7.897  36.496  18.715  1.00  0.00    -0.051 Br
HETATM   33  C20 UNL     1      10.544  35.783  17.920  1.00  0.00     0.048 A 
ENDBRANCH  25  27
ENDBRANCH   4  25
TORSDOF 6
ENDMDL
MODEL 9
REMARK minimizedAffinity -7.18253326
REMARK  6 active torsions:
REMARK  status: ('A' for Active; 'I' for Inactive)
REMARK    1  A    between atoms: C1_2  and  C2_3 
REMARK    2  A    between atoms: C1_2  and  C10_11 
REMARK    3  A    between atoms: C3_4  and  C4_5 
REMARK    4  A    between atoms: C10_11  and  C11_12 
REMARK    5  A    between atoms: C14_15  and  N1_16 
REMARK    6  A    between atoms: N1_16  and  C15_17 
ROOT
HETATM    1  C11 UNL     1      14.794  34.825  18.218  1.00  0.00     0.017 A 
HETATM    2  C12 UNL     1      15.834  34.477  17.364  1.00  0.00     0.043 A 
HETATM    3  C13 UNL     1      17.139  34.976  17.599  1.00  0.00     0.038 A 
HETATM    4  C14 UNL     1      18.263  34.723  16.787  1.00  0.00     0.119 A 
HETATM    5  N2  UNL     1      19.483  35.198  17.096  1.00  0.00    -0.338 N 
ATOM      6  H2  UNL     1      20.297  34.994  16.515  1.00  0.00     0.168 HD
HETATM    7  C21 UNL     1      19.582  35.949  18.196  1.00  0.00     0.182 A 
HETATM    8  N3  UNL     1      18.584  36.271  19.023  1.00  0.00    -0.350 N 
ATOM      9  H3  UNL     1      18.733  36.859  19.844  1.00  0.00     0.166 HD
HETATM   10  C22 UNL     1      17.374  35.780  18.714  1.00  0.00     0.062 A 
HETATM   11  C23 UNL     1      16.271  36.051  19.508  1.00  0.00     0.118 A 
HETATM   12  N4  UNL     1      15.002  35.605  19.299  1.00  0.00    -0.367 N 
ATOM     13  H4  UNL     1      14.241  35.849  19.933  1.00  0.00     0.165 HD
ENDROOT
BRANCH   1  14
HETATM   14  C10 UNL     1      13.393  34.305  18.010  1.00  0.00     0.140 C 
BRANCH  14  15
HETATM   15  C1  UNL     1      12.407  35.346  17.511  1.00  0.00     0.154 C 
HETATM   16  O1  UNL     1      12.705  36.236  16.712  1.00  0.00    -0.293 OA
BRANCH  15  17
HETATM   17  C2  UNL     1      10.985  35.281  17.959  1.00  0.00     0.051 C 
HETATM   18  C3  UNL     1      10.582  35.282  19.239  1.00  0.00     0.015 C 
BRANCH  18  19
HETATM   19  C4  UNL     1       9.169  35.203  19.639  1.00  0.00    -0.036 A 
HETATM   20  C5  UNL     1       8.819  34.399  20.731  1.00  0.00     0.011 A 
HETATM   21  C6  UNL     1       7.492  34.318  21.160  1.00  0.00     0.001 A 
HETATM   22  C7  UNL     1       6.503  35.052  20.507  1.00  0.00     0.000 A 
HETATM   23  C8  UNL     1       6.841  35.868  19.431  1.00  0.00     0.001 A 
HETATM   24  C9  UNL     1       8.169  35.948  19.002  1.00  0.00     0.011 A 
ENDBRANCH  18  19
ENDBRANCH  15  17
ENDBRANCH  14  15
ENDBRANCH   1  14
BRANCH   4  25
HETATM   25  N1  UNL     1      18.087  33.957  15.601  1.00  0.00    -0.342 N 
HETATM   26  H11 UNL     1      17.472  33.175  15.811  1.00  0.00     0.167 HD
BRANCH  25  27
HETATM   27  C15 UNL     1      17.908  34.413  14.275  1.00  0.00     0.034 A 
HETATM   28  C16 UNL     1      17.675  33.547  13.200  1.00  0.00     0.029 A 
HETATM   29  C17 UNL     1      17.433  34.037  11.913  1.00  0.00     0.004 A 
HETATM   30  C18 UNL     1      17.395  35.409  11.685  1.00  0.00     0.019 A 
HETATM   31  C19 UNL     1      17.587  36.282  12.750  1.00  0.00     0.013 A 
HETATM   32 BR1  UNL     1      17.510  38.150  12.457  1.00  0.00    -0.051 Br
HETATM   33  C20 UNL     1      17.830  35.794  14.036  1.00  0.00     0.048 A 
ENDBRANCH  25  27
ENDBRANCH   4  25
TORSDOF 6
ENDMDL
