MODEL 1
REMARK minimizedAffinity -6.89460421
REMARK CNNscore 0.573358417
REMARK CNNaffinity 5.40625048
REMARK  4 active torsions:
REMARK  status: ('A' for Active; 'I' for Inactive)
REMARK    1  A    between atoms: N1_1  and  C1_2 
REMARK    2  A    between atoms: C1_2  and  N2_4 
REMARK    3  A    between atoms: C2_7  and  C3_8 
REMARK    4  A    between atoms: C10_17  and  C11_18 
ROOT
HETATM    1  N2  UNL     1      17.791  50.656   6.046  1.00  0.00    -0.258 N 
HETATM    2  N3  UNL     1      16.674  51.368   5.645  1.00  0.00    -0.299 N 
ATOM      3  H3  UNL     1      15.720  51.013   5.570  1.00  0.00     0.187 HD
HETATM    4  C2  UNL     1      17.075  52.576   5.384  1.00  0.00     0.038 C 
HETATM    5  C9  UNL     1      18.561  52.797   5.493  1.00  0.00     0.091 C 
HETATM    6  C10 UNL     1      18.979  51.513   6.201  1.00  0.00     0.150 C 
ENDROOT
BRANCH   6   7
HETATM    7  C11 UNL     1      19.376  51.806   7.649  1.00  0.00    -0.022 A 
HETATM    8  C12 UNL     1      19.742  50.747   8.503  1.00  0.00     0.010 A 
HETATM    9  C13 UNL     1      20.080  50.977   9.832  1.00  0.00     0.002 A 
HETATM   10  C14 UNL     1      20.047  52.271  10.339  1.00  0.00     0.012 A 
HETATM   11  C15 UNL     1      19.673  53.351   9.530  1.00  0.00    -0.025 A 
HETATM   12  C16 UNL     1      19.638  54.645  10.076  1.00  0.00     0.012 A 
HETATM   13  C20 UNL     1      19.327  53.137   8.170  1.00  0.00    -0.018 A 
HETATM   14  C17 UNL     1      19.264  55.742   9.304  1.00  0.00     0.001 A 
HETATM   15  C18 UNL     1      18.918  55.556   7.973  1.00  0.00     0.001 A 
HETATM   16  C19 UNL     1      18.948  54.275   7.416  1.00  0.00     0.013 A 
ENDBRANCH   6   7
BRANCH   1  17
HETATM   17  C1  UNL     1      17.718  49.284   6.215  1.00  0.00     0.187 C 
HETATM   18  S1  UNL     1      18.991  48.216   6.329  1.00  0.00    -0.040 SA
BRANCH  17  19
HETATM   19  N1  UNL     1      16.442  48.808   6.285  1.00  0.00    -0.375 N 
HETATM   20  H1  UNL     1      15.701  49.468   6.088  1.00  0.00     0.158 HD
HETATM   21  H2  UNL     1      16.258  47.816   6.317  1.00  0.00     0.158 HD
ENDBRANCH  17  19
ENDBRANCH   1  17
BRANCH   4  22
HETATM   22  C3  UNL     1      16.152  53.656   4.959  1.00  0.00    -0.010 A 
HETATM   23  C4  UNL     1      14.774  53.565   5.171  1.00  0.00     0.015 A 
HETATM   24  C5  UNL     1      13.933  54.602   4.757  1.00  0.00     0.026 A 
HETATM   25  C6  UNL     1      14.462  55.735   4.132  1.00  0.00     0.055 A 
HETATM   26 CL1  UNL     1      13.361  56.975   3.649  1.00  0.00    -0.083 Cl
HETATM   27  C7  UNL     1      15.841  55.830   3.920  1.00  0.00     0.056 A 
HETATM   28 CL2  UNL     1      16.568  57.198   3.155  1.00  0.00    -0.083 Cl
HETATM   29  C8  UNL     1      16.683  54.792   4.334  1.00  0.00     0.039 A 
ENDBRANCH   4  22
TORSDOF 4
ENDMDL
MODEL 2
REMARK minimizedAffinity -7.00698853
REMARK CNNscore 0.512435734
REMARK CNNaffinity 5.67285728
REMARK  4 active torsions:
REMARK  status: ('A' for Active; 'I' for Inactive)
REMARK    1  A    between atoms: N1_1  and  C1_2 
REMARK    2  A    between atoms: C1_2  and  N2_4 
REMARK    3  A    between atoms: C2_7  and  C3_8 
REMARK    4  A    between atoms: C10_17  and  C11_18 
ROOT
HETATM    1  N2  UNL     1      13.055  61.264   2.310  1.00  0.00    -0.258 N 
HETATM    2  N3  UNL     1      12.310  61.674   3.402  1.00  0.00    -0.299 N 
ATOM      3  H3  UNL     1      11.452  62.225   3.381  1.00  0.00     0.187 HD
HETATM    4  C2  UNL     1      12.916  61.222   4.459  1.00  0.00     0.038 C 
HETATM    5  C9  UNL     1      14.221  60.516   4.199  1.00  0.00     0.091 C 
HETATM    6  C10 UNL     1      14.145  60.345   2.685  1.00  0.00     0.150 C 
ENDROOT
BRANCH   6   7
HETATM    7  C11 UNL     1      13.901  58.879   2.324  1.00  0.00    -0.022 A 
HETATM    8  C12 UNL     1      13.428  58.543   1.040  1.00  0.00     0.010 A 
HETATM    9  C13 UNL     1      13.170  57.222   0.690  1.00  0.00     0.002 A 
HETATM   10  C14 UNL     1      13.368  56.210   1.621  1.00  0.00     0.012 A 
HETATM   11  C15 UNL     1      13.821  56.500   2.914  1.00  0.00    -0.025 A 
HETATM   12  C16 UNL     1      14.000  55.455   3.836  1.00  0.00     0.012 A 
HETATM   13  C20 UNL     1      14.093  57.842   3.289  1.00  0.00    -0.018 A 
HETATM   14  C17 UNL     1      14.443  55.707   5.132  1.00  0.00     0.001 A 
HETATM   15  C18 UNL     1      14.711  57.011   5.523  1.00  0.00     0.001 A 
HETATM   16  C19 UNL     1      14.539  58.061   4.617  1.00  0.00     0.013 A 
ENDBRANCH   6   7
BRANCH   1  17
HETATM   17  C1  UNL     1      12.765  61.750   1.047  1.00  0.00     0.187 C 
HETATM   18  S1  UNL     1      13.786  62.589   0.033  1.00  0.00    -0.040 SA
BRANCH  17  19
HETATM   19  N1  UNL     1      11.490  61.491   0.640  1.00  0.00    -0.375 N 
HETATM   20  H1  UNL     1      10.867  61.090   1.330  1.00  0.00     0.158 HD
HETATM   21  H2  UNL     1      11.131  61.872  -0.223  1.00  0.00     0.158 HD
ENDBRANCH  17  19
ENDBRANCH   1  17
BRANCH   4  22
HETATM   22  C3  UNL     1      12.396  61.423   5.832  1.00  0.00    -0.010 A 
HETATM   23  C4  UNL     1      12.397  62.683   6.437  1.00  0.00     0.015 A 
HETATM   24  C5  UNL     1      11.899  62.836   7.735  1.00  0.00     0.026 A 
HETATM   25  C6  UNL     1      11.396  61.735   8.434  1.00  0.00     0.055 A 
HETATM   26 CL1  UNL     1      10.798  62.002  10.031  1.00  0.00    -0.083 Cl
HETATM   27  C7  UNL     1      11.392  60.473   7.830  1.00  0.00     0.056 A 
HETATM   28 CL2  UNL     1      10.788  59.067   8.631  1.00  0.00    -0.083 Cl
HETATM   29  C8  UNL     1      11.891  60.320   6.533  1.00  0.00     0.039 A 
ENDBRANCH   4  22
TORSDOF 4
ENDMDL
MODEL 3
REMARK minimizedAffinity -6.35496807
REMARK CNNscore 0.45031777
REMARK CNNaffinity 5.817976
REMARK  4 active torsions:
REMARK  status: ('A' for Active; 'I' for Inactive)
REMARK    1  A    between atoms: N1_1  and  C1_2 
REMARK    2  A    between atoms: C1_2  and  N2_4 
REMARK    3  A    between atoms: C2_7  and  C3_8 
REMARK    4  A    between atoms: C10_17  and  C11_18 
ROOT
HETATM    1  N2  UNL     1      17.283  51.540   5.555  1.00  0.00    -0.258 N 
HETATM    2  N3  UNL     1      16.210  52.377   5.304  1.00  0.00    -0.299 N 
ATOM      3  H3  UNL     1      15.226  52.111   5.266  1.00  0.00     0.187 HD
HETATM    4  C2  UNL     1      16.700  53.568   5.125  1.00  0.00     0.038 C 
HETATM    5  C9  UNL     1      18.203  53.654   5.144  1.00  0.00     0.091 C 
HETATM    6  C10 UNL     1      18.551  52.277   5.700  1.00  0.00     0.150 C 
ENDROOT
BRANCH   6   7
HETATM    7  C11 UNL     1      19.065  52.395   7.136  1.00  0.00    -0.022 A 
HETATM    8  C12 UNL     1      18.932  53.614   7.831  1.00  0.00     0.010 A 
HETATM    9  C13 UNL     1      19.413  53.762   9.127  1.00  0.00     0.002 A 
HETATM   10  C14 UNL     1      20.051  52.696   9.752  1.00  0.00     0.012 A 
HETATM   11  C15 UNL     1      20.220  51.472   9.093  1.00  0.00    -0.025 A 
HETATM   12  C16 UNL     1      20.879  50.419   9.748  1.00  0.00     0.012 A 
HETATM   13  C20 UNL     1      19.732  51.301   7.771  1.00  0.00    -0.018 A 
HETATM   14  C17 UNL     1      21.071  49.190   9.122  1.00  0.00     0.001 A 
HETATM   15  C18 UNL     1      20.606  49.001   7.828  1.00  0.00     0.001 A 
HETATM   16  C19 UNL     1      19.948  50.039   7.164  1.00  0.00     0.013 A 
ENDBRANCH   6   7
BRANCH   1  17
HETATM   17  C1  UNL     1      17.099  50.168   5.604  1.00  0.00     0.187 C 
HETATM   18  S1  UNL     1      17.620  49.044   4.491  1.00  0.00    -0.040 SA
BRANCH  17  19
HETATM   19  N1  UNL     1      16.407  49.747   6.700  1.00  0.00    -0.375 N 
HETATM   20  H1  UNL     1      16.003  50.468   7.286  1.00  0.00     0.158 HD
HETATM   21  H2  UNL     1      16.131  48.782   6.803  1.00  0.00     0.158 HD
ENDBRANCH  17  19
ENDBRANCH   1  17
BRANCH   4  22
HETATM   22  C3  UNL     1      15.851  54.756   4.868  1.00  0.00    -0.010 A 
HETATM   23  C4  UNL     1      14.522  54.630   4.457  1.00  0.00     0.015 A 
HETATM   24  C5  UNL     1      13.750  55.773   4.223  1.00  0.00     0.026 A 
HETATM   25  C6  UNL     1      14.300  57.045   4.401  1.00  0.00     0.055 A 
HETATM   26 CL1  UNL     1      13.287  58.409   4.094  1.00  0.00    -0.083 Cl
HETATM   27  C7  UNL     1      15.630  57.175   4.814  1.00  0.00     0.056 A 
HETATM   28 CL2  UNL     1      16.378  58.713   5.055  1.00  0.00    -0.083 Cl
HETATM   29  C8  UNL     1      16.402  56.032   5.048  1.00  0.00     0.039 A 
ENDBRANCH   4  22
TORSDOF 4
ENDMDL
MODEL 4
REMARK minimizedAffinity -5.99844885
REMARK CNNscore 0.388106585
REMARK CNNaffinity 5.36486864
REMARK  4 active torsions:
REMARK  status: ('A' for Active; 'I' for Inactive)
REMARK    1  A    between atoms: N1_1  and  C1_2 
REMARK    2  A    between atoms: C1_2  and  N2_4 
REMARK    3  A    between atoms: C2_7  and  C3_8 
REMARK    4  A    between atoms: C10_17  and  C11_18 
ROOT
HETATM    1  N2  UNL     1      -3.381  36.392  -6.566  1.00  0.00    -0.258 N 
HETATM    2  N3  UNL     1      -3.482  35.468  -7.591  1.00  0.00    -0.299 N 
ATOM      3  H3  UNL     1      -3.658  34.468  -7.495  1.00  0.00     0.187 HD
HETATM    4  C2  UNL     1      -3.310  36.121  -8.701  1.00  0.00     0.038 C 
HETATM    5  C9  UNL     1      -2.972  37.580  -8.541  1.00  0.00     0.091 C 
HETATM    6  C10 UNL     1      -3.287  37.776  -7.062  1.00  0.00     0.150 C 
ENDROOT
BRANCH   6   7
HETATM    7  C11 UNL     1      -4.559  38.607  -6.892  1.00  0.00    -0.022 A 
HETATM    8  C12 UNL     1      -5.681  38.048  -6.248  1.00  0.00     0.010 A 
HETATM    9  C13 UNL     1      -6.861  38.768  -6.102  1.00  0.00     0.002 A 
HETATM   10  C14 UNL     1      -6.950  40.059  -6.608  1.00  0.00     0.012 A 
HETATM   11  C15 UNL     1      -5.865  40.648  -7.270  1.00  0.00    -0.025 A 
HETATM   12  C16 UNL     1      -5.991  41.951  -7.781  1.00  0.00     0.012 A 
HETATM   13  C20 UNL     1      -4.651  39.930  -7.426  1.00  0.00    -0.018 A 
HETATM   14  C17 UNL     1      -4.936  42.565  -8.451  1.00  0.00     0.001 A 
HETATM   15  C18 UNL     1      -3.740  41.882  -8.619  1.00  0.00     0.001 A 
HETATM   16  C19 UNL     1      -3.600  40.586  -8.116  1.00  0.00     0.013 A 
ENDBRANCH   6   7
BRANCH   1  17
HETATM   17  C1  UNL     1      -3.336  35.967  -5.248  1.00  0.00     0.187 C 
HETATM   18  S1  UNL     1      -2.939  36.878  -3.912  1.00  0.00    -0.040 SA
BRANCH  17  19
HETATM   19  N1  UNL     1      -3.655  34.652  -5.085  1.00  0.00    -0.375 N 
HETATM   20  H1  UNL     1      -3.768  34.105  -5.930  1.00  0.00     0.158 HD
HETATM   21  H2  UNL     1      -3.570  34.203  -4.186  1.00  0.00     0.158 HD
ENDBRANCH  17  19
ENDBRANCH   1  17
BRANCH   4  22
HETATM   22  C3  UNL     1      -3.387  35.478 -10.034  1.00  0.00    -0.010 A 
HETATM   23  C4  UNL     1      -2.676  35.977 -11.129  1.00  0.00     0.015 A 
HETATM   24  C5  UNL     1      -2.772  35.345 -12.373  1.00  0.00     0.026 A 
HETATM   25  C6  UNL     1      -3.576  34.212 -12.529  1.00  0.00     0.055 A 
HETATM   26 CL1  UNL     1      -3.645  33.485 -14.094  1.00  0.00    -0.083 Cl
HETATM   27  C7  UNL     1      -4.288  33.709 -11.435  1.00  0.00     0.056 A 
HETATM   28 CL2  UNL     1      -5.301  32.315 -11.552  1.00  0.00    -0.083 Cl
HETATM   29  C8  UNL     1      -4.191  34.341 -10.191  1.00  0.00     0.039 A 
ENDBRANCH   4  22
TORSDOF 4
ENDMDL
MODEL 5
REMARK minimizedAffinity -5.89974928
REMARK CNNscore 0.276223004
REMARK CNNaffinity 4.99221563
REMARK  4 active torsions:
REMARK  status: ('A' for Active; 'I' for Inactive)
REMARK    1  A    between atoms: N1_1  and  C1_2 
REMARK    2  A    between atoms: C1_2  and  N2_4 
REMARK    3  A    between atoms: C2_7  and  C3_8 
REMARK    4  A    between atoms: C10_17  and  C11_18 
ROOT
HETATM    1  N2  UNL     1       0.463  68.743  -0.925  1.00  0.00    -0.258 N 
HETATM    2  N3  UNL     1       1.200  69.909  -0.815  1.00  0.00    -0.299 N 
ATOM      3  H3  UNL     1       1.566  70.320   0.044  1.00  0.00     0.187 HD
HETATM    4  C2  UNL     1       1.336  70.380  -2.018  1.00  0.00     0.038 C 
HETATM    5  C9  UNL     1       0.610  69.616  -3.094  1.00  0.00     0.091 C 
HETATM    6  C10 UNL     1       0.236  68.351  -2.327  1.00  0.00     0.150 C 
ENDROOT
BRANCH   6   7
HETATM    7  C11 UNL     1       1.076  67.167  -2.808  1.00  0.00    -0.022 A 
HETATM    8  C12 UNL     1       2.331  67.396  -3.406  1.00  0.00     0.010 A 
HETATM    9  C13 UNL     1       3.107  66.343  -3.878  1.00  0.00     0.002 A 
HETATM   10  C14 UNL     1       2.638  65.038  -3.774  1.00  0.00     0.012 A 
HETATM   11  C15 UNL     1       1.389  64.767  -3.202  1.00  0.00    -0.025 A 
HETATM   12  C16 UNL     1       0.938  63.439  -3.122  1.00  0.00     0.012 A 
HETATM   13  C20 UNL     1       0.584  65.828  -2.711  1.00  0.00    -0.018 A 
HETATM   14  C17 UNL     1      -0.302  63.132  -2.566  1.00  0.00     0.001 A 
HETATM   15  C18 UNL     1      -1.107  64.153  -2.083  1.00  0.00     0.001 A 
HETATM   16  C19 UNL     1      -0.672  65.479  -2.155  1.00  0.00     0.013 A 
ENDBRANCH   6   7
BRANCH   1  17
HETATM   17  C1  UNL     1      -0.006  68.106   0.211  1.00  0.00     0.187 C 
HETATM   18  S1  UNL     1      -1.589  67.985   0.714  1.00  0.00    -0.040 SA
BRANCH  17  19
HETATM   19  N1  UNL     1       0.977  67.539   0.966  1.00  0.00    -0.375 N 
HETATM   20  H1  UNL     1       1.931  67.740   0.694  1.00  0.00     0.158 HD
HETATM   21  H2  UNL     1       0.770  67.125   1.863  1.00  0.00     0.158 HD
ENDBRANCH  17  19
ENDBRANCH   1  17
BRANCH   4  22
HETATM   22  C3  UNL     1       2.107  71.610  -2.319  1.00  0.00    -0.010 A 
HETATM   23  C4  UNL     1       2.439  71.963  -3.630  1.00  0.00     0.015 A 
HETATM   24  C5  UNL     1       3.168  73.131  -3.877  1.00  0.00     0.026 A 
HETATM   25  C6  UNL     1       3.568  73.952  -2.818  1.00  0.00     0.055 A 
HETATM   26 CL1  UNL     1       4.465  75.377  -3.200  1.00  0.00    -0.083 Cl
HETATM   27  C7  UNL     1       3.236  73.602  -1.505  1.00  0.00     0.056 A 
HETATM   28 CL2  UNL     1       3.695  74.566  -0.147  1.00  0.00    -0.083 Cl
HETATM   29  C8  UNL     1       2.507  72.434  -1.258  1.00  0.00     0.039 A 
ENDBRANCH   4  22
TORSDOF 4
ENDMDL
MODEL 6
REMARK minimizedAffinity -6.59691048
REMARK CNNscore 0.275043786
REMARK CNNaffinity 5.38164759
REMARK  4 active torsions:
REMARK  status: ('A' for Active; 'I' for Inactive)
REMARK    1  A    between atoms: N1_1  and  C1_2 
REMARK    2  A    between atoms: C1_2  and  N2_4 
REMARK    3  A    between atoms: C2_7  and  C3_8 
REMARK    4  A    between atoms: C10_17  and  C11_18 
ROOT
HETATM    1  N2  UNL     1       0.802  67.095  -5.843  1.00  0.00    -0.258 N 
HETATM    2  N3  UNL     1       2.159  67.252  -6.066  1.00  0.00    -0.299 N 
ATOM      3  H3  UNL     1       2.701  68.107  -5.946  1.00  0.00     0.187 HD
HETATM    4  C2  UNL     1       2.608  66.097  -6.458  1.00  0.00     0.038 C 
HETATM    5  C9  UNL     1       1.563  65.028  -6.637  1.00  0.00     0.091 C 
HETATM    6  C10 UNL     1       0.371  65.691  -5.955  1.00  0.00     0.150 C 
ENDROOT
BRANCH   6   7
HETATM    7  C11 UNL     1       0.069  65.004  -4.622  1.00  0.00    -0.022 A 
HETATM    8  C12 UNL     1       1.068  64.242  -3.983  1.00  0.00     0.010 A 
HETATM    9  C13 UNL     1       0.816  63.583  -2.785  1.00  0.00     0.002 A 
HETATM   10  C14 UNL     1      -0.445  63.660  -2.206  1.00  0.00     0.012 A 
HETATM   11  C15 UNL     1      -1.473  64.392  -2.815  1.00  0.00    -0.025 A 
HETATM   12  C16 UNL     1      -2.740  64.441  -2.210  1.00  0.00     0.012 A 
HETATM   13  C20 UNL     1      -1.234  65.075  -4.037  1.00  0.00    -0.018 A 
HETATM   14  C17 UNL     1      -3.787  65.153  -2.790  1.00  0.00     0.001 A 
HETATM   15  C18 UNL     1      -3.578  65.825  -3.986  1.00  0.00     0.001 A 
HETATM   16  C19 UNL     1      -2.323  65.786  -4.599  1.00  0.00     0.013 A 
ENDBRANCH   6   7
BRANCH   1  17
HETATM   17  C1  UNL     1       0.006  68.201  -5.594  1.00  0.00     0.187 C 
HETATM   18  S1  UNL     1      -0.106  69.058  -4.170  1.00  0.00    -0.040 SA
BRANCH  17  19
HETATM   19  N1  UNL     1      -0.751  68.582  -6.661  1.00  0.00    -0.375 N 
HETATM   20  H1  UNL     1      -0.748  67.965  -7.463  1.00  0.00     0.158 HD
HETATM   21  H2  UNL     1      -1.438  69.317  -6.576  1.00  0.00     0.158 HD
ENDBRANCH  17  19
ENDBRANCH   1  17
BRANCH   4  22
HETATM   22  C3  UNL     1       4.039  65.850  -6.759  1.00  0.00    -0.010 A 
HETATM   23  C4  UNL     1       4.620  66.286  -7.953  1.00  0.00     0.015 A 
HETATM   24  C5  UNL     1       5.973  66.036  -8.204  1.00  0.00     0.026 A 
HETATM   25  C6  UNL     1       6.751  65.352  -7.266  1.00  0.00     0.055 A 
HETATM   26 CL1  UNL     1       8.414  65.080  -7.646  1.00  0.00    -0.083 Cl
HETATM   27  C7  UNL     1       6.173  64.916  -6.069  1.00  0.00     0.056 A 
HETATM   28 CL2  UNL     1       7.071  64.066  -4.863  1.00  0.00    -0.083 Cl
HETATM   29  C8  UNL     1       4.820  65.166  -5.818  1.00  0.00     0.039 A 
ENDBRANCH   4  22
TORSDOF 4
ENDMDL
MODEL 7
REMARK minimizedAffinity -6.85564089
REMARK CNNscore 0.272723973
REMARK CNNaffinity 5.35562897
REMARK  4 active torsions:
REMARK  status: ('A' for Active; 'I' for Inactive)
REMARK    1  A    between atoms: N1_1  and  C1_2 
REMARK    2  A    between atoms: C1_2  and  N2_4 
REMARK    3  A    between atoms: C2_7  and  C3_8 
REMARK    4  A    between atoms: C10_17  and  C11_18 
ROOT
HETATM    1  N2  UNL     1      14.182  53.705  -2.698  1.00  0.00    -0.258 N 
HETATM    2  N3  UNL     1      14.032  52.489  -2.055  1.00  0.00    -0.299 N 
ATOM      3  H3  UNL     1      14.631  52.110  -1.321  1.00  0.00     0.187 HD
HETATM    4  C2  UNL     1      12.980  51.924  -2.567  1.00  0.00     0.038 C 
HETATM    5  C9  UNL     1      12.338  52.672  -3.706  1.00  0.00     0.091 C 
HETATM    6  C10 UNL     1      13.050  54.015  -3.588  1.00  0.00     0.150 C 
ENDROOT
BRANCH   6   7
HETATM    7  C11 UNL     1      12.091  55.083  -3.060  1.00  0.00    -0.022 A 
HETATM    8  C12 UNL     1      11.997  55.316  -1.673  1.00  0.00     0.010 A 
HETATM    9  C13 UNL     1      11.115  56.261  -1.159  1.00  0.00     0.002 A 
HETATM   10  C14 UNL     1      10.298  56.983  -2.020  1.00  0.00     0.012 A 
HETATM   11  C15 UNL     1      10.346  56.772  -3.404  1.00  0.00    -0.025 A 
HETATM   12  C16 UNL     1       9.499  57.510  -4.247  1.00  0.00     0.012 A 
HETATM   13  C20 UNL     1      11.242  55.815  -3.948  1.00  0.00    -0.018 A 
HETATM   14  C17 UNL     1       9.514  57.322  -5.626  1.00  0.00     0.001 A 
HETATM   15  C18 UNL     1      10.379  56.389  -6.180  1.00  0.00     0.001 A 
HETATM   16  C19 UNL     1      11.228  55.648  -5.355  1.00  0.00     0.013 A 
ENDBRANCH   6   7
BRANCH   1  17
HETATM   17  C1  UNL     1      15.326  54.460  -2.500  1.00  0.00     0.187 C 
HETATM   18  S1  UNL     1      15.643  55.981  -3.101  1.00  0.00    -0.040 SA
BRANCH  17  19
HETATM   19  N1  UNL     1      16.264  53.842  -1.728  1.00  0.00    -0.375 N 
HETATM   20  H1  UNL     1      16.086  52.875  -1.487  1.00  0.00     0.158 HD
HETATM   21  H2  UNL     1      17.175  54.252  -1.587  1.00  0.00     0.158 HD
ENDBRANCH  17  19
ENDBRANCH   1  17
BRANCH   4  22
HETATM   22  C3  UNL     1      12.466  50.612  -2.105  1.00  0.00    -0.010 A 
HETATM   23  C4  UNL     1      11.097  50.375  -1.956  1.00  0.00     0.015 A 
HETATM   24  C5  UNL     1      10.647  49.125  -1.517  1.00  0.00     0.026 A 
HETATM   25  C6  UNL     1      11.560  48.107  -1.227  1.00  0.00     0.055 A 
HETATM   26 CL1  UNL     1      10.931  46.591  -0.691  1.00  0.00    -0.083 Cl
HETATM   27  C7  UNL     1      12.932  48.342  -1.377  1.00  0.00     0.056 A 
HETATM   28 CL2  UNL     1      14.119  47.133  -1.038  1.00  0.00    -0.083 Cl
HETATM   29  C8  UNL     1      13.381  49.591  -1.815  1.00  0.00     0.039 A 
ENDBRANCH   4  22
TORSDOF 4
ENDMDL
MODEL 8
REMARK minimizedAffinity -5.72486019
REMARK CNNscore 0.270611167
REMARK CNNaffinity 4.82369614
REMARK  4 active torsions:
REMARK  status: ('A' for Active; 'I' for Inactive)
REMARK    1  A    between atoms: N1_1  and  C1_2 
REMARK    2  A    between atoms: C1_2  and  N2_4 
REMARK    3  A    between atoms: C2_7  and  C3_8 
REMARK    4  A    between atoms: C10_17  and  C11_18 
ROOT
HETATM    1  N2  UNL     1      -4.797  36.369  -5.937  1.00  0.00    -0.258 N 
HETATM    2  N3  UNL     1      -4.731  35.689  -7.140  1.00  0.00    -0.299 N 
ATOM      3  H3  UNL     1      -4.036  34.993  -7.409  1.00  0.00     0.187 HD
HETATM    4  C2  UNL     1      -5.726  36.111  -7.862  1.00  0.00     0.038 C 
HETATM    5  C9  UNL     1      -6.542  37.217  -7.247  1.00  0.00     0.091 C 
HETATM    6  C10 UNL     1      -6.020  37.182  -5.815  1.00  0.00     0.150 C 
ENDROOT
BRANCH   6   7
HETATM    7  C11 UNL     1      -7.080  36.609  -4.874  1.00  0.00    -0.022 A 
HETATM    8  C12 UNL     1      -7.802  35.458  -5.248  1.00  0.00     0.010 A 
HETATM    9  C13 UNL     1      -8.791  34.929  -4.426  1.00  0.00     0.002 A 
HETATM   10  C14 UNL     1      -9.091  35.548  -3.219  1.00  0.00     0.012 A 
HETATM   11  C15 UNL     1      -8.411  36.705  -2.815  1.00  0.00    -0.025 A 
HETATM   12  C16 UNL     1      -8.745  37.314  -1.594  1.00  0.00     0.012 A 
HETATM   13  C20 UNL     1      -7.395  37.257  -3.638  1.00  0.00    -0.018 A 
HETATM   14  C17 UNL     1      -8.095  38.468  -1.164  1.00  0.00     0.001 A 
HETATM   15  C18 UNL     1      -7.101  39.028  -1.954  1.00  0.00     0.001 A 
HETATM   16  C19 UNL     1      -6.757  38.434  -3.170  1.00  0.00     0.013 A 
ENDBRANCH   6   7
BRANCH   1  17
HETATM   17  C1  UNL     1      -3.759  36.271  -5.025  1.00  0.00     0.187 C 
HETATM   18  S1  UNL     1      -3.212  37.460  -3.995  1.00  0.00    -0.040 SA
BRANCH  17  19
HETATM   19  N1  UNL     1      -3.153  35.051  -5.014  1.00  0.00    -0.375 N 
HETATM   20  H1  UNL     1      -3.432  34.400  -5.737  1.00  0.00     0.158 HD
HETATM   21  H2  UNL     1      -2.327  34.885  -4.458  1.00  0.00     0.158 HD
ENDBRANCH  17  19
ENDBRANCH   1  17
BRANCH   4  22
HETATM   22  C3  UNL     1      -6.018  35.583  -9.216  1.00  0.00    -0.010 A 
HETATM   23  C4  UNL     1      -7.188  35.927  -9.898  1.00  0.00     0.015 A 
HETATM   24  C5  UNL     1      -7.432  35.410 -11.175  1.00  0.00     0.026 A 
HETATM   25  C6  UNL     1      -6.509  34.552 -11.778  1.00  0.00     0.055 A 
HETATM   26 CL1  UNL     1      -6.877  33.954 -13.355  1.00  0.00    -0.083 Cl
HETATM   27  C7  UNL     1      -5.335  34.207 -11.098  1.00  0.00     0.056 A 
HETATM   28 CL2  UNL     1      -4.148  33.152 -11.779  1.00  0.00    -0.083 Cl
HETATM   29  C8  UNL     1      -5.091  34.724  -9.822  1.00  0.00     0.039 A 
ENDBRANCH   4  22
TORSDOF 4
ENDMDL
MODEL 9
REMARK minimizedAffinity -6.27926922
REMARK CNNscore 0.226097152
REMARK CNNaffinity 4.90901709
REMARK  4 active torsions:
REMARK  status: ('A' for Active; 'I' for Inactive)
REMARK    1  A    between atoms: N1_1  and  C1_2 
REMARK    2  A    between atoms: C1_2  and  N2_4 
REMARK    3  A    between atoms: C2_7  and  C3_8 
REMARK    4  A    between atoms: C10_17  and  C11_18 
ROOT
HETATM    1  N2  UNL     1      14.012  61.867   6.238  1.00  0.00    -0.258 N 
HETATM    2  N3  UNL     1      14.408  60.870   5.363  1.00  0.00    -0.299 N 
ATOM      3  H3  UNL     1      15.342  60.469   5.280  1.00  0.00     0.187 HD
HETATM    4  C2  UNL     1      13.359  60.545   4.669  1.00  0.00     0.038 C 
HETATM    5  C9  UNL     1      12.128  61.370   4.939  1.00  0.00     0.091 C 
HETATM    6  C10 UNL     1      12.557  62.096   6.210  1.00  0.00     0.150 C 
ENDROOT
BRANCH   6   7
HETATM    7  C11 UNL     1      11.797  61.549   7.420  1.00  0.00    -0.022 A 
HETATM    8  C12 UNL     1      11.238  60.257   7.371  1.00  0.00     0.010 A 
HETATM    9  C13 UNL     1      10.519  59.741   8.443  1.00  0.00     0.002 A 
HETATM   10  C14 UNL     1      10.330  60.514   9.583  1.00  0.00     0.012 A 
HETATM   11  C15 UNL     1      10.853  61.810   9.668  1.00  0.00    -0.025 A 
HETATM   12  C16 UNL     1      10.636  62.570  10.830  1.00  0.00     0.012 A 
HETATM   13  C20 UNL     1      11.594  62.352   8.585  1.00  0.00    -0.018 A 
HETATM   14  C17 UNL     1      11.135  63.864  10.947  1.00  0.00     0.001 A 
HETATM   15  C18 UNL     1      11.859  64.416   9.900  1.00  0.00     0.001 A 
HETATM   16  C19 UNL     1      12.084  63.674   8.739  1.00  0.00     0.013 A 
ENDBRANCH   6   7
BRANCH   1  17
HETATM   17  C1  UNL     1      14.956  62.551   6.986  1.00  0.00     0.187 C 
HETATM   18  S1  UNL     1      15.545  64.083   6.702  1.00  0.00    -0.040 SA
BRANCH  17  19
HETATM   19  N1  UNL     1      15.422  61.847   8.056  1.00  0.00    -0.375 N 
HETATM   20  H1  UNL     1      15.133  60.879   8.122  1.00  0.00     0.158 HD
HETATM   21  H2  UNL     1      16.177  62.202   8.623  1.00  0.00     0.158 HD
ENDBRANCH  17  19
ENDBRANCH   1  17
BRANCH   4  22
HETATM   22  C3  UNL     1      13.373  59.474   3.644  1.00  0.00    -0.010 A 
HETATM   23  C4  UNL     1      13.328  59.768   2.279  1.00  0.00     0.015 A 
HETATM   24  C5  UNL     1      13.342  58.732   1.339  1.00  0.00     0.026 A 
HETATM   25  C6  UNL     1      13.403  57.400   1.757  1.00  0.00     0.055 A 
HETATM   26 CL1  UNL     1      13.417  56.175   0.540  1.00  0.00    -0.083 Cl
HETATM   27  C7  UNL     1      13.449  57.102   3.123  1.00  0.00     0.056 A 
HETATM   28 CL2  UNL     1      13.525  55.481   3.715  1.00  0.00    -0.083 Cl
HETATM   29  C8  UNL     1      13.435  58.138   4.063  1.00  0.00     0.039 A 
ENDBRANCH   4  22
TORSDOF 4
ENDMDL
