MODEL 1
REMARK minimizedAffinity -6.13047218
REMARK  4 active torsions:
REMARK  status: ('A' for Active; 'I' for Inactive)
REMARK    1  A    between atoms: C2_3  and  C10_12 
REMARK    2  A    between atoms: C3_4  and  C4_5 
REMARK    3  A    between atoms: C7_8  and  O1_9 
REMARK    4  A    between atoms: C10_12  and  O3_14 
ROOT
HETATM    1  N1  UNL     1       9.628  32.162  -3.564  1.00  0.00    -0.191 NA
HETATM    2  C1  UNL     1       8.966  31.291  -3.954  1.00  0.00     0.106 C 
HETATM    3  C2  UNL     1       8.160  30.212  -4.410  1.00  0.00     0.118 C 
HETATM    4  C3  UNL     1       8.270  28.951  -3.946  1.00  0.00     0.041 C 
ENDROOT
BRANCH   3   5
HETATM    5  C10 UNL     1       7.152  30.445  -5.466  1.00  0.00     0.187 C 
HETATM    6  O2  UNL     1       7.369  30.562  -6.660  1.00  0.00    -0.645 OA
BRANCH   5   7
HETATM    7  O3  UNL     1       5.897  30.522  -4.991  1.00  0.00    -0.772 OA
HETATM    8  H7  UNL     1       5.337  30.674  -5.782  1.00  0.00     0.167 HD
ENDBRANCH   5   7
ENDBRANCH   3   5
BRANCH   4   9
HETATM    9  C4  UNL     1       9.208  28.493  -2.913  1.00  0.00    -0.034 A 
HETATM   10  C5  UNL     1      10.261  27.645  -3.279  1.00  0.00     0.014 A 
HETATM   11  C6  UNL     1      11.158  27.173  -2.315  1.00  0.00     0.037 A 
HETATM   12  C7  UNL     1      10.992  27.547  -0.987  1.00  0.00     0.065 A 
HETATM   13  C8  UNL     1       9.944  28.378  -0.606  1.00  0.00     0.037 A 
HETATM   14  C9  UNL     1       9.049  28.848  -1.569  1.00  0.00     0.014 A 
BRANCH  12  15
HETATM   15  O1  UNL     1      11.841  27.111  -0.014  1.00  0.00    -0.361 OA
HETATM   16  H4  UNL     1      12.534  26.570  -0.424  1.00  0.00     0.217 HD
ENDBRANCH  12  15
ENDBRANCH   4   9
TORSDOF 4
ENDMDL
MODEL 2
REMARK minimizedAffinity -5.68257952
REMARK  4 active torsions:
REMARK  status: ('A' for Active; 'I' for Inactive)
REMARK    1  A    between atoms: C2_3  and  C10_12 
REMARK    2  A    between atoms: C3_4  and  C4_5 
REMARK    3  A    between atoms: C7_8  and  O1_9 
REMARK    4  A    between atoms: C10_12  and  O3_14 
ROOT
HETATM    1  N1  UNL     1       8.312  36.667  18.041  1.00  0.00    -0.191 NA
HETATM    2  C1  UNL     1       9.273  36.060  18.277  1.00  0.00     0.106 C 
HETATM    3  C2  UNL     1      10.437  35.305  18.587  1.00  0.00     0.118 C 
HETATM    4  C3  UNL     1      10.679  34.770  19.801  1.00  0.00     0.041 C 
ENDROOT
BRANCH   3   5
HETATM    5  C10 UNL     1      11.471  35.094  17.552  1.00  0.00     0.187 C 
HETATM    6  O2  UNL     1      12.386  34.289  17.598  1.00  0.00    -0.645 OA
BRANCH   5   7
HETATM    7  O3  UNL     1      11.325  35.899  16.486  1.00  0.00    -0.772 OA
HETATM    8  H7  UNL     1      12.062  35.659  15.885  1.00  0.00     0.167 HD
ENDBRANCH   5   7
ENDBRANCH   3   5
BRANCH   4   9
HETATM    9  C4  UNL     1       9.800  34.865  20.973  1.00  0.00    -0.034 A 
HETATM   10  C5  UNL     1      10.023  34.012  22.061  1.00  0.00     0.014 A 
HETATM   11  C6  UNL     1       9.190  34.062  23.183  1.00  0.00     0.037 A 
HETATM   12  C7  UNL     1       8.131  34.962  23.208  1.00  0.00     0.065 A 
HETATM   13  C8  UNL     1       7.889  35.806  22.131  1.00  0.00     0.037 A 
HETATM   14  C9  UNL     1       8.721  35.756  21.010  1.00  0.00     0.014 A 
BRANCH  12  15
HETATM   15  O1  UNL     1       7.294  35.045  24.280  1.00  0.00    -0.361 OA
HETATM   16  H4  UNL     1       7.598  34.425  24.962  1.00  0.00     0.217 HD
ENDBRANCH  12  15
ENDBRANCH   4   9
TORSDOF 4
ENDMDL
MODEL 3
REMARK minimizedAffinity -5.62701941
REMARK  4 active torsions:
REMARK  status: ('A' for Active; 'I' for Inactive)
REMARK    1  A    between atoms: C2_3  and  C10_12 
REMARK    2  A    between atoms: C3_4  and  C4_5 
REMARK    3  A    between atoms: C7_8  and  O1_9 
REMARK    4  A    between atoms: C10_12  and  O3_14 
ROOT
HETATM    1  N1  UNL     1      10.019  34.218  20.662  1.00  0.00    -0.191 NA
HETATM    2  C1  UNL     1      10.133  34.794  19.661  1.00  0.00     0.106 C 
HETATM    3  C2  UNL     1      10.294  35.487  18.429  1.00  0.00     0.118 C 
HETATM    4  C3  UNL     1      11.483  35.646  17.813  1.00  0.00     0.041 C 
ENDROOT
BRANCH   3   5
HETATM    5  C10 UNL     1       9.119  36.097  17.772  1.00  0.00     0.187 C 
HETATM    6  O2  UNL     1       8.209  36.692  18.325  1.00  0.00    -0.645 OA
BRANCH   5   7
HETATM    7  O3  UNL     1       9.122  35.946  16.437  1.00  0.00    -0.772 OA
HETATM    8  H7  UNL     1       8.303  36.390  16.131  1.00  0.00     0.167 HD
ENDBRANCH   5   7
ENDBRANCH   3   5
BRANCH   4   9
HETATM    9  C4  UNL     1      12.774  35.137  18.291  1.00  0.00    -0.034 A 
HETATM   10  C5  UNL     1      13.082  35.237  19.654  1.00  0.00     0.014 A 
HETATM   11  C6  UNL     1      14.313  34.782  20.137  1.00  0.00     0.037 A 
HETATM   12  C7  UNL     1      15.234  34.235  19.251  1.00  0.00     0.065 A 
HETATM   13  C8  UNL     1      14.948  34.140  17.894  1.00  0.00     0.037 A 
HETATM   14  C9  UNL     1      13.719  34.595  17.412  1.00  0.00     0.014 A 
BRANCH  12  15
HETATM   15  O1  UNL     1      16.446  33.779  19.677  1.00  0.00    -0.361 OA
HETATM   16  H4  UNL     1      16.496  33.880  20.641  1.00  0.00     0.217 HD
ENDBRANCH  12  15
ENDBRANCH   4   9
TORSDOF 4
ENDMDL
MODEL 4
REMARK minimizedAffinity -5.55326986
REMARK  4 active torsions:
REMARK  status: ('A' for Active; 'I' for Inactive)
REMARK    1  A    between atoms: C2_3  and  C10_12 
REMARK    2  A    between atoms: C3_4  and  C4_5 
REMARK    3  A    between atoms: C7_8  and  O1_9 
REMARK    4  A    between atoms: C10_12  and  O3_14 
ROOT
HETATM    1  N1  UNL     1       8.146  47.278  -2.298  1.00  0.00    -0.191 NA
HETATM    2  C1  UNL     1       9.038  46.704  -1.826  1.00  0.00     0.106 C 
HETATM    3  C2  UNL     1      10.140  46.023  -1.240  1.00  0.00     0.118 C 
HETATM    4  C3  UNL     1      11.340  46.597  -1.021  1.00  0.00     0.041 C 
ENDROOT
BRANCH   3   5
HETATM    5  C10 UNL     1      10.005  44.601  -0.858  1.00  0.00     0.187 C 
HETATM    6  O2  UNL     1       9.068  43.868  -1.123  1.00  0.00    -0.645 OA
BRANCH   5   7
HETATM    7  O3  UNL     1      11.053  44.140  -0.154  1.00  0.00    -0.772 OA
HETATM    8  H7  UNL     1      10.839  43.201   0.030  1.00  0.00     0.167 HD
ENDBRANCH   5   7
ENDBRANCH   3   5
BRANCH   4   9
HETATM    9  C4  UNL     1      11.699  47.986  -1.332  1.00  0.00    -0.034 A 
HETATM   10  C5  UNL     1      10.701  48.968  -1.306  1.00  0.00     0.014 A 
HETATM   11  C6  UNL     1      11.006  50.297  -1.620  1.00  0.00     0.037 A 
HETATM   12  C7  UNL     1      12.309  50.635  -1.967  1.00  0.00     0.065 A 
HETATM   13  C8  UNL     1      13.308  49.669  -2.009  1.00  0.00     0.037 A 
HETATM   14  C9  UNL     1      13.003  48.343  -1.696  1.00  0.00     0.014 A 
BRANCH  12  15
HETATM   15  O1  UNL     1      12.652  51.916  -2.281  1.00  0.00    -0.361 OA
HETATM   16  H4  UNL     1      11.869  52.481  -2.181  1.00  0.00     0.217 HD
ENDBRANCH  12  15
ENDBRANCH   4   9
TORSDOF 4
ENDMDL
MODEL 5
REMARK minimizedAffinity -5.50602484
REMARK  4 active torsions:
REMARK  status: ('A' for Active; 'I' for Inactive)
REMARK    1  A    between atoms: C2_3  and  C10_12 
REMARK    2  A    between atoms: C3_4  and  C4_5 
REMARK    3  A    between atoms: C7_8  and  O1_9 
REMARK    4  A    between atoms: C10_12  and  O3_14 
ROOT
HETATM    1  N1  UNL     1      11.696  34.251  18.143  1.00  0.00    -0.191 NA
HETATM    2  C1  UNL     1      11.631  35.102  18.930  1.00  0.00     0.106 C 
HETATM    3  C2  UNL     1      11.529  36.135  19.902  1.00  0.00     0.118 C 
HETATM    4  C3  UNL     1      10.367  36.508  20.474  1.00  0.00     0.041 C 
ENDROOT
BRANCH   3   5
HETATM    5  C10 UNL     1      12.740  36.874  20.316  1.00  0.00     0.187 C 
HETATM    6  O2  UNL     1      13.120  37.055  21.461  1.00  0.00    -0.645 OA
BRANCH   5   7
HETATM    7  O3  UNL     1      13.441  37.364  19.280  1.00  0.00    -0.772 OA
HETATM    8  H7  UNL     1      14.206  37.822  19.688  1.00  0.00     0.167 HD
ENDBRANCH   5   7
ENDBRANCH   3   5
BRANCH   4   9
HETATM    9  C4  UNL     1       9.048  35.923  20.204  1.00  0.00    -0.034 A 
HETATM   10  C5  UNL     1       8.632  34.812  20.949  1.00  0.00     0.014 A 
HETATM   11  C6  UNL     1       7.391  34.217  20.701  1.00  0.00     0.037 A 
HETATM   12  C7  UNL     1       6.573  34.733  19.702  1.00  0.00     0.065 A 
HETATM   13  C8  UNL     1       6.977  35.828  18.946  1.00  0.00     0.037 A 
HETATM   14  C9  UNL     1       8.217  36.421  19.194  1.00  0.00     0.014 A 
BRANCH  12  15
HETATM   15  O1  UNL     1       5.356  34.186  19.425  1.00  0.00    -0.361 OA
HETATM   16  H4  UNL     1       5.194  33.456  20.045  1.00  0.00     0.217 HD
ENDBRANCH  12  15
ENDBRANCH   4   9
TORSDOF 4
ENDMDL
MODEL 6
REMARK minimizedAffinity -5.48499918
REMARK  4 active torsions:
REMARK  status: ('A' for Active; 'I' for Inactive)
REMARK    1  A    between atoms: C2_3  and  C10_12 
REMARK    2  A    between atoms: C3_4  and  C4_5 
REMARK    3  A    between atoms: C7_8  and  O1_9 
REMARK    4  A    between atoms: C10_12  and  O3_14 
ROOT
HETATM    1  N1  UNL     1      14.084  37.251  19.392  1.00  0.00    -0.191 NA
HETATM    2  C1  UNL     1      13.591  36.839  18.425  1.00  0.00     0.106 C 
HETATM    3  C2  UNL     1      12.963  36.334  17.253  1.00  0.00     0.118 C 
HETATM    4  C3  UNL     1      11.806  35.642  17.266  1.00  0.00     0.041 C 
ENDROOT
BRANCH   3   5
HETATM    5  C10 UNL     1      13.596  36.543  15.934  1.00  0.00     0.187 C 
HETATM    6  O2  UNL     1      14.790  36.669  15.717  1.00  0.00    -0.645 OA
BRANCH   5   7
HETATM    7  O3  UNL     1      12.712  36.587  14.923  1.00  0.00    -0.772 OA
HETATM    8  H7  UNL     1      13.255  36.726  14.119  1.00  0.00     0.167 HD
ENDBRANCH   5   7
ENDBRANCH   3   5
BRANCH   4   9
HETATM    9  C4  UNL     1      11.016  35.308  18.458  1.00  0.00    -0.034 A 
HETATM   10  C5  UNL     1      11.464  34.288  19.307  1.00  0.00     0.014 A 
HETATM   11  C6  UNL     1      10.723  33.932  20.438  1.00  0.00     0.037 A 
HETATM   12  C7  UNL     1       9.532  34.593  20.710  1.00  0.00     0.065 A 
HETATM   13  C8  UNL     1       9.068  35.599  19.871  1.00  0.00     0.037 A 
HETATM   14  C9  UNL     1       9.808  35.955  18.741  1.00  0.00     0.014 A 
BRANCH  12  15
HETATM   15  O1  UNL     1       8.776  34.279  21.800  1.00  0.00    -0.361 OA
HETATM   16  H4  UNL     1       9.233  33.588  22.307  1.00  0.00     0.217 HD
ENDBRANCH  12  15
ENDBRANCH   4   9
TORSDOF 4
ENDMDL
MODEL 7
REMARK minimizedAffinity -5.48109627
REMARK  4 active torsions:
REMARK  status: ('A' for Active; 'I' for Inactive)
REMARK    1  A    between atoms: C2_3  and  C10_12 
REMARK    2  A    between atoms: C3_4  and  C4_5 
REMARK    3  A    between atoms: C7_8  and  O1_9 
REMARK    4  A    between atoms: C10_12  and  O3_14 
ROOT
HETATM    1  N1  UNL     1      17.445  55.941   3.747  1.00  0.00    -0.191 NA
HETATM    2  C1  UNL     1      16.476  55.381   4.056  1.00  0.00     0.106 C 
HETATM    3  C2  UNL     1      15.276  54.708   4.416  1.00  0.00     0.118 C 
HETATM    4  C3  UNL     1      14.044  55.182   4.143  1.00  0.00     0.041 C 
ENDROOT
BRANCH   3   5
HETATM    5  C10 UNL     1      15.346  53.427   5.151  1.00  0.00     0.187 C 
HETATM    6  O2  UNL     1      16.317  52.694   5.234  1.00  0.00    -0.645 OA
BRANCH   5   7
HETATM    7  O3  UNL     1      14.194  53.103   5.762  1.00  0.00    -0.772 OA
HETATM    8  H7  UNL     1      14.375  52.248   6.204  1.00  0.00     0.167 HD
ENDBRANCH   5   7
ENDBRANCH   3   5
BRANCH   4   9
HETATM    9  C4  UNL     1      13.741  56.434   3.439  1.00  0.00    -0.034 A 
HETATM   10  C5  UNL     1      13.621  56.417   2.043  1.00  0.00     0.014 A 
HETATM   11  C6  UNL     1      13.355  57.596   1.340  1.00  0.00     0.037 A 
HETATM   12  C7  UNL     1      13.218  58.790   2.038  1.00  0.00     0.065 A 
HETATM   13  C8  UNL     1      13.346  58.826   3.421  1.00  0.00     0.037 A 
HETATM   14  C9  UNL     1      13.612  57.648   4.123  1.00  0.00     0.014 A 
BRANCH  12  15
HETATM   15  O1  UNL     1      12.959  59.964   1.395  1.00  0.00    -0.361 OA
HETATM   16  H4  UNL     1      12.866  59.785   0.445  1.00  0.00     0.217 HD
ENDBRANCH  12  15
ENDBRANCH   4   9
TORSDOF 4
ENDMDL
MODEL 8
REMARK minimizedAffinity -5.45868492
REMARK  4 active torsions:
REMARK  status: ('A' for Active; 'I' for Inactive)
REMARK    1  A    between atoms: C2_3  and  C10_12 
REMARK    2  A    between atoms: C3_4  and  C4_5 
REMARK    3  A    between atoms: C7_8  and  O1_9 
REMARK    4  A    between atoms: C10_12  and  O3_14 
ROOT
HETATM    1  N1  UNL     1      12.580  36.918  20.590  1.00  0.00    -0.191 NA
HETATM    2  C1  UNL     1      12.279  36.419  19.585  1.00  0.00     0.106 C 
HETATM    3  C2  UNL     1      11.887  35.814  18.360  1.00  0.00     0.118 C 
HETATM    4  C3  UNL     1      10.646  35.342  18.125  1.00  0.00     0.041 C 
ENDROOT
BRANCH   3   5
HETATM    5  C10 UNL     1      12.874  35.658  17.270  1.00  0.00     0.187 C 
HETATM    6  O2  UNL     1      13.973  35.139  17.359  1.00  0.00    -0.645 OA
BRANCH   5   7
HETATM    7  O3  UNL     1      12.449  36.158  16.097  1.00  0.00    -0.772 OA
HETATM    8  H7  UNL     1      13.186  35.991  15.471  1.00  0.00     0.167 HD
ENDBRANCH   5   7
ENDBRANCH   3   5
BRANCH   4   9
HETATM    9  C4  UNL     1       9.519  35.380  19.064  1.00  0.00    -0.034 A 
HETATM   10  C5  UNL     1       8.451  36.251  18.811  1.00  0.00     0.014 A 
HETATM   11  C6  UNL     1       7.373  36.327  19.698  1.00  0.00     0.037 A 
HETATM   12  C7  UNL     1       7.372  35.536  20.841  1.00  0.00     0.065 A 
HETATM   13  C8  UNL     1       8.430  34.676  21.113  1.00  0.00     0.037 A 
HETATM   14  C9  UNL     1       9.507  34.600  20.227  1.00  0.00     0.014 A 
BRANCH  12  15
HETATM   15  O1  UNL     1       6.344  35.577  21.734  1.00  0.00    -0.361 OA
HETATM   16  H4  UNL     1       5.669  36.192  21.404  1.00  0.00     0.217 HD
ENDBRANCH  12  15
ENDBRANCH   4   9
TORSDOF 4
ENDMDL
MODEL 9
REMARK minimizedAffinity -5.2705555
REMARK  4 active torsions:
REMARK  status: ('A' for Active; 'I' for Inactive)
REMARK    1  A    between atoms: C2_3  and  C10_12 
REMARK    2  A    between atoms: C3_4  and  C4_5 
REMARK    3  A    between atoms: C7_8  and  O1_9 
REMARK    4  A    between atoms: C10_12  and  O3_14 
ROOT
HETATM    1  N1  UNL     1      10.237  36.112  17.829  1.00  0.00    -0.191 NA
HETATM    2  C1  UNL     1      10.138  35.432  18.765  1.00  0.00     0.106 C 
HETATM    3  C2  UNL     1      10.043  34.601  19.915  1.00  0.00     0.118 C 
HETATM    4  C3  UNL     1      11.089  33.936  20.443  1.00  0.00     0.041 C 
ENDROOT
BRANCH   3   5
HETATM    5  C10 UNL     1       8.735  34.418  20.580  1.00  0.00     0.187 C 
HETATM    6  O2  UNL     1       7.662  34.245  20.029  1.00  0.00    -0.645 OA
BRANCH   5   7
HETATM    7  O3  UNL     1       8.815  34.455  21.921  1.00  0.00    -0.772 OA
HETATM    8  H7  UNL     1       7.894  34.322  22.232  1.00  0.00     0.167 HD
ENDBRANCH   5   7
ENDBRANCH   3   5
BRANCH   4   9
HETATM    9  C4  UNL     1      12.468  33.962  19.940  1.00  0.00    -0.034 A 
HETATM   10  C5  UNL     1      13.517  34.181  20.842  1.00  0.00     0.014 A 
HETATM   11  C6  UNL     1      14.840  34.234  20.392  1.00  0.00     0.037 A 
HETATM   12  C7  UNL     1      15.106  34.076  19.037  1.00  0.00     0.065 A 
HETATM   13  C8  UNL     1      14.075  33.870  18.127  1.00  0.00     0.037 A 
HETATM   14  C9  UNL     1      12.754  33.817  18.577  1.00  0.00     0.014 A 
BRANCH  12  15
HETATM   15  O1  UNL     1      16.379  34.121  18.552  1.00  0.00    -0.361 OA
HETATM   16  H4  UNL     1      16.992  34.238  19.296  1.00  0.00     0.217 HD
ENDBRANCH  12  15
ENDBRANCH   4   9
TORSDOF 4
ENDMDL
