MODEL 1
REMARK minimizedAffinity -9.65617466
REMARK  6 active torsions:
REMARK  status: ('A' for Active; 'I' for Inactive)
REMARK    1  A    between atoms: C2_2  and  C3_3 
REMARK       I    between atoms: C3_3  and  N1_5 
REMARK    2  A    between atoms: C13_17  and  C14_18 
REMARK    3  A    between atoms: C17_23  and  N4_24 
REMARK    4  A    between atoms: N4_24  and  C18_25 
REMARK    5  A    between atoms: C23_30  and  O3_31 
REMARK    6  A    between atoms: O3_31  and  C24_32 
ROOT
HETATM    1  C3  UNL     1       7.955   9.122  13.076  1.00  0.00     0.242 C 
HETATM    2  O1  UNL     1       8.558  10.008  12.473  1.00  0.00    -0.268 OA
HETATM    3  N1  UNL     1       6.588   8.929  12.974  1.00  0.00    -0.349 N 
HETATM    4  C4  UNL     1       5.768   8.182  13.923  1.00  0.00     0.127 C 
HETATM    5  C5  UNL     1       4.803   7.243  13.197  1.00  0.00     0.037 C 
HETATM    6  C6  UNL     1       4.253   7.837  11.869  1.00  0.00     0.022 C 
HETATM    7  C7  UNL     1       4.407   9.373  11.865  1.00  0.00     0.037 C 
HETATM    8  C8  UNL     1       5.866   9.795  12.048  1.00  0.00     0.127 C 
HETATM    9  C9  UNL     1       5.034   7.229  10.648  1.00  0.00     0.139 C 
HETATM   10  N2  UNL     1       4.647   5.861  10.312  1.00  0.00    -0.356 N 
HETATM   11  C10 UNL     1       3.326   5.458  10.249  1.00  0.00     0.253 C 
HETATM   12  O2  UNL     1       2.997   4.438   9.657  1.00  0.00    -0.268 OA
HETATM   13  C11 UNL     1       2.396   6.330  10.950  1.00  0.00     0.057 A 
HETATM   14  C12 UNL     1       0.986   6.278  11.059  1.00  0.00     0.051 A 
HETATM   15  C13 UNL     1       0.561   7.331  11.863  1.00  0.00     0.061 A 
HETATM   16  N6  UNL     1       1.703   8.015  12.237  1.00  0.00    -0.356 N 
HETATM   17  C27 UNL     1       2.810   7.422  11.689  1.00  0.00     0.036 A 
HETATM   18  H14 UNL     1       5.250   5.312   9.712  1.00  0.00     0.162 HD
HETATM   19  H30 UNL     1       1.717   8.834  12.828  1.00  0.00     0.166 HD
ENDROOT
BRANCH  15  20
HETATM   20  C14 UNL     1      -0.798   7.695  12.273  1.00  0.00     0.077 A 
HETATM   21  C15 UNL     1      -1.250   8.993  12.343  1.00  0.00     0.050 A 
HETATM   22  C16 UNL     1      -2.550   9.140  12.753  1.00  0.00     0.108 A 
HETATM   23  N3  UNL     1      -3.352   8.110  13.068  1.00  0.00    -0.202 N 
HETATM   24  C17 UNL     1      -2.837   6.875  12.974  1.00  0.00     0.683 A 
ATOM     25  H3  UNL     1      -4.315   8.261  13.368  1.00  0.00     0.183 HD
HETATM   26  N5  UNL     1      -1.576   6.640  12.583  1.00  0.00    -0.189 N 
ATOM     27  H5  UNL     1      -1.215   5.688  12.521  1.00  0.00     0.184 HD
BRANCH  24  28
HETATM   28  N4  UNL     1      -3.580   5.744  13.277  1.00  0.00    -0.189 N 
HETATM   29  H18 UNL     1      -2.976   4.989  13.577  1.00  0.00     0.184 HD
BRANCH  28  30
HETATM   30  C18 UNL     1      -4.942   5.408  13.244  1.00  0.00     0.082 A 
HETATM   31  C19 UNL     1      -5.969   6.327  13.480  1.00  0.00     0.033 A 
HETATM   32  C20 UNL     1      -7.310   5.936  13.436  1.00  0.00     0.002 A 
HETATM   33  C21 UNL     1      -7.642   4.616  13.151  1.00  0.00     0.003 A 
HETATM   34  C22 UNL     1      -6.635   3.679  12.912  1.00  0.00     0.039 A 
HETATM   35  C23 UNL     1      -5.292   4.063  12.966  1.00  0.00     0.096 A 
BRANCH  35  36
HETATM   36  O3  UNL     1      -4.223   3.226  12.738  1.00  0.00    -0.344 OA
BRANCH  36  37
HETATM   37  C24 UNL     1      -4.143   2.516  11.498  1.00  0.00     0.120 C 
HETATM   38  C25 UNL     1      -5.403   1.677  11.306  1.00  0.00     0.040 C 
HETATM   39  C26 UNL     1      -4.045   3.569  10.398  1.00  0.00     0.040 C 
ENDBRANCH  36  37
ENDBRANCH  35  36
ENDBRANCH  28  30
ENDBRANCH  24  28
ENDBRANCH  15  20
BRANCH   1  40
HETATM   40  C2  UNL     1       8.732   8.216  13.953  1.00  0.00     0.064 C 
HETATM   41  C1  UNL     1      10.073   8.210  13.950  1.00  0.00     0.017 C 
ENDBRANCH   1  40
TORSDOF 6
ENDMDL
MODEL 2
REMARK minimizedAffinity -9.59804535
REMARK  6 active torsions:
REMARK  status: ('A' for Active; 'I' for Inactive)
REMARK    1  A    between atoms: C2_2  and  C3_3 
REMARK       I    between atoms: C3_3  and  N1_5 
REMARK    2  A    between atoms: C13_17  and  C14_18 
REMARK    3  A    between atoms: C17_23  and  N4_24 
REMARK    4  A    between atoms: N4_24  and  C18_25 
REMARK    5  A    between atoms: C23_30  and  O3_31 
REMARK    6  A    between atoms: O3_31  and  C24_32 
ROOT
HETATM    1  C3  UNL     1       2.473   6.315  10.394  1.00  0.00     0.242 C 
HETATM    2  O1  UNL     1       3.347   5.450  10.426  1.00  0.00    -0.268 OA
HETATM    3  N1  UNL     1       1.180   6.106  10.842  1.00  0.00    -0.349 N 
HETATM    4  C4  UNL     1       0.022   6.921  10.489  1.00  0.00     0.127 C 
HETATM    5  C5  UNL     1      -0.820   7.245  11.724  1.00  0.00     0.037 C 
HETATM    6  C6  UNL     1      -0.873   6.079  12.752  1.00  0.00     0.022 C 
HETATM    7  C7  UNL     1      -0.502   4.746  12.069  1.00  0.00     0.037 C 
HETATM    8  C8  UNL     1       0.889   4.804  11.434  1.00  0.00     0.127 C 
HETATM    9  C9  UNL     1       0.128   6.361  13.931  1.00  0.00     0.139 C 
HETATM   10  N2  UNL     1      -0.342   7.359  14.889  1.00  0.00    -0.356 N 
HETATM   11  C10 UNL     1      -1.633   7.363  15.382  1.00  0.00     0.253 C 
HETATM   12  O2  UNL     1      -1.923   7.969  16.406  1.00  0.00    -0.268 OA
HETATM   13  C11 UNL     1      -2.587   6.614  14.580  1.00  0.00     0.057 A 
HETATM   14  C12 UNL     1      -3.961   6.347  14.790  1.00  0.00     0.051 A 
HETATM   15  C13 UNL     1      -4.440   5.602  13.718  1.00  0.00     0.061 A 
HETATM   16  N6  UNL     1      -3.367   5.418  12.866  1.00  0.00    -0.356 N 
HETATM   17  C27 UNL     1      -2.248   6.020  13.379  1.00  0.00     0.036 A 
HETATM   18  H14 UNL     1       0.321   7.776  15.530  1.00  0.00     0.162 HD
HETATM   19  H30 UNL     1      -3.403   4.912  11.993  1.00  0.00     0.166 HD
ENDROOT
BRANCH  15  20
HETATM   20  C14 UNL     1      -5.792   5.088  13.475  1.00  0.00     0.077 A 
HETATM   21  C15 UNL     1      -6.064   4.024  12.646  1.00  0.00     0.050 A 
HETATM   22  C16 UNL     1      -7.390   3.690  12.538  1.00  0.00     0.108 A 
HETATM   23  N3  UNL     1      -8.375   4.335  13.183  1.00  0.00    -0.202 N 
HETATM   24  C17 UNL     1      -8.028   5.363  13.972  1.00  0.00     0.683 A 
ATOM     25  H3  UNL     1      -9.350   4.055  13.077  1.00  0.00     0.183 HD
HETATM   26  N5  UNL     1      -6.756   5.758  14.136  1.00  0.00    -0.189 N 
ATOM     27  H5  UNL     1      -6.525   6.543  14.744  1.00  0.00     0.184 HD
BRANCH  24  28
HETATM   28  N4  UNL     1      -8.967   6.095  14.681  1.00  0.00    -0.189 N 
HETATM   29  H18 UNL     1      -9.495   5.494  15.302  1.00  0.00     0.184 HD
BRANCH  28  30
HETATM   30  C18 UNL     1      -9.360   7.442  14.719  1.00  0.00     0.082 A 
HETATM   31  C19 UNL     1      -8.587   8.455  15.296  1.00  0.00     0.033 A 
HETATM   32  C20 UNL     1      -9.029   9.780  15.307  1.00  0.00     0.002 A 
HETATM   33  C21 UNL     1     -10.253  10.111  14.736  1.00  0.00     0.003 A 
HETATM   34  C22 UNL     1     -11.043   9.119  14.154  1.00  0.00     0.039 A 
HETATM   35  C23 UNL     1     -10.611   7.789  14.150  1.00  0.00     0.096 A 
BRANCH  35  36
HETATM   36  O3  UNL     1     -11.304   6.737  13.598  1.00  0.00    -0.344 OA
BRANCH  36  37
HETATM   37  C24 UNL     1     -12.728   6.818  13.488  1.00  0.00     0.120 C 
HETATM   38  C25 UNL     1     -13.354   6.731  14.877  1.00  0.00     0.040 C 
HETATM   39  C26 UNL     1     -13.041   8.172  12.859  1.00  0.00     0.040 C 
ENDBRANCH  36  37
ENDBRANCH  35  36
ENDBRANCH  28  30
ENDBRANCH  24  28
ENDBRANCH  15  20
BRANCH   1  40
HETATM   40  C2  UNL     1       2.825   7.648   9.851  1.00  0.00     0.064 C 
HETATM   41  C1  UNL     1       4.092   8.084   9.819  1.00  0.00     0.017 C 
ENDBRANCH   1  40
TORSDOF 6
ENDMDL
MODEL 3
REMARK minimizedAffinity -9.58239079
REMARK  6 active torsions:
REMARK  status: ('A' for Active; 'I' for Inactive)
REMARK    1  A    between atoms: C2_2  and  C3_3 
REMARK       I    between atoms: C3_3  and  N1_5 
REMARK    2  A    between atoms: C13_17  and  C14_18 
REMARK    3  A    between atoms: C17_23  and  N4_24 
REMARK    4  A    between atoms: N4_24  and  C18_25 
REMARK    5  A    between atoms: C23_30  and  O3_31 
REMARK    6  A    between atoms: O3_31  and  C24_32 
ROOT
HETATM    1  C3  UNL     1       7.846   9.289  12.821  1.00  0.00     0.242 C 
HETATM    2  O1  UNL     1       8.386  10.195  12.189  1.00  0.00    -0.268 OA
HETATM    3  N1  UNL     1       6.489   9.021  12.756  1.00  0.00    -0.349 N 
HETATM    4  C4  UNL     1       5.734   8.249  13.737  1.00  0.00     0.127 C 
HETATM    5  C5  UNL     1       4.804   7.247  13.052  1.00  0.00     0.037 C 
HETATM    6  C6  UNL     1       4.191   7.786  11.728  1.00  0.00     0.022 C 
HETATM    7  C7  UNL     1       4.262   9.328  11.694  1.00  0.00     0.037 C 
HETATM    8  C8  UNL     1       5.700   9.831  11.834  1.00  0.00     0.127 C 
HETATM    9  C9  UNL     1       4.975   7.198  10.498  1.00  0.00     0.139 C 
HETATM   10  N2  UNL     1       4.655   5.805  10.195  1.00  0.00    -0.356 N 
HETATM   11  C10 UNL     1       3.357   5.331  10.172  1.00  0.00     0.253 C 
HETATM   12  O2  UNL     1       3.070   4.284   9.605  1.00  0.00    -0.268 OA
HETATM   13  C11 UNL     1       2.398   6.164  10.881  1.00  0.00     0.057 A 
HETATM   14  C12 UNL     1       0.996   6.039  11.025  1.00  0.00     0.051 A 
HETATM   15  C13 UNL     1       0.534   7.081  11.821  1.00  0.00     0.061 A 
HETATM   16  N6  UNL     1       1.645   7.833  12.155  1.00  0.00    -0.356 N 
HETATM   17  C27 UNL     1       2.769   7.290  11.590  1.00  0.00     0.036 A 
HETATM   18  H14 UNL     1       5.273   5.279   9.590  1.00  0.00     0.162 HD
HETATM   19  H30 UNL     1       1.629   8.662  12.731  1.00  0.00     0.166 HD
ENDROOT
BRANCH  15  20
HETATM   20  C14 UNL     1      -0.834   7.380  12.258  1.00  0.00     0.077 A 
HETATM   21  C15 UNL     1      -1.369   8.647  12.270  1.00  0.00     0.050 A 
HETATM   22  C16 UNL     1      -2.663   8.733  12.717  1.00  0.00     0.108 A 
HETATM   23  N3  UNL     1      -3.383   7.673  13.119  1.00  0.00    -0.202 N 
HETATM   24  C17 UNL     1      -2.789   6.471  13.078  1.00  0.00     0.683 A 
ATOM     25  H3  UNL     1      -4.344   7.778  13.444  1.00  0.00     0.183 HD
HETATM   26  N5  UNL     1      -1.528   6.296  12.655  1.00  0.00    -0.189 N 
ATOM     27  H5  UNL     1      -1.106   5.368  12.635  1.00  0.00     0.184 HD
BRANCH  24  28
HETATM   28  N4  UNL     1      -3.444   5.314  13.471  1.00  0.00    -0.189 N 
HETATM   29  H18 UNL     1      -3.626   5.327  14.467  1.00  0.00     0.184 HD
BRANCH  28  30
HETATM   30  C18 UNL     1      -3.881   4.147  12.825  1.00  0.00     0.082 A 
HETATM   31  C19 UNL     1      -3.031   3.089  12.486  1.00  0.00     0.033 A 
HETATM   32  C20 UNL     1      -3.520   1.950  11.841  1.00  0.00     0.002 A 
HETATM   33  C21 UNL     1      -4.872   1.853  11.529  1.00  0.00     0.003 A 
HETATM   34  C22 UNL     1      -5.741   2.895  11.856  1.00  0.00     0.039 A 
HETATM   35  C23 UNL     1      -5.255   4.042  12.492  1.00  0.00     0.096 A 
BRANCH  35  36
HETATM   36  O3  UNL     1      -6.021   5.121  12.867  1.00  0.00    -0.344 OA
BRANCH  36  37
HETATM   37  C24 UNL     1      -7.344   4.898  13.366  1.00  0.00     0.120 C 
HETATM   38  C25 UNL     1      -8.362   5.207  12.272  1.00  0.00     0.040 C 
HETATM   39  C26 UNL     1      -7.423   3.424  13.751  1.00  0.00     0.040 C 
ENDBRANCH  36  37
ENDBRANCH  35  36
ENDBRANCH  28  30
ENDBRANCH  24  28
ENDBRANCH  15  20
BRANCH   1  40
HETATM   40  C2  UNL     1       8.692   8.443  13.694  1.00  0.00     0.064 C 
HETATM   41  C1  UNL     1       8.158   7.591  14.581  1.00  0.00     0.017 C 
ENDBRANCH   1  40
TORSDOF 6
ENDMDL
MODEL 4
REMARK minimizedAffinity -9.3670969
REMARK  6 active torsions:
REMARK  status: ('A' for Active; 'I' for Inactive)
REMARK    1  A    between atoms: C2_2  and  C3_3 
REMARK       I    between atoms: C3_3  and  N1_5 
REMARK    2  A    between atoms: C13_17  and  C14_18 
REMARK    3  A    between atoms: C17_23  and  N4_24 
REMARK    4  A    between atoms: N4_24  and  C18_25 
REMARK    5  A    between atoms: C23_30  and  O3_31 
REMARK    6  A    between atoms: O3_31  and  C24_32 
ROOT
HETATM    1  C3  UNL     1       0.891   9.261  14.931  1.00  0.00     0.242 C 
HETATM    2  O1  UNL     1       1.093  10.334  14.366  1.00  0.00    -0.268 OA
HETATM    3  N1  UNL     1      -0.157   8.416  14.606  1.00  0.00    -0.349 N 
HETATM    4  C4  UNL     1      -0.680   7.354  15.459  1.00  0.00     0.127 C 
HETATM    5  C5  UNL     1      -0.898   6.066  14.664  1.00  0.00     0.037 C 
HETATM    6  C6  UNL     1      -1.388   6.318  13.211  1.00  0.00     0.022 C 
HETATM    7  C7  UNL     1      -2.005   7.729  13.091  1.00  0.00     0.037 C 
HETATM    8  C8  UNL     1      -1.007   8.818  13.490  1.00  0.00     0.127 C 
HETATM    9  C9  UNL     1      -0.183   6.187  12.209  1.00  0.00     0.139 C 
HETATM   10  N2  UNL     1       0.221   4.809  11.938  1.00  0.00    -0.356 N 
HETATM   11  C10 UNL     1      -0.693   3.805  11.680  1.00  0.00     0.253 C 
HETATM   12  O2  UNL     1      -0.356   2.761  11.136  1.00  0.00    -0.268 OA
HETATM   13  C11 UNL     1      -2.048   4.096  12.120  1.00  0.00     0.057 A 
HETATM   14  C12 UNL     1      -3.243   3.351  11.981  1.00  0.00     0.051 A 
HETATM   15  C13 UNL     1      -4.278   4.048  12.595  1.00  0.00     0.061 A 
HETATM   16  N6  UNL     1      -3.716   5.206  13.101  1.00  0.00    -0.356 N 
HETATM   17  C27 UNL     1      -2.376   5.244  12.816  1.00  0.00     0.036 A 
HETATM   18  H14 UNL     1       1.121   4.637  11.510  1.00  0.00     0.162 HD
HETATM   19  H30 UNL     1      -4.222   5.920  13.606  1.00  0.00     0.166 HD
ENDROOT
BRANCH  15  20
HETATM   20  C14 UNL     1      -5.694   3.687  12.721  1.00  0.00     0.077 A 
HETATM   21  C15 UNL     1      -6.245   2.561  12.156  1.00  0.00     0.050 A 
HETATM   22  C16 UNL     1      -7.588   2.391  12.376  1.00  0.00     0.108 A 
HETATM   23  N3  UNL     1      -8.339   3.247  13.089  1.00  0.00    -0.202 N 
HETATM   24  C17 UNL     1      -7.727   4.322  13.607  1.00  0.00     0.683 A 
ATOM     25  H3  UNL     1      -9.335   3.085  13.231  1.00  0.00     0.183 HD
HETATM   26  N5  UNL     1      -6.418   4.565  13.441  1.00  0.00    -0.189 N 
ATOM     27  H5  UNL     1      -5.983   5.393  13.849  1.00  0.00     0.184 HD
BRANCH  24  28
HETATM   28  N4  UNL     1      -8.411   5.265  14.358  1.00  0.00    -0.189 N 
HETATM   29  H18 UNL     1      -9.251   4.865  14.757  1.00  0.00     0.184 HD
BRANCH  28  30
HETATM   30  C18 UNL     1      -8.222   6.621  14.667  1.00  0.00     0.082 A 
HETATM   31  C19 UNL     1      -6.963   7.225  14.747  1.00  0.00     0.033 A 
HETATM   32  C20 UNL     1      -6.833   8.581  15.061  1.00  0.00     0.002 A 
HETATM   33  C21 UNL     1      -7.965   9.353  15.295  1.00  0.00     0.003 A 
HETATM   34  C22 UNL     1      -9.233   8.774  15.221  1.00  0.00     0.039 A 
HETATM   35  C23 UNL     1      -9.368   7.416  14.919  1.00  0.00     0.096 A 
BRANCH  35  36
HETATM   36  O3  UNL     1     -10.566   6.747  14.811  1.00  0.00    -0.344 OA
BRANCH  36  37
HETATM   37  C24 UNL     1     -11.678   7.401  14.192  1.00  0.00     0.120 C 
HETATM   38  C25 UNL     1     -11.464   7.457  12.683  1.00  0.00     0.040 C 
HETATM   39  C26 UNL     1     -12.912   6.561  14.513  1.00  0.00     0.040 C 
ENDBRANCH  36  37
ENDBRANCH  35  36
ENDBRANCH  28  30
ENDBRANCH  24  28
ENDBRANCH  15  20
BRANCH   1  40
HETATM   40  C2  UNL     1       1.817   8.852  16.013  1.00  0.00     0.064 C 
HETATM   41  C1  UNL     1       2.778   7.940  15.812  1.00  0.00     0.017 C 
ENDBRANCH   1  40
TORSDOF 6
ENDMDL
MODEL 5
REMARK minimizedAffinity -9.09242439
REMARK  6 active torsions:
REMARK  status: ('A' for Active; 'I' for Inactive)
REMARK    1  A    between atoms: C2_2  and  C3_3 
REMARK       I    between atoms: C3_3  and  N1_5 
REMARK    2  A    between atoms: C13_17  and  C14_18 
REMARK    3  A    between atoms: C17_23  and  N4_24 
REMARK    4  A    between atoms: N4_24  and  C18_25 
REMARK    5  A    between atoms: C23_30  and  O3_31 
REMARK    6  A    between atoms: O3_31  and  C24_32 
ROOT
HETATM    1  C3  UNL     1       3.490   6.812  10.041  1.00  0.00     0.242 C 
HETATM    2  O1  UNL     1       3.978   5.708   9.810  1.00  0.00    -0.268 OA
HETATM    3  N1  UNL     1       2.350   6.993  10.807  1.00  0.00    -0.349 N 
HETATM    4  C4  UNL     1       1.512   8.188  10.803  1.00  0.00     0.127 C 
HETATM    5  C5  UNL     1       1.156   8.616  12.227  1.00  0.00     0.037 C 
HETATM    6  C6  UNL     1       0.933   7.415  13.190  1.00  0.00     0.022 C 
HETATM    7  C7  UNL     1       0.633   6.132  12.386  1.00  0.00     0.037 C 
HETATM    8  C8  UNL     1       1.762   5.801  11.408  1.00  0.00     0.127 C 
HETATM    9  C9  UNL     1       2.216   7.192  14.072  1.00  0.00     0.139 C 
HETATM   10  N2  UNL     1       2.372   8.161  15.155  1.00  0.00    -0.356 N 
HETATM   11  C10 UNL     1       1.322   8.535  15.972  1.00  0.00     0.253 C 
HETATM   12  O2  UNL     1       1.516   9.068  17.057  1.00  0.00    -0.268 OA
HETATM   13  C11 UNL     1       0.003   8.257  15.424  1.00  0.00     0.057 A 
HETATM   14  C12 UNL     1      -1.284   8.441  15.980  1.00  0.00     0.051 A 
HETATM   15  C13 UNL     1      -2.236   8.043  15.047  1.00  0.00     0.061 A 
HETATM   16  N6  UNL     1      -1.531   7.619  13.936  1.00  0.00    -0.356 N 
HETATM   17  C27 UNL     1      -0.184   7.741  14.156  1.00  0.00     0.036 A 
HETATM   18  H14 UNL     1       3.271   8.246  15.612  1.00  0.00     0.162 HD
HETATM   19  H30 UNL     1      -1.949   7.269  13.086  1.00  0.00     0.166 HD
ENDROOT
BRANCH  15  20
HETATM   20  C14 UNL     1      -3.698   8.047  15.152  1.00  0.00     0.077 A 
HETATM   21  C15 UNL     1      -4.422   9.106  15.649  1.00  0.00     0.050 A 
HETATM   22  C16 UNL     1      -5.781   8.926  15.676  1.00  0.00     0.108 A 
HETATM   23  N3  UNL     1      -6.392   7.808  15.253  1.00  0.00    -0.202 N 
HETATM   24  C17 UNL     1      -5.616   6.820  14.782  1.00  0.00     0.683 A 
ATOM     25  H3  UNL     1      -7.407   7.713  15.288  1.00  0.00     0.183 HD
HETATM   26  N5  UNL     1      -4.279   6.911  14.720  1.00  0.00    -0.189 N 
ATOM     27  H5  UNL     1      -3.718   6.142  14.356  1.00  0.00     0.184 HD
BRANCH  24  28
HETATM   28  N4  UNL     1      -6.147   5.625  14.321  1.00  0.00    -0.189 N 
HETATM   29  H18 UNL     1      -6.985   5.384  14.835  1.00  0.00     0.184 HD
BRANCH  28  30
HETATM   30  C18 UNL     1      -5.784   4.684  13.345  1.00  0.00     0.082 A 
HETATM   31  C19 UNL     1      -4.464   4.284  13.113  1.00  0.00     0.033 A 
HETATM   32  C20 UNL     1      -4.160   3.343  12.125  1.00  0.00     0.002 A 
HETATM   33  C21 UNL     1      -5.177   2.787  11.356  1.00  0.00     0.003 A 
HETATM   34  C22 UNL     1      -6.502   3.170  11.568  1.00  0.00     0.039 A 
HETATM   35  C23 UNL     1      -6.811   4.118  12.548  1.00  0.00     0.096 A 
BRANCH  35  36
HETATM   36  O3  UNL     1      -8.079   4.560  12.846  1.00  0.00    -0.344 OA
BRANCH  36  37
HETATM   37  C24 UNL     1      -8.460   5.890  12.484  1.00  0.00     0.120 C 
HETATM   38  C25 UNL     1      -9.051   5.889  11.078  1.00  0.00     0.040 C 
HETATM   39  C26 UNL     1      -9.516   6.333  13.493  1.00  0.00     0.040 C 
ENDBRANCH  36  37
ENDBRANCH  35  36
ENDBRANCH  28  30
ENDBRANCH  24  28
ENDBRANCH  15  20
BRANCH   1  40
HETATM   40  C2  UNL     1       4.155   8.007   9.472  1.00  0.00     0.064 C 
HETATM   41  C1  UNL     1       4.955   8.788  10.212  1.00  0.00     0.017 C 
ENDBRANCH   1  40
TORSDOF 6
ENDMDL
MODEL 6
REMARK minimizedAffinity -9.08569431
REMARK  6 active torsions:
REMARK  status: ('A' for Active; 'I' for Inactive)
REMARK    1  A    between atoms: C2_2  and  C3_3 
REMARK       I    between atoms: C3_3  and  N1_5 
REMARK    2  A    between atoms: C13_17  and  C14_18 
REMARK    3  A    between atoms: C17_23  and  N4_24 
REMARK    4  A    between atoms: N4_24  and  C18_25 
REMARK    5  A    between atoms: C23_30  and  O3_31 
REMARK    6  A    between atoms: O3_31  and  C24_32 
ROOT
HETATM    1  C3  UNL     1      -1.271  11.390  16.931  1.00  0.00     0.242 C 
HETATM    2  O1  UNL     1      -1.360  12.574  16.609  1.00  0.00    -0.268 OA
HETATM    3  N1  UNL     1      -2.034  10.387  16.359  1.00  0.00    -0.349 N 
HETATM    4  C4  UNL     1      -2.264   9.067  16.937  1.00  0.00     0.127 C 
HETATM    5  C5  UNL     1      -2.095   7.969  15.887  1.00  0.00     0.037 C 
HETATM    6  C6  UNL     1      -2.599   8.387  14.477  1.00  0.00     0.022 C 
HETATM    7  C7  UNL     1      -3.580   9.574  14.589  1.00  0.00     0.037 C 
HETATM    8  C8  UNL     1      -2.933  10.777  15.278  1.00  0.00     0.127 C 
HETATM    9  C9  UNL     1      -1.380   8.798  13.573  1.00  0.00     0.139 C 
HETATM   10  N2  UNL     1      -0.601   7.668  13.069  1.00  0.00    -0.356 N 
HETATM   11  C10 UNL     1      -1.194   6.536  12.541  1.00  0.00     0.253 C 
HETATM   12  O2  UNL     1      -0.567   5.761  11.830  1.00  0.00    -0.268 OA
HETATM   13  C11 UNL     1      -2.588   6.355  12.916  1.00  0.00     0.057 A 
HETATM   14  C12 UNL     1      -3.525   5.367  12.532  1.00  0.00     0.051 A 
HETATM   15  C13 UNL     1      -4.728   5.616  13.184  1.00  0.00     0.061 A 
HETATM   16  N6  UNL     1      -4.523   6.745  13.954  1.00  0.00    -0.356 N 
HETATM   17  C27 UNL     1      -3.239   7.198  13.795  1.00  0.00     0.036 A 
HETATM   18  H14 UNL     1       0.322   7.837  12.691  1.00  0.00     0.162 HD
HETATM   19  H30 UNL     1      -5.219   7.174  14.547  1.00  0.00     0.166 HD
ENDROOT
BRANCH  15  20
HETATM   20  C14 UNL     1      -5.991   4.873  13.117  1.00  0.00     0.077 A 
HETATM   21  C15 UNL     1      -6.072   3.536  12.803  1.00  0.00     0.050 A 
HETATM   22  C16 UNL     1      -7.340   3.014  12.783  1.00  0.00     0.108 A 
HETATM   23  N3  UNL     1      -8.444   3.731  13.048  1.00  0.00    -0.202 N 
HETATM   24  C17 UNL     1      -8.281   5.029  13.345  1.00  0.00     0.683 A 
ATOM     25  H3  UNL     1      -9.370   3.305  13.023  1.00  0.00     0.183 HD
HETATM   26  N5  UNL     1      -7.078   5.621  13.387  1.00  0.00    -0.189 N 
ATOM     27  H5  UNL     1      -6.989   6.610  13.617  1.00  0.00     0.184 HD
BRANCH  24  28
HETATM   28  N4  UNL     1      -9.355   5.856  13.633  1.00  0.00    -0.189 N 
HETATM   29  H18 UNL     1     -10.111   5.704  12.977  1.00  0.00     0.184 HD
BRANCH  28  30
HETATM   30  C18 UNL     1      -9.620   6.849  14.589  1.00  0.00     0.082 A 
HETATM   31  C19 UNL     1      -8.969   6.922  15.826  1.00  0.00     0.033 A 
HETATM   32  C20 UNL     1      -9.275   7.932  16.742  1.00  0.00     0.002 A 
HETATM   33  C21 UNL     1     -10.236   8.888  16.431  1.00  0.00     0.003 A 
HETATM   34  C22 UNL     1     -10.900   8.836  15.204  1.00  0.00     0.039 A 
HETATM   35  C23 UNL     1     -10.606   7.822  14.288  1.00  0.00     0.096 A 
BRANCH  35  36
HETATM   36  O3  UNL     1     -11.191   7.683  13.050  1.00  0.00    -0.344 OA
BRANCH  36  37
HETATM   37  C24 UNL     1     -12.563   7.284  12.966  1.00  0.00     0.120 C 
HETATM   38  C25 UNL     1     -12.940   6.482  14.208  1.00  0.00     0.040 C 
HETATM   39  C26 UNL     1     -13.387   8.568  12.904  1.00  0.00     0.040 C 
ENDBRANCH  36  37
ENDBRANCH  35  36
ENDBRANCH  28  30
ENDBRANCH  24  28
ENDBRANCH  15  20
BRANCH   1  40
HETATM   40  C2  UNL     1      -0.296  11.022  17.984  1.00  0.00     0.064 C 
HETATM   41  C1  UNL     1      -0.528  11.275  19.280  1.00  0.00     0.017 C 
ENDBRANCH   1  40
TORSDOF 6
ENDMDL
MODEL 7
REMARK minimizedAffinity -9.08354568
REMARK  6 active torsions:
REMARK  status: ('A' for Active; 'I' for Inactive)
REMARK    1  A    between atoms: C2_2  and  C3_3 
REMARK       I    between atoms: C3_3  and  N1_5 
REMARK    2  A    between atoms: C13_17  and  C14_18 
REMARK    3  A    between atoms: C17_23  and  N4_24 
REMARK    4  A    between atoms: N4_24  and  C18_25 
REMARK    5  A    between atoms: C23_30  and  O3_31 
REMARK    6  A    between atoms: O3_31  and  C24_32 
ROOT
HETATM    1  C3  UNL     1     -14.203   9.184  13.261  1.00  0.00     0.242 C 
HETATM    2  O1  UNL     1     -14.293  10.233  12.625  1.00  0.00    -0.268 OA
HETATM    3  N1  UNL     1     -13.122   8.325  13.161  1.00  0.00    -0.349 N 
HETATM    4  C4  UNL     1     -13.117   6.923  13.565  1.00  0.00     0.127 C 
HETATM    5  C5  UNL     1     -11.857   6.583  14.361  1.00  0.00     0.037 C 
HETATM    6  C6  UNL     1     -10.592   7.334  13.857  1.00  0.00     0.022 C 
HETATM    7  C7  UNL     1     -10.804   7.827  12.409  1.00  0.00     0.037 C 
HETATM    8  C8  UNL     1     -12.023   8.746  12.298  1.00  0.00     0.127 C 
HETATM    9  C9  UNL     1     -10.293   8.564  14.791  1.00  0.00     0.139 C 
HETATM   10  N2  UNL     1      -9.691   8.207  16.074  1.00  0.00    -0.356 N 
HETATM   11  C10 UNL     1      -8.657   7.296  16.180  1.00  0.00     0.253 C 
HETATM   12  O2  UNL     1      -7.946   7.251  17.176  1.00  0.00    -0.268 OA
HETATM   13  C11 UNL     1      -8.511   6.413  15.033  1.00  0.00     0.057 A 
HETATM   14  C12 UNL     1      -7.551   5.411  14.757  1.00  0.00     0.051 A 
HETATM   15  C13 UNL     1      -7.857   4.825  13.533  1.00  0.00     0.061 A 
HETATM   16  N6  UNL     1      -8.990   5.468  13.071  1.00  0.00    -0.356 N 
HETATM   17  C27 UNL     1      -9.388   6.427  13.965  1.00  0.00     0.036 A 
HETATM   18  H14 UNL     1      -9.689   8.889  16.821  1.00  0.00     0.162 HD
HETATM   19  H30 UNL     1      -9.456   5.260  12.199  1.00  0.00     0.166 HD
ENDROOT
BRANCH  15  20
HETATM   20  C14 UNL     1      -7.165   3.745  12.823  1.00  0.00     0.077 A 
HETATM   21  C15 UNL     1      -7.650   2.460  12.735  1.00  0.00     0.050 A 
HETATM   22  C16 UNL     1      -6.862   1.583  12.034  1.00  0.00     0.108 A 
HETATM   23  N3  UNL     1      -5.696   1.924  11.462  1.00  0.00    -0.202 N 
HETATM   24  C17 UNL     1      -5.292   3.196  11.593  1.00  0.00     0.683 A 
ATOM     25  H3  UNL     1      -5.139   1.242  10.948  1.00  0.00     0.183 HD
HETATM   26  N5  UNL     1      -6.000   4.120  12.261  1.00  0.00    -0.189 N 
ATOM     27  H5  UNL     1      -5.665   5.079  12.342  1.00  0.00     0.184 HD
BRANCH  24  28
HETATM   28  N4  UNL     1      -4.104   3.651  11.042  1.00  0.00    -0.189 N 
HETATM   29  H18 UNL     1      -4.232   3.894  10.067  1.00  0.00     0.184 HD
BRANCH  28  30
HETATM   30  C18 UNL     1      -2.792   3.826  11.507  1.00  0.00     0.082 A 
HETATM   31  C19 UNL     1      -1.742   2.953  11.201  1.00  0.00     0.033 A 
HETATM   32  C20 UNL     1      -0.454   3.175  11.694  1.00  0.00     0.002 A 
HETATM   33  C21 UNL     1      -0.197   4.279  12.499  1.00  0.00     0.003 A 
HETATM   34  C22 UNL     1      -1.227   5.164  12.820  1.00  0.00     0.039 A 
HETATM   35  C23 UNL     1      -2.520   4.941  12.339  1.00  0.00     0.096 A 
BRANCH  35  36
HETATM   36  O3  UNL     1      -3.604   5.752  12.584  1.00  0.00    -0.344 OA
BRANCH  36  37
HETATM   37  C24 UNL     1      -3.980   6.026  13.937  1.00  0.00     0.120 C 
HETATM   38  C25 UNL     1      -2.778   5.822  14.854  1.00  0.00     0.040 C 
HETATM   39  C26 UNL     1      -4.427   7.485  13.980  1.00  0.00     0.040 C 
ENDBRANCH  36  37
ENDBRANCH  35  36
ENDBRANCH  28  30
ENDBRANCH  24  28
ENDBRANCH  15  20
BRANCH   1  40
HETATM   40  C2  UNL     1     -15.307   8.824  14.181  1.00  0.00     0.064 C 
HETATM   41  C1  UNL     1     -15.362   7.627  14.781  1.00  0.00     0.017 C 
ENDBRANCH   1  40
TORSDOF 6
ENDMDL
MODEL 8
REMARK minimizedAffinity -9.04892349
REMARK  6 active torsions:
REMARK  status: ('A' for Active; 'I' for Inactive)
REMARK    1  A    between atoms: C2_2  and  C3_3 
REMARK       I    between atoms: C3_3  and  N1_5 
REMARK    2  A    between atoms: C13_17  and  C14_18 
REMARK    3  A    between atoms: C17_23  and  N4_24 
REMARK    4  A    between atoms: N4_24  and  C18_25 
REMARK    5  A    between atoms: C23_30  and  O3_31 
REMARK    6  A    between atoms: O3_31  and  C24_32 
ROOT
HETATM    1  C3  UNL     1       2.414   6.576   9.160  1.00  0.00     0.242 C 
HETATM    2  O1  UNL     1       2.628   5.466   8.676  1.00  0.00    -0.268 OA
HETATM    3  N1  UNL     1       1.432   6.816  10.106  1.00  0.00    -0.349 N 
HETATM    4  C4  UNL     1       0.870   8.124  10.428  1.00  0.00     0.127 C 
HETATM    5  C5  UNL     1       0.774   8.326  11.940  1.00  0.00     0.037 C 
HETATM    6  C6  UNL     1       0.411   7.024  12.710  1.00  0.00     0.022 C 
HETATM    7  C7  UNL     1      -0.242   6.002  11.755  1.00  0.00     0.037 C 
HETATM    8  C8  UNL     1       0.674   5.661  10.579  1.00  0.00     0.127 C 
HETATM    9  C9  UNL     1       1.708   6.397  13.341  1.00  0.00     0.139 C 
HETATM   10  N2  UNL     1       2.185   7.089  14.537  1.00  0.00    -0.356 N 
HETATM   11  C10 UNL     1       1.336   7.488  15.552  1.00  0.00     0.253 C 
HETATM   12  O2  UNL     1       1.759   7.753  16.670  1.00  0.00    -0.268 OA
HETATM   13  C11 UNL     1      -0.064   7.575  15.167  1.00  0.00     0.057 A 
HETATM   14  C12 UNL     1      -1.213   7.886  15.931  1.00  0.00     0.051 A 
HETATM   15  C13 UNL     1      -2.325   7.863  15.096  1.00  0.00     0.061 A 
HETATM   16  N6  UNL     1      -1.855   7.539  13.837  1.00  0.00    -0.356 N 
HETATM   17  C27 UNL     1      -0.496   7.360  13.872  1.00  0.00     0.036 A 
HETATM   18  H14 UNL     1       3.127   6.913  14.863  1.00  0.00     0.162 HD
HETATM   19  H30 UNL     1      -2.430   7.446  13.012  1.00  0.00     0.166 HD
ENDROOT
BRANCH  15  20
HETATM   20  C14 UNL     1      -3.732   8.122  15.417  1.00  0.00     0.077 A 
HETATM   21  C15 UNL     1      -4.226   9.369  15.722  1.00  0.00     0.050 A 
HETATM   22  C16 UNL     1      -5.568   9.416  16.000  1.00  0.00     0.108 A 
HETATM   23  N3  UNL     1      -6.370   8.339  15.984  1.00  0.00    -0.202 N 
HETATM   24  C17 UNL     1      -5.812   7.159  15.677  1.00  0.00     0.683 A 
ATOM     25  H3  UNL     1      -7.364   8.416  16.196  1.00  0.00     0.183 HD
HETATM   26  N5  UNL     1      -4.508   7.021  15.392  1.00  0.00    -0.189 N 
ATOM     27  H5  UNL     1      -4.116   6.109  15.162  1.00  0.00     0.184 HD
BRANCH  24  28
HETATM   28  N4  UNL     1      -6.551   5.986  15.633  1.00  0.00    -0.189 N 
HETATM   29  H18 UNL     1      -6.647   5.588  16.559  1.00  0.00     0.184 HD
BRANCH  28  30
HETATM   30  C18 UNL     1      -7.163   5.231  14.620  1.00  0.00     0.082 A 
HETATM   31  C19 UNL     1      -6.812   3.909  14.326  1.00  0.00     0.033 A 
HETATM   32  C20 UNL     1      -7.454   3.204  13.304  1.00  0.00     0.002 A 
HETATM   33  C21 UNL     1      -8.461   3.814  12.564  1.00  0.00     0.003 A 
HETATM   34  C22 UNL     1      -8.829   5.132  12.838  1.00  0.00     0.039 A 
HETATM   35  C23 UNL     1      -8.183   5.846  13.851  1.00  0.00     0.096 A 
BRANCH  35  36
HETATM   36  O3  UNL     1      -8.472   7.142  14.211  1.00  0.00    -0.344 OA
BRANCH  36  37
HETATM   37  C24 UNL     1      -9.643   7.407  14.989  1.00  0.00     0.120 C 
HETATM   38  C25 UNL     1      -9.687   8.886  15.361  1.00  0.00     0.040 C 
HETATM   39  C26 UNL     1     -10.840   7.054  14.109  1.00  0.00     0.040 C 
ENDBRANCH  36  37
ENDBRANCH  35  36
ENDBRANCH  28  30
ENDBRANCH  24  28
ENDBRANCH  15  20
BRANCH   1  40
HETATM   40  C2  UNL     1       3.250   7.712   8.708  1.00  0.00     0.064 C 
HETATM   41  C1  UNL     1       2.874   8.504   7.693  1.00  0.00     0.017 C 
ENDBRANCH   1  40
TORSDOF 6
ENDMDL
MODEL 9
REMARK minimizedAffinity -8.98536491
REMARK  6 active torsions:
REMARK  status: ('A' for Active; 'I' for Inactive)
REMARK    1  A    between atoms: C2_2  and  C3_3 
REMARK       I    between atoms: C3_3  and  N1_5 
REMARK    2  A    between atoms: C13_17  and  C14_18 
REMARK    3  A    between atoms: C17_23  and  N4_24 
REMARK    4  A    between atoms: N4_24  and  C18_25 
REMARK    5  A    between atoms: C23_30  and  O3_31 
REMARK    6  A    between atoms: O3_31  and  C24_32 
ROOT
HETATM    1  C3  UNL     1      -8.851   7.695  15.749  1.00  0.00     0.242 C 
HETATM    2  O1  UNL     1      -9.369   7.283  16.785  1.00  0.00    -0.268 OA
HETATM    3  N1  UNL     1      -7.528   7.460  15.415  1.00  0.00    -0.349 N 
HETATM    4  C4  UNL     1      -6.757   8.218  14.435  1.00  0.00     0.127 C 
HETATM    5  C5  UNL     1      -5.965   7.286  13.517  1.00  0.00     0.037 C 
HETATM    6  C6  UNL     1      -5.420   6.025  14.247  1.00  0.00     0.022 C 
HETATM    7  C7  UNL     1      -5.375   6.266  15.771  1.00  0.00     0.037 C 
HETATM    8  C8  UNL     1      -6.755   6.623  16.328  1.00  0.00     0.127 C 
HETATM    9  C9  UNL     1      -6.342   4.790  13.938  1.00  0.00     0.139 C 
HETATM   10  N2  UNL     1      -6.155   4.221  12.605  1.00  0.00    -0.356 N 
HETATM   11  C10 UNL     1      -4.902   3.997  12.065  1.00  0.00     0.253 C 
HETATM   12  O2  UNL     1      -4.742   3.232  11.121  1.00  0.00    -0.268 OA
HETATM   13  C11 UNL     1      -3.829   4.748  12.698  1.00  0.00     0.057 A 
HETATM   14  C12 UNL     1      -2.434   4.738  12.463  1.00  0.00     0.051 A 
HETATM   15  C13 UNL     1      -1.831   5.657  13.316  1.00  0.00     0.061 A 
HETATM   16  N6  UNL     1      -2.852   6.217  14.061  1.00  0.00    -0.356 N 
HETATM   17  C27 UNL     1      -4.056   5.673  13.698  1.00  0.00     0.036 A 
HETATM   18  H14 UNL     1      -6.857   3.594  12.235  1.00  0.00     0.162 HD
HETATM   19  H30 UNL     1      -2.726   6.925  14.771  1.00  0.00     0.166 HD
ENDROOT
BRANCH  15  20
HETATM   20  C14 UNL     1      -0.414   6.011  13.447  1.00  0.00     0.077 A 
HETATM   21  C15 UNL     1       0.153   6.458  14.618  1.00  0.00     0.050 A 
HETATM   22  C16 UNL     1       1.492   6.746  14.548  1.00  0.00     0.108 A 
HETATM   23  N3  UNL     1       2.225   6.610  13.431  1.00  0.00    -0.202 N 
HETATM   24  C17 UNL     1       1.598   6.169  12.331  1.00  0.00     0.683 A 
ATOM     25  H3  UNL     1       3.220   6.834  13.420  1.00  0.00     0.183 HD
HETATM   26  N5  UNL     1       0.292   5.864  12.309  1.00  0.00    -0.189 N 
ATOM     27  H5  UNL     1      -0.155   5.530  11.455  1.00  0.00     0.184 HD
BRANCH  24  28
HETATM   28  N4  UNL     1       2.263   5.994  11.127  1.00  0.00    -0.189 N 
HETATM   29  H18 UNL     1       2.751   5.107  11.112  1.00  0.00     0.184 HD
BRANCH  28  30
HETATM   30  C18 UNL     1       2.429   6.756   9.960  1.00  0.00     0.082 A 
HETATM   31  C19 UNL     1       1.603   6.635   8.837  1.00  0.00     0.033 A 
HETATM   32  C20 UNL     1       1.816   7.419   7.699  1.00  0.00     0.002 A 
HETATM   33  C21 UNL     1       2.858   8.340   7.672  1.00  0.00     0.003 A 
HETATM   34  C22 UNL     1       3.696   8.478   8.780  1.00  0.00     0.039 A 
HETATM   35  C23 UNL     1       3.495   7.689   9.916  1.00  0.00     0.096 A 
BRANCH  35  36
HETATM   36  O3  UNL     1       4.252   7.750  11.063  1.00  0.00    -0.344 OA
BRANCH  36  37
HETATM   37  C24 UNL     1       5.675   7.637  10.968  1.00  0.00     0.120 C 
HETATM   38  C25 UNL     1       6.308   9.021  11.090  1.00  0.00     0.040 C 
HETATM   39  C26 UNL     1       6.122   6.756  12.131  1.00  0.00     0.040 C 
ENDBRANCH  36  37
ENDBRANCH  35  36
ENDBRANCH  28  30
ENDBRANCH  24  28
ENDBRANCH  15  20
BRANCH   1  40
HETATM   40  C2  UNL     1      -9.685   8.483  14.812  1.00  0.00     0.064 C 
HETATM   41  C1  UNL     1     -10.622   7.905  14.046  1.00  0.00     0.017 C 
ENDBRANCH   1  40
TORSDOF 6
ENDMDL
