MODEL 1
REMARK minimizedAffinity -9.3884697
REMARK  4 active torsions:
REMARK  status: ('A' for Active; 'I' for Inactive)
REMARK    1  A    between atoms: N1_1  and  C1_2 
REMARK    2  A    between atoms: C5_10  and  C6_11 
REMARK    3  A    between atoms: N4_18  and  C13_19 
REMARK    4  A    between atoms: C16_22  and  O1_23 
ROOT
HETATM    1  C1  UNL     1      11.422  -4.047  29.951  1.00  0.00     0.093 A 
HETATM    2  N2  UNL     1      11.554  -4.156  28.614  1.00  0.00    -0.343 N 
ATOM      3  H2  UNL     1      12.408  -3.851  28.145  1.00  0.00     0.167 HD
HETATM    4  C2  UNL     1      10.532  -4.678  27.913  1.00  0.00     0.183 A 
HETATM    5  N3  UNL     1       9.346  -5.108  28.370  1.00  0.00    -0.338 N 
ATOM      6  H3  UNL     1       8.606  -5.484  27.778  1.00  0.00     0.168 HD
HETATM    7  C3  UNL     1       9.252  -4.981  29.706  1.00  0.00     0.123 A 
HETATM    8  C4  UNL     1      10.229  -4.476  30.557  1.00  0.00     0.059 A 
HETATM    9  C5  UNL     1       9.692  -4.533  31.881  1.00  0.00     0.007 A 
HETATM   10  C12 UNL     1       8.416  -5.058  31.786  1.00  0.00     0.106 A 
HETATM   11  N4  UNL     1       8.162  -5.334  30.464  1.00  0.00    -0.337 N 
ENDROOT
BRANCH  11  12
HETATM   12  C13 UNL     1       6.923  -5.914  29.973  1.00  0.00     0.093 C 
HETATM   13  C14 UNL     1       6.653  -5.660  28.477  1.00  0.00     0.028 C 
HETATM   14  C15 UNL     1       5.339  -4.891  28.424  1.00  0.00     0.034 C 
HETATM   15  C16 UNL     1       4.595  -5.368  29.662  1.00  0.00     0.120 C 
HETATM   16  C17 UNL     1       5.678  -5.432  30.729  1.00  0.00     0.057 C 
BRANCH  15  17
HETATM   17  O1  UNL     1       3.550  -4.488  30.023  1.00  0.00    -0.396 OA
HETATM   18  H16 UNL     1       3.932  -3.601  30.150  1.00  0.00     0.210 HD
ENDBRANCH  15  17
ENDBRANCH  11  12
BRANCH   9  19
HETATM   19  C6  UNL     1      10.284  -4.163  33.153  1.00  0.00    -0.024 A 
HETATM   20  C7  UNL     1       9.591  -4.382  34.350  1.00  0.00     0.012 A 
HETATM   21  C8  UNL     1      10.162  -4.018  35.572  1.00  0.00     0.001 A 
HETATM   22  C9  UNL     1      11.428  -3.434  35.605  1.00  0.00     0.000 A 
HETATM   23  C10 UNL     1      12.125  -3.216  34.417  1.00  0.00     0.001 A 
HETATM   24  C11 UNL     1      11.556  -3.580  33.195  1.00  0.00     0.012 A 
ENDBRANCH   9  19
BRANCH   1  25
HETATM   25  N1  UNL     1      12.491  -3.487  30.637  1.00  0.00    -0.288 NA
HETATM   26  H1  UNL     1      12.237  -3.010  31.493  1.00  0.00     0.125 HD
HETATM   27  H2  UNL     1      13.096  -2.980  30.003  1.00  0.00     0.125 HD
ENDBRANCH   1  25
TORSDOF 4
ENDMDL
MODEL 2
REMARK minimizedAffinity -8.77168179
REMARK  4 active torsions:
REMARK  status: ('A' for Active; 'I' for Inactive)
REMARK    1  A    between atoms: N1_1  and  C1_2 
REMARK    2  A    between atoms: C5_10  and  C6_11 
REMARK    3  A    between atoms: N4_18  and  C13_19 
REMARK    4  A    between atoms: C16_22  and  O1_23 
ROOT
HETATM    1  C1  UNL     1       9.779  -6.724  30.027  1.00  0.00     0.093 A 
HETATM    2  N2  UNL     1      11.093  -6.989  30.169  1.00  0.00    -0.343 N 
ATOM      3  H2  UNL     1      11.540  -7.725  29.621  1.00  0.00     0.167 HD
HETATM    4  C2  UNL     1      11.800  -6.261  31.051  1.00  0.00     0.183 A 
HETATM    5  N3  UNL     1      11.363  -5.278  31.854  1.00  0.00    -0.338 N 
ATOM      6  H3  UNL     1      11.955  -4.771  32.512  1.00  0.00     0.168 HD
HETATM    7  C3  UNL     1      10.049  -5.044  31.685  1.00  0.00     0.123 A 
HETATM    8  C4  UNL     1       9.201  -5.705  30.803  1.00  0.00     0.059 A 
HETATM    9  C5  UNL     1       7.904  -5.125  30.967  1.00  0.00     0.007 A 
HETATM   10  C12 UNL     1       8.009  -4.147  31.939  1.00  0.00     0.106 A 
HETATM   11  N4  UNL     1       9.316  -4.101  32.362  1.00  0.00    -0.337 N 
ENDROOT
BRANCH  11  12
HETATM   12  C13 UNL     1       9.817  -3.181  33.371  1.00  0.00     0.093 C 
HETATM   13  C14 UNL     1      10.689  -2.040  32.812  1.00  0.00     0.028 C 
HETATM   14  C15 UNL     1      12.048  -2.200  33.481  1.00  0.00     0.034 C 
HETATM   15  C16 UNL     1      11.715  -2.843  34.818  1.00  0.00     0.120 C 
HETATM   16  C17 UNL     1      10.643  -3.864  34.468  1.00  0.00     0.057 C 
BRANCH  15  17
HETATM   17  O1  UNL     1      12.846  -3.448  35.410  1.00  0.00    -0.396 OA
HETATM   18  H16 UNL     1      13.209  -4.094  34.779  1.00  0.00     0.210 HD
ENDBRANCH  15  17
ENDBRANCH  11  12
BRANCH   9  19
HETATM   19  C6  UNL     1       6.654  -5.409  30.286  1.00  0.00    -0.024 A 
HETATM   20  C7  UNL     1       6.524  -6.552  29.487  1.00  0.00     0.012 A 
HETATM   21  C8  UNL     1       5.322  -6.818  28.828  1.00  0.00     0.001 A 
HETATM   22  C9  UNL     1       4.243  -5.944  28.963  1.00  0.00     0.000 A 
HETATM   23  C10 UNL     1       4.365  -4.805  29.759  1.00  0.00     0.001 A 
HETATM   24  C11 UNL     1       5.566  -4.539  30.420  1.00  0.00     0.012 A 
ENDBRANCH   9  19
BRANCH   1  25
HETATM   25  N1  UNL     1       9.080  -7.509  29.121  1.00  0.00    -0.288 NA
HETATM   26  H1  UNL     1       8.098  -7.625  29.336  1.00  0.00     0.125 HD
HETATM   27  H2  UNL     1       9.596  -8.355  28.909  1.00  0.00     0.125 HD
ENDBRANCH   1  25
TORSDOF 4
ENDMDL
MODEL 3
REMARK minimizedAffinity -8.71316051
REMARK  4 active torsions:
REMARK  status: ('A' for Active; 'I' for Inactive)
REMARK    1  A    between atoms: N1_1  and  C1_2 
REMARK    2  A    between atoms: C5_10  and  C6_11 
REMARK    3  A    between atoms: N4_18  and  C13_19 
REMARK    4  A    between atoms: C16_22  and  O1_23 
ROOT
HETATM    1  C1  UNL     1       5.555  -3.749  30.525  1.00  0.00     0.093 A 
HETATM    2  N2  UNL     1       5.607  -2.587  31.206  1.00  0.00    -0.343 N 
ATOM      3  H2  UNL     1       4.813  -1.946  31.209  1.00  0.00     0.167 HD
HETATM    4  C2  UNL     1       6.731  -2.293  31.881  1.00  0.00     0.183 A 
HETATM    5  N3  UNL     1       7.861  -3.014  31.965  1.00  0.00    -0.338 N 
ATOM      6  H3  UNL     1       8.687  -2.725  32.490  1.00  0.00     0.168 HD
HETATM    7  C3  UNL     1       7.771  -4.163  31.273  1.00  0.00     0.123 A 
HETATM    8  C4  UNL     1       6.671  -4.603  30.544  1.00  0.00     0.059 A 
HETATM    9  C5  UNL     1       7.029  -5.868  29.981  1.00  0.00     0.007 A 
HETATM   10  C12 UNL     1       8.324  -6.145  30.378  1.00  0.00     0.106 A 
HETATM   11  N4  UNL     1       8.762  -5.108  31.168  1.00  0.00    -0.337 N 
ENDROOT
BRANCH  11  12
HETATM   12  C13 UNL     1      10.076  -5.051  31.786  1.00  0.00     0.093 C 
HETATM   13  C14 UNL     1      10.078  -5.336  33.300  1.00  0.00     0.028 C 
HETATM   14  C15 UNL     1      10.635  -4.077  33.953  1.00  0.00     0.034 C 
HETATM   15  C16 UNL     1      11.560  -3.503  32.890  1.00  0.00     0.120 C 
HETATM   16  C17 UNL     1      10.786  -3.704  31.595  1.00  0.00     0.057 C 
BRANCH  15  17
HETATM   17  O1  UNL     1      11.852  -2.140  33.123  1.00  0.00    -0.396 OA
HETATM   18  H16 UNL     1      11.010  -1.654  33.171  1.00  0.00     0.210 HD
ENDBRANCH  15  17
ENDBRANCH  11  12
BRANCH   9  19
HETATM   19  C6  UNL     1       6.258  -6.783  29.159  1.00  0.00    -0.024 A 
HETATM   20  C7  UNL     1       6.822  -7.986  28.716  1.00  0.00     0.012 A 
HETATM   21  C8  UNL     1       6.080  -8.861  27.920  1.00  0.00     0.001 A 
HETATM   22  C9  UNL     1       4.771  -8.539  27.562  1.00  0.00     0.000 A 
HETATM   23  C10 UNL     1       4.203  -7.344  28.001  1.00  0.00     0.001 A 
HETATM   24  C11 UNL     1       4.943  -6.469  28.799  1.00  0.00     0.012 A 
ENDBRANCH   9  19
BRANCH   1  25
HETATM   25  N1  UNL     1       4.384  -4.008  29.825  1.00  0.00    -0.288 NA
HETATM   26  H1  UNL     1       4.504  -4.592  29.008  1.00  0.00     0.125 HD
HETATM   27  H2  UNL     1       3.851  -3.157  29.695  1.00  0.00     0.125 HD
ENDBRANCH   1  25
TORSDOF 4
ENDMDL
MODEL 4
REMARK minimizedAffinity -8.48985291
REMARK  4 active torsions:
REMARK  status: ('A' for Active; 'I' for Inactive)
REMARK    1  A    between atoms: N1_1  and  C1_2 
REMARK    2  A    between atoms: C5_10  and  C6_11 
REMARK    3  A    between atoms: N4_18  and  C13_19 
REMARK    4  A    between atoms: C16_22  and  O1_23 
ROOT
HETATM    1  C1  UNL     1      11.772  -6.343  30.294  1.00  0.00     0.093 A 
HETATM    2  N2  UNL     1      11.903  -7.262  29.316  1.00  0.00    -0.343 N 
ATOM      3  H2  UNL     1      12.824  -7.601  29.037  1.00  0.00     0.167 HD
HETATM    4  C2  UNL     1      10.791  -7.719  28.716  1.00  0.00     0.183 A 
HETATM    5  N3  UNL     1       9.517  -7.367  28.952  1.00  0.00    -0.338 N 
ATOM      6  H3  UNL     1       8.715  -7.749  28.449  1.00  0.00     0.168 HD
HETATM    7  C3  UNL     1       9.426  -6.450  29.931  1.00  0.00     0.123 A 
HETATM    8  C4  UNL     1      10.485  -5.900  30.646  1.00  0.00     0.059 A 
HETATM    9  C5  UNL     1       9.917  -4.976  31.578  1.00  0.00     0.007 A 
HETATM   10  C12 UNL     1       8.547  -4.993  31.392  1.00  0.00     0.106 A 
HETATM   11  N4  UNL     1       8.259  -5.895  30.397  1.00  0.00    -0.337 N 
ENDROOT
BRANCH  11  12
HETATM   12  C13 UNL     1       6.916  -6.199  29.931  1.00  0.00     0.093 C 
HETATM   13  C14 UNL     1       6.629  -5.750  28.486  1.00  0.00     0.028 C 
HETATM   14  C15 UNL     1       5.472  -4.764  28.586  1.00  0.00     0.034 C 
HETATM   15  C16 UNL     1       4.711  -5.230  29.818  1.00  0.00     0.120 C 
HETATM   16  C17 UNL     1       5.811  -5.590  30.805  1.00  0.00     0.057 C 
BRANCH  15  17
HETATM   17  O1  UNL     1       3.856  -4.225  30.324  1.00  0.00    -0.396 OA
HETATM   18  H16 UNL     1       4.395  -3.435  30.509  1.00  0.00     0.210 HD
ENDBRANCH  15  17
ENDBRANCH  11  12
BRANCH   9  19
HETATM   19  C6  UNL     1      10.553  -4.147  32.586  1.00  0.00    -0.024 A 
HETATM   20  C7  UNL     1      10.422  -4.456  33.946  1.00  0.00     0.012 A 
HETATM   21  C8  UNL     1      11.029  -3.652  34.913  1.00  0.00     0.001 A 
HETATM   22  C9  UNL     1      11.770  -2.535  34.527  1.00  0.00     0.000 A 
HETATM   23  C10 UNL     1      11.907  -2.223  33.175  1.00  0.00     0.001 A 
HETATM   24  C11 UNL     1      11.301  -3.028  32.207  1.00  0.00     0.012 A 
ENDBRANCH   9  19
BRANCH   1  25
HETATM   25  N1  UNL     1      12.944  -5.881  30.875  1.00  0.00    -0.288 NA
HETATM   26  H1  UNL     1      12.889  -4.939  31.240  1.00  0.00     0.125 HD
HETATM   27  H2  UNL     1      13.741  -6.088  30.285  1.00  0.00     0.125 HD
ENDBRANCH   1  25
TORSDOF 4
ENDMDL
MODEL 5
REMARK minimizedAffinity -8.24931145
REMARK  4 active torsions:
REMARK  status: ('A' for Active; 'I' for Inactive)
REMARK    1  A    between atoms: N1_1  and  C1_2 
REMARK    2  A    between atoms: C5_10  and  C6_11 
REMARK    3  A    between atoms: N4_18  and  C13_19 
REMARK    4  A    between atoms: C16_22  and  O1_23 
ROOT
HETATM    1  C1  UNL     1      10.068  -5.177  27.092  1.00  0.00     0.093 A 
HETATM    2  N2  UNL     1      10.929  -4.240  26.647  1.00  0.00    -0.343 N 
ATOM      3  H2  UNL     1      11.219  -4.218  25.669  1.00  0.00     0.167 HD
HETATM    4  C2  UNL     1      11.396  -3.335  27.524  1.00  0.00     0.183 A 
HETATM    5  N3  UNL     1      11.129  -3.235  28.836  1.00  0.00    -0.338 N 
ATOM      6  H3  UNL     1      11.529  -2.526  29.450  1.00  0.00     0.168 HD
HETATM    7  C3  UNL     1      10.269  -4.186  29.242  1.00  0.00     0.123 A 
HETATM    8  C4  UNL     1       9.697  -5.174  28.448  1.00  0.00     0.059 A 
HETATM    9  C5  UNL     1       8.855  -5.953  29.302  1.00  0.00     0.007 A 
HETATM   10  C12 UNL     1       8.953  -5.420  30.574  1.00  0.00     0.106 A 
HETATM   11  N4  UNL     1       9.807  -4.345  30.525  1.00  0.00    -0.337 N 
ENDROOT
BRANCH  11  12
HETATM   12  C13 UNL     1      10.147  -3.518  31.672  1.00  0.00     0.093 C 
HETATM   13  C14 UNL     1       9.432  -2.154  31.704  1.00  0.00     0.028 C 
HETATM   14  C15 UNL     1      10.542  -1.110  31.676  1.00  0.00     0.034 C 
HETATM   15  C16 UNL     1      11.709  -1.813  32.353  1.00  0.00     0.120 C 
HETATM   16  C17 UNL     1      11.648  -3.227  31.796  1.00  0.00     0.057 C 
BRANCH  15  17
HETATM   17  O1  UNL     1      12.943  -1.186  32.064  1.00  0.00    -0.396 OA
HETATM   18  H16 UNL     1      13.049  -1.157  31.097  1.00  0.00     0.210 HD
ENDBRANCH  15  17
ENDBRANCH  11  12
BRANCH   9  19
HETATM   19  C6  UNL     1       8.000  -7.087  29.000  1.00  0.00    -0.024 A 
HETATM   20  C7  UNL     1       8.501  -8.393  29.075  1.00  0.00     0.012 A 
HETATM   21  C8  UNL     1       7.678  -9.481  28.777  1.00  0.00     0.001 A 
HETATM   22  C9  UNL     1       6.351  -9.271  28.404  1.00  0.00     0.000 A 
HETATM   23  C10 UNL     1       5.845  -7.974  28.330  1.00  0.00     0.001 A 
HETATM   24  C11 UNL     1       6.667  -6.885  28.629  1.00  0.00     0.012 A 
ENDBRANCH   9  19
BRANCH   1  25
HETATM   25  N1  UNL     1       9.623  -6.105  26.161  1.00  0.00    -0.288 NA
HETATM   26  H1  UNL     1       9.377  -7.006  26.551  1.00  0.00     0.125 HD
HETATM   27  H2  UNL     1      10.230  -6.117  25.351  1.00  0.00     0.125 HD
ENDBRANCH   1  25
TORSDOF 4
ENDMDL
MODEL 6
REMARK minimizedAffinity -8.11811543
REMARK  4 active torsions:
REMARK  status: ('A' for Active; 'I' for Inactive)
REMARK    1  A    between atoms: N1_1  and  C1_2 
REMARK    2  A    between atoms: C5_10  and  C6_11 
REMARK    3  A    between atoms: N4_18  and  C13_19 
REMARK    4  A    between atoms: C16_22  and  O1_23 
ROOT
HETATM    1  C1  UNL     1       8.913  -5.878  27.756  1.00  0.00     0.093 A 
HETATM    2  N2  UNL     1      10.191  -5.473  27.611  1.00  0.00    -0.343 N 
ATOM      3  H2  UNL     1      10.706  -5.665  26.751  1.00  0.00     0.167 HD
HETATM    4  C2  UNL     1      10.770  -4.812  28.628  1.00  0.00     0.183 A 
HETATM    5  N3  UNL     1      10.241  -4.496  29.820  1.00  0.00    -0.338 N 
ATOM      6  H3  UNL     1      10.743  -3.999  30.556  1.00  0.00     0.168 HD
HETATM    7  C3  UNL     1       8.968  -4.917  29.927  1.00  0.00     0.123 A 
HETATM    8  C4  UNL     1       8.240  -5.597  28.957  1.00  0.00     0.059 A 
HETATM    9  C5  UNL     1       6.942  -5.837  29.508  1.00  0.00     0.007 A 
HETATM   10  C12 UNL     1       6.932  -5.306  30.785  1.00  0.00     0.106 A 
HETATM   11  N4  UNL     1       8.162  -4.744  31.026  1.00  0.00    -0.337 N 
ENDROOT
BRANCH  11  12
HETATM   12  C13 UNL     1       8.526  -4.072  32.263  1.00  0.00     0.093 C 
HETATM   13  C14 UNL     1       8.753  -2.555  32.118  1.00  0.00     0.028 C 
HETATM   14  C15 UNL     1      10.197  -2.316  32.541  1.00  0.00     0.034 C 
HETATM   15  C16 UNL     1      10.464  -3.427  33.544  1.00  0.00     0.120 C 
HETATM   16  C17 UNL     1       9.789  -4.641  32.923  1.00  0.00     0.057 C 
BRANCH  15  17
HETATM   17  O1  UNL     1      11.847  -3.638  33.743  1.00  0.00    -0.396 OA
HETATM   18  H16 UNL     1      12.252  -3.827  32.878  1.00  0.00     0.210 HD
ENDBRANCH  15  17
ENDBRANCH  11  12
BRANCH   9  19
HETATM   19  C6  UNL     1       5.778  -6.480  28.926  1.00  0.00    -0.024 A 
HETATM   20  C7  UNL     1       4.528  -5.848  28.959  1.00  0.00     0.012 A 
HETATM   21  C8  UNL     1       3.408  -6.473  28.405  1.00  0.00     0.001 A 
HETATM   22  C9  UNL     1       3.532  -7.730  27.815  1.00  0.00     0.000 A 
HETATM   23  C10 UNL     1       4.773  -8.363  27.776  1.00  0.00     0.001 A 
HETATM   24  C11 UNL     1       5.894  -7.739  28.329  1.00  0.00     0.012 A 
ENDBRANCH   9  19
BRANCH   1  25
HETATM   25  N1  UNL     1       8.357  -6.574  26.692  1.00  0.00    -0.288 NA
HETATM   26  H1  UNL     1       7.632  -7.231  26.952  1.00  0.00     0.125 HD
HETATM   27  H2  UNL     1       9.082  -6.927  26.078  1.00  0.00     0.125 HD
ENDBRANCH   1  25
TORSDOF 4
ENDMDL
MODEL 7
REMARK minimizedAffinity -8.10936832
REMARK  4 active torsions:
REMARK  status: ('A' for Active; 'I' for Inactive)
REMARK    1  A    between atoms: N1_1  and  C1_2 
REMARK    2  A    between atoms: C5_10  and  C6_11 
REMARK    3  A    between atoms: N4_18  and  C13_19 
REMARK    4  A    between atoms: C16_22  and  O1_23 
ROOT
HETATM    1  C1  UNL     1      10.381  -4.739  28.357  1.00  0.00     0.093 A 
HETATM    2  N2  UNL     1      10.268  -5.316  27.143  1.00  0.00    -0.343 N 
ATOM      3  H2  UNL     1      10.993  -5.193  26.436  1.00  0.00     0.167 HD
HETATM    4  C2  UNL     1       9.176  -6.057  26.889  1.00  0.00     0.183 A 
HETATM    5  N3  UNL     1       8.132  -6.302  27.697  1.00  0.00    -0.338 N 
ATOM      6  H3  UNL     1       7.325  -6.869  27.434  1.00  0.00     0.168 HD
HETATM    7  C3  UNL     1       8.281  -5.710  28.895  1.00  0.00     0.123 A 
HETATM    8  C4  UNL     1       9.358  -4.930  29.302  1.00  0.00     0.059 A 
HETATM    9  C5  UNL     1       9.084  -4.516  30.643  1.00  0.00     0.007 A 
HETATM   10  C12 UNL     1       7.857  -5.047  30.996  1.00  0.00     0.106 A 
HETATM   11  N4  UNL     1       7.382  -5.776  29.932  1.00  0.00    -0.337 N 
ENDROOT
BRANCH  11  12
HETATM   12  C13 UNL     1       6.120  -6.498  29.934  1.00  0.00     0.093 C 
HETATM   13  C14 UNL     1       6.067  -7.684  28.951  1.00  0.00     0.028 C 
HETATM   14  C15 UNL     1       4.927  -7.368  27.991  1.00  0.00     0.034 C 
HETATM   15  C16 UNL     1       3.977  -6.526  28.830  1.00  0.00     0.120 C 
HETATM   16  C17 UNL     1       4.906  -5.615  29.618  1.00  0.00     0.057 C 
BRANCH  15  17
HETATM   17  O1  UNL     1       3.074  -5.791  28.028  1.00  0.00    -0.396 OA
HETATM   18  H16 UNL     1       3.592  -5.246  27.411  1.00  0.00     0.210 HD
ENDBRANCH  15  17
ENDBRANCH  11  12
BRANCH   9  19
HETATM   19  C6  UNL     1       9.874  -3.715  31.560  1.00  0.00    -0.024 A 
HETATM   20  C7  UNL     1      10.849  -4.314  32.367  1.00  0.00     0.012 A 
HETATM   21  C8  UNL     1      11.603  -3.541  33.254  1.00  0.00     0.001 A 
HETATM   22  C9  UNL     1      11.387  -2.166  33.337  1.00  0.00     0.000 A 
HETATM   23  C10 UNL     1      10.421  -1.562  32.534  1.00  0.00     0.001 A 
HETATM   24  C11 UNL     1       9.667  -2.334  31.646  1.00  0.00     0.012 A 
ENDBRANCH   9  19
BRANCH   1  25
HETATM   25  N1  UNL     1      11.513  -3.966  28.575  1.00  0.00    -0.288 NA
HETATM   26  H1  UNL     1      11.388  -3.218  29.244  1.00  0.00     0.125 HD
HETATM   27  H2  UNL     1      11.948  -3.715  27.696  1.00  0.00     0.125 HD
ENDBRANCH   1  25
TORSDOF 4
ENDMDL
MODEL 8
REMARK minimizedAffinity -8.10283279
REMARK  4 active torsions:
REMARK  status: ('A' for Active; 'I' for Inactive)
REMARK    1  A    between atoms: N1_1  and  C1_2 
REMARK    2  A    between atoms: C5_10  and  C6_11 
REMARK    3  A    between atoms: N4_18  and  C13_19 
REMARK    4  A    between atoms: C16_22  and  O1_23 
ROOT
HETATM    1  C1  UNL     1       5.196  -4.540  30.172  1.00  0.00     0.093 A 
HETATM    2  N2  UNL     1       4.864  -3.393  30.799  1.00  0.00    -0.343 N 
ATOM      3  H2  UNL     1       3.914  -3.024  30.746  1.00  0.00     0.167 HD
HETATM    4  C2  UNL     1       5.816  -2.748  31.494  1.00  0.00     0.183 A 
HETATM    5  N3  UNL     1       7.106  -3.087  31.647  1.00  0.00    -0.338 N 
ATOM      6  H3  UNL     1       7.782  -2.542  32.183  1.00  0.00     0.168 HD
HETATM    7  C3  UNL     1       7.398  -4.234  31.008  1.00  0.00     0.123 A 
HETATM    8  C4  UNL     1       6.516  -5.012  30.266  1.00  0.00     0.059 A 
HETATM    9  C5  UNL     1       7.264  -6.128  29.775  1.00  0.00     0.007 A 
HETATM   10  C12 UNL     1       8.563  -5.984  30.225  1.00  0.00     0.106 A 
HETATM   11  N4  UNL     1       8.632  -4.836  30.978  1.00  0.00    -0.337 N 
ENDROOT
BRANCH  11  12
HETATM   12  C13 UNL     1       9.839  -4.360  31.634  1.00  0.00     0.093 C 
HETATM   13  C14 UNL     1      10.483  -3.132  30.963  1.00  0.00     0.028 C 
HETATM   14  C15 UNL     1      11.882  -3.576  30.554  1.00  0.00     0.034 C 
HETATM   15  C16 UNL     1      12.233  -4.640  31.583  1.00  0.00     0.120 C 
HETATM   16  C17 UNL     1      10.939  -5.424  31.744  1.00  0.00     0.057 C 
BRANCH  15  17
HETATM   17  O1  UNL     1      13.297  -5.464  31.150  1.00  0.00    -0.396 OA
HETATM   18  H16 UNL     1      13.047  -5.856  30.294  1.00  0.00     0.210 HD
ENDBRANCH  15  17
ENDBRANCH  11  12
BRANCH   9  19
HETATM   19  C6  UNL     1       6.843  -7.263  28.973  1.00  0.00    -0.024 A 
HETATM   20  C7  UNL     1       7.454  -8.512  29.136  1.00  0.00     0.012 A 
HETATM   21  C8  UNL     1       7.051  -9.600  28.358  1.00  0.00     0.001 A 
HETATM   22  C9  UNL     1       6.036  -9.445  27.414  1.00  0.00     0.000 A 
HETATM   23  C10 UNL     1       5.422  -8.205  27.249  1.00  0.00     0.001 A 
HETATM   24  C11 UNL     1       5.822  -7.117  28.028  1.00  0.00     0.012 A 
ENDBRANCH   9  19
BRANCH   1  25
HETATM   25  N1  UNL     1       4.190  -5.167  29.449  1.00  0.00    -0.288 NA
HETATM   26  H1  UNL     1       4.517  -5.716  28.664  1.00  0.00     0.125 HD
HETATM   27  H2  UNL     1       3.431  -4.523  29.261  1.00  0.00     0.125 HD
ENDBRANCH   1  25
TORSDOF 4
ENDMDL
MODEL 9
REMARK minimizedAffinity -8.09272671
REMARK  4 active torsions:
REMARK  status: ('A' for Active; 'I' for Inactive)
REMARK    1  A    between atoms: N1_1  and  C1_2 
REMARK    2  A    between atoms: C5_10  and  C6_11 
REMARK    3  A    between atoms: N4_18  and  C13_19 
REMARK    4  A    between atoms: C16_22  and  O1_23 
ROOT
HETATM    1  C1  UNL     1       5.811  -5.184  29.740  1.00  0.00     0.093 A 
HETATM    2  N2  UNL     1       4.896  -4.247  30.061  1.00  0.00    -0.343 N 
ATOM      3  H2  UNL     1       3.942  -4.304  29.704  1.00  0.00     0.167 HD
HETATM    4  C2  UNL     1       5.271  -3.237  30.864  1.00  0.00     0.183 A 
HETATM    5  N3  UNL     1       6.480  -3.009  31.401  1.00  0.00    -0.338 N 
ATOM      6  H3  UNL     1       6.701  -2.211  31.997  1.00  0.00     0.168 HD
HETATM    7  C3  UNL     1       7.365  -3.962  31.058  1.00  0.00     0.123 A 
HETATM    8  C4  UNL     1       7.115  -5.067  30.251  1.00  0.00     0.059 A 
HETATM    9  C5  UNL     1       8.341  -5.798  30.162  1.00  0.00     0.007 A 
HETATM   10  C12 UNL     1       9.285  -5.112  30.905  1.00  0.00     0.106 A 
HETATM   11  N4  UNL     1       8.681  -4.005  31.450  1.00  0.00    -0.337 N 
ENDROOT
BRANCH  11  12
HETATM   12  C13 UNL     1       9.355  -3.046  32.309  1.00  0.00     0.093 C 
HETATM   13  C14 UNL     1       9.133  -1.573  31.912  1.00  0.00     0.028 C 
HETATM   14  C15 UNL     1      10.520  -1.018  31.611  1.00  0.00     0.034 C 
HETATM   15  C16 UNL     1      11.436  -1.844  32.502  1.00  0.00     0.120 C 
HETATM   16  C17 UNL     1      10.873  -3.253  32.388  1.00  0.00     0.057 C 
BRANCH  15  17
HETATM   17  O1  UNL     1      12.783  -1.779  32.079  1.00  0.00    -0.396 OA
HETATM   18  H16 UNL     1      12.824  -2.069  31.151  1.00  0.00     0.210 HD
ENDBRANCH  15  17
ENDBRANCH  11  12
BRANCH   9  19
HETATM   19  C6  UNL     1       8.647  -7.041  29.477  1.00  0.00    -0.024 A 
HETATM   20  C7  UNL     1       9.899  -7.231  28.878  1.00  0.00     0.012 A 
HETATM   21  C8  UNL     1      10.188  -8.426  28.214  1.00  0.00     0.001 A 
HETATM   22  C9  UNL     1       9.228  -9.435  28.145  1.00  0.00     0.000 A 
HETATM   23  C10 UNL     1       7.982  -9.254  28.742  1.00  0.00     0.001 A 
HETATM   24  C11 UNL     1       7.692  -8.061  29.408  1.00  0.00     0.012 A 
ENDBRANCH   9  19
BRANCH   1  25
HETATM   25  N1  UNL     1       5.390  -6.200  28.894  1.00  0.00    -0.288 NA
HETATM   26  H1  UNL     1       6.123  -6.602  28.323  1.00  0.00     0.125 HD
HETATM   27  H2  UNL     1       4.540  -5.935  28.412  1.00  0.00     0.125 HD
ENDBRANCH   1  25
TORSDOF 4
ENDMDL
