MODEL 1
REMARK minimizedAffinity -9.14774036
REMARK CNNscore 0.673698962
REMARK CNNaffinity 7.66808558
REMARK  7 active torsions:
REMARK  status: ('A' for Active; 'I' for Inactive)
REMARK    1  A    between atoms: N2_5  and  C4_6 
REMARK    2  A    between atoms: C7_9  and  N3_10 
REMARK    3  A    between atoms: N3_10  and  C8_11 
REMARK    4  A    between atoms: C12_17  and  C13_18 
REMARK    5  A    between atoms: C13_18  and  N5_19 
REMARK    6  A    between atoms: N5_19  and  C14_20 
REMARK    7  A    between atoms: N6_26  and  C20_27 
ROOT
HETATM    1  C8  UNL     1       3.893  -5.883  28.989  1.00  0.00     0.684 A 
HETATM    2  N4  UNL     1       3.617  -4.895  29.863  1.00  0.00    -0.201 N 
ATOM      3  H4  UNL     1       2.666  -4.534  29.946  1.00  0.00     0.183 HD
HETATM    4  C9  UNL     1       4.606  -4.386  30.628  1.00  0.00     0.121 A 
HETATM    5  C10 UNL     1       5.892  -4.891  30.511  1.00  0.00     0.027 A 
HETATM    6  C11 UNL     1       7.150  -4.649  31.108  1.00  0.00     0.043 A 
HETATM    7  C12 UNL     1       8.070  -5.522  30.551  1.00  0.00     0.028 A 
HETATM    8  N6  UNL     1       7.389  -6.301  29.625  1.00  0.00    -0.330 N 
HETATM    9  C25 UNL     1       6.067  -5.904  29.588  1.00  0.00     0.135 A 
HETATM   10  N7  UNL     1       5.110  -6.421  28.799  1.00  0.00    -0.175 N 
ATOM     11  H7  UNL     1       5.292  -7.157  28.115  1.00  0.00     0.186 HD
ENDROOT
BRANCH   1  12
HETATM   12  N3  UNL     1       2.897  -6.430  28.180  1.00  0.00    -0.192 N 
HETATM   13  H10 UNL     1       2.508  -5.694  27.610  1.00  0.00     0.184 HD
BRANCH  12  14
HETATM   14  C7  UNL     1       2.537  -7.738  27.843  1.00  0.00     0.049 A 
HETATM   15  C6  UNL     1       1.228  -8.211  27.829  1.00  0.00     0.032 A 
HETATM   16  C5  UNL     1       0.932  -9.534  27.461  1.00  0.00     0.031 A 
HETATM   17  C4  UNL     1       1.925 -10.445  27.080  1.00  0.00     0.030 A 
HETATM   18  C27 UNL     1       3.235  -9.949  27.065  1.00  0.00     0.031 A 
HETATM   19  C26 UNL     1       3.535  -8.627  27.434  1.00  0.00     0.032 A 
BRANCH  17  20
HETATM   20  N2  UNL     1       1.635 -11.751  26.720  1.00  0.00    -0.378 N 
HETATM   21  C3  UNL     1       1.476 -12.803  27.740  1.00  0.00     0.153 C 
HETATM   22  C2  UNL     1       0.433 -13.861  27.304  1.00  0.00     0.291 C 
HETATM   23  N1  UNL     1       0.666 -14.499  25.991  1.00  0.00     0.087 N 
HETATM   24  C1  UNL     1       1.334 -15.790  26.128  1.00  0.00     0.310 C 
HETATM   25  C29 UNL     1       1.438 -13.611  25.093  1.00  0.00     0.291 C 
HETATM   26  C28 UNL     1       1.222 -12.103  25.352  1.00  0.00     0.153 C 
ENDBRANCH  17  20
ENDBRANCH  12  14
ENDBRANCH   1  12
BRANCH   8  27
HETATM   27  C20 UNL     1       7.949  -7.372  28.815  1.00  0.00     0.091 C 
HETATM   28  C21 UNL     1       9.488  -7.381  28.715  1.00  0.00     0.026 C 
HETATM   29  C22 UNL     1       9.925  -8.756  29.211  1.00  0.00     0.002 C 
HETATM   30  C23 UNL     1       8.732  -9.651  28.924  1.00  0.00     0.002 C 
HETATM   31  C24 UNL     1       7.544  -8.776  29.289  1.00  0.00     0.026 C 
ENDBRANCH   8  27
BRANCH   7  32
HETATM   32  C13 UNL     1       9.526  -5.658  30.873  1.00  0.00     0.149 C 
BRANCH  32  33
HETATM   33  N5  UNL     1      10.152  -4.408  31.293  1.00  0.00    -0.287 NA
HETATM   34  H15 UNL     1      10.961  -4.196  30.717  1.00  0.00     0.128 HD
BRANCH  33  35
HETATM   35  C14 UNL     1      10.452  -4.195  32.646  1.00  0.00     0.008 A 
HETATM   36  C15 UNL     1       9.555  -4.446  33.690  1.00  0.00     0.023 A 
HETATM   37  C16 UNL     1       9.888  -4.156  35.019  1.00  0.00     0.002 A 
HETATM   38  C17 UNL     1      11.116  -3.579  35.324  1.00  0.00     0.000 A 
HETATM   39  C18 UNL     1      12.004  -3.278  34.297  1.00  0.00     0.002 A 
HETATM   40  C19 UNL     1      11.665  -3.569  32.972  1.00  0.00     0.023 A 
ENDBRANCH  33  35
ENDBRANCH  32  33
ENDBRANCH   7  32
TORSDOF 7
ENDMDL
MODEL 2
REMARK minimizedAffinity -7.17928791
REMARK CNNscore 0.464069158
REMARK CNNaffinity 5.66667366
REMARK  7 active torsions:
REMARK  status: ('A' for Active; 'I' for Inactive)
REMARK    1  A    between atoms: N2_5  and  C4_6 
REMARK    2  A    between atoms: C7_9  and  N3_10 
REMARK    3  A    between atoms: N3_10  and  C8_11 
REMARK    4  A    between atoms: C12_17  and  C13_18 
REMARK    5  A    between atoms: C13_18  and  N5_19 
REMARK    6  A    between atoms: N5_19  and  C14_20 
REMARK    7  A    between atoms: N6_26  and  C20_27 
ROOT
HETATM    1  C8  UNL     1       5.836   5.877  43.277  1.00  0.00     0.684 A 
HETATM    2  N4  UNL     1       4.842   5.063  42.873  1.00  0.00    -0.201 N 
ATOM      3  H4  UNL     1       4.599   4.237  43.422  1.00  0.00     0.183 HD
HETATM    4  C9  UNL     1       4.168   5.347  41.737  1.00  0.00     0.121 A 
HETATM    5  C10 UNL     1       4.502   6.476  41.006  1.00  0.00     0.027 A 
HETATM    6  C11 UNL     1       4.056   7.102  39.820  1.00  0.00     0.043 A 
HETATM    7  C12 UNL     1       4.813   8.246  39.623  1.00  0.00     0.028 A 
HETATM    8  N6  UNL     1       5.711   8.331  40.677  1.00  0.00    -0.330 N 
HETATM    9  C25 UNL     1       5.535   7.243  41.509  1.00  0.00     0.135 A 
HETATM   10  N7  UNL     1       6.237   6.982  42.624  1.00  0.00    -0.175 N 
ATOM     11  H7  UNL     1       7.007   7.569  42.947  1.00  0.00     0.186 HD
ENDROOT
BRANCH   1  12
HETATM   12  N3  UNL     1       6.555   5.613  44.443  1.00  0.00    -0.192 N 
HETATM   13  H10 UNL     1       7.416   6.141  44.414  1.00  0.00     0.184 HD
BRANCH  12  14
HETATM   14  C7  UNL     1       6.230   5.015  45.664  1.00  0.00     0.049 A 
HETATM   15  C6  UNL     1       6.735   3.792  46.095  1.00  0.00     0.032 A 
HETATM   16  C5  UNL     1       6.382   3.255  47.345  1.00  0.00     0.031 A 
HETATM   17  C4  UNL     1       5.518   3.916  48.227  1.00  0.00     0.030 A 
HETATM   18  C27 UNL     1       5.043   5.161  47.797  1.00  0.00     0.031 A 
HETATM   19  C26 UNL     1       5.392   5.701  46.548  1.00  0.00     0.032 A 
BRANCH  17  20
HETATM   20  N2  UNL     1       5.167   3.385  49.457  1.00  0.00    -0.378 N 
HETATM   21  C3  UNL     1       5.745   3.912  50.706  1.00  0.00     0.153 C 
HETATM   22  C2  UNL     1       4.736   3.827  51.877  1.00  0.00     0.291 C 
HETATM   23  N1  UNL     1       4.163   2.491  52.143  1.00  0.00     0.087 N 
HETATM   24  C1  UNL     1       4.868   1.804  53.221  1.00  0.00     0.310 C 
HETATM   25  C29 UNL     1       4.153   1.659  50.920  1.00  0.00     0.291 C 
HETATM   26  C28 UNL     1       4.030   2.463  49.605  1.00  0.00     0.153 C 
ENDBRANCH  17  20
ENDBRANCH  12  14
ENDBRANCH   1  12
BRANCH   8  27
HETATM   27  C20 UNL     1       6.688   9.387  40.899  1.00  0.00     0.091 C 
HETATM   28  C21 UNL     1       7.771   9.517  39.809  1.00  0.00     0.026 C 
HETATM   29  C22 UNL     1       7.680  10.955  39.307  1.00  0.00     0.002 C 
HETATM   30  C23 UNL     1       7.114  11.725  40.487  1.00  0.00     0.002 C 
HETATM   31  C24 UNL     1       6.062  10.781  41.048  1.00  0.00     0.026 C 
ENDBRANCH   8  27
BRANCH   7  32
HETATM   32  C13 UNL     1       4.700   9.246  38.514  1.00  0.00     0.149 C 
BRANCH  32  33
HETATM   33  N5  UNL     1       3.532   9.049  37.662  1.00  0.00    -0.287 NA
HETATM   34  H15 UNL     1       2.813   8.523  38.149  1.00  0.00     0.128 HD
BRANCH  33  35
HETATM   35  C14 UNL     1       3.691   8.559  36.358  1.00  0.00     0.008 A 
HETATM   36  C15 UNL     1       4.456   9.197  35.375  1.00  0.00     0.023 A 
HETATM   37  C16 UNL     1       4.528   8.694  34.071  1.00  0.00     0.002 A 
HETATM   38  C17 UNL     1       3.810   7.556  33.718  1.00  0.00     0.000 A 
HETATM   39  C18 UNL     1       3.007   6.932  34.665  1.00  0.00     0.002 A 
HETATM   40  C19 UNL     1       2.937   7.441  35.966  1.00  0.00     0.023 A 
ENDBRANCH  33  35
ENDBRANCH  32  33
ENDBRANCH   7  32
TORSDOF 7
ENDMDL
MODEL 3
REMARK minimizedAffinity -7.3970871
REMARK CNNscore 0.39660418
REMARK CNNaffinity 5.4288063
REMARK  7 active torsions:
REMARK  status: ('A' for Active; 'I' for Inactive)
REMARK    1  A    between atoms: N2_5  and  C4_6 
REMARK    2  A    between atoms: C7_9  and  N3_10 
REMARK    3  A    between atoms: N3_10  and  C8_11 
REMARK    4  A    between atoms: C12_17  and  C13_18 
REMARK    5  A    between atoms: C13_18  and  N5_19 
REMARK    6  A    between atoms: N5_19  and  C14_20 
REMARK    7  A    between atoms: N6_26  and  C20_27 
ROOT
HETATM    1  C8  UNL     1       7.421   5.671  45.659  1.00  0.00     0.684 A 
HETATM    2  N4  UNL     1       8.566   6.282  46.024  1.00  0.00    -0.201 N 
ATOM      3  H4  UNL     1       9.110   5.925  46.810  1.00  0.00     0.183 HD
HETATM    4  C9  UNL     1       8.988   7.369  45.343  1.00  0.00     0.121 A 
HETATM    5  C10 UNL     1       8.244   7.839  44.271  1.00  0.00     0.027 A 
HETATM    6  C11 UNL     1       8.341   8.893  43.337  1.00  0.00     0.043 A 
HETATM    7  C12 UNL     1       7.252   8.817  42.482  1.00  0.00     0.028 A 
HETATM    8  N6  UNL     1       6.495   7.723  42.879  1.00  0.00    -0.330 N 
HETATM    9  C25 UNL     1       7.089   7.139  43.980  1.00  0.00     0.135 A 
HETATM   10  N7  UNL     1       6.631   6.066  44.646  1.00  0.00    -0.175 N 
ATOM     11  H7  UNL     1       5.759   5.593  44.405  1.00  0.00     0.186 HD
ENDROOT
BRANCH   1  12
HETATM   12  N3  UNL     1       6.954   4.548  46.342  1.00  0.00    -0.192 N 
HETATM   13  H10 UNL     1       7.739   3.947  46.542  1.00  0.00     0.184 HD
BRANCH  12  14
HETATM   14  C7  UNL     1       5.750   4.239  46.980  1.00  0.00     0.049 A 
HETATM   15  C6  UNL     1       5.655   3.505  48.159  1.00  0.00     0.032 A 
HETATM   16  C5  UNL     1       4.412   3.245  48.761  1.00  0.00     0.031 A 
HETATM   17  C4  UNL     1       3.206   3.712  48.222  1.00  0.00     0.030 A 
HETATM   18  C27 UNL     1       3.317   4.478  47.055  1.00  0.00     0.031 A 
HETATM   19  C26 UNL     1       4.558   4.739  46.449  1.00  0.00     0.032 A 
BRANCH  17  20
HETATM   20  N2  UNL     1       1.981   3.453  48.812  1.00  0.00    -0.378 N 
HETATM   21  C3  UNL     1       1.825   2.368  49.798  1.00  0.00     0.153 C 
HETATM   22  C2  UNL     1       0.764   2.723  50.868  1.00  0.00     0.291 C 
HETATM   23  N1  UNL     1      -0.571   3.100  50.357  1.00  0.00     0.087 N 
HETATM   24  C1  UNL     1      -1.498   1.972  50.382  1.00  0.00     0.310 C 
HETATM   25  C29 UNL     1      -0.483   3.666  48.993  1.00  0.00     0.291 C 
HETATM   26  C28 UNL     1       0.850   4.388  48.689  1.00  0.00     0.153 C 
ENDBRANCH  17  20
ENDBRANCH  12  14
ENDBRANCH   1  12
BRANCH   8  27
HETATM   27  C20 UNL     1       5.273   7.243  42.251  1.00  0.00     0.091 C 
HETATM   28  C21 UNL     1       5.403   5.899  41.506  1.00  0.00     0.026 C 
HETATM   29  C22 UNL     1       4.364   4.976  42.136  1.00  0.00     0.002 C 
HETATM   30  C23 UNL     1       3.297   5.921  42.659  1.00  0.00     0.002 C 
HETATM   31  C24 UNL     1       4.103   7.076  43.233  1.00  0.00     0.026 C 
ENDBRANCH   8  27
BRANCH   7  32
HETATM   32  C13 UNL     1       6.927   9.704  41.320  1.00  0.00     0.149 C 
BRANCH  32  33
HETATM   33  N5  UNL     1       7.152   9.076  40.022  1.00  0.00    -0.287 NA
HETATM   34  H15 UNL     1       8.125   8.809  39.912  1.00  0.00     0.128 HD
BRANCH  33  35
HETATM   35  C14 UNL     1       6.685   9.695  38.854  1.00  0.00     0.008 A 
HETATM   36  C15 UNL     1       7.352  10.742  38.208  1.00  0.00     0.023 A 
HETATM   37  C16 UNL     1       6.806  11.363  37.078  1.00  0.00     0.002 A 
HETATM   38  C17 UNL     1       5.564  10.969  36.593  1.00  0.00     0.000 A 
HETATM   39  C18 UNL     1       4.861   9.964  37.248  1.00  0.00     0.002 A 
HETATM   40  C19 UNL     1       5.412   9.347  38.376  1.00  0.00     0.023 A 
ENDBRANCH  33  35
ENDBRANCH  32  33
ENDBRANCH   7  32
TORSDOF 7
ENDMDL
MODEL 4
REMARK minimizedAffinity -8.51658726
REMARK CNNscore 0.370593429
REMARK CNNaffinity 7.07662201
REMARK  7 active torsions:
REMARK  status: ('A' for Active; 'I' for Inactive)
REMARK    1  A    between atoms: N2_5  and  C4_6 
REMARK    2  A    between atoms: C7_9  and  N3_10 
REMARK    3  A    between atoms: N3_10  and  C8_11 
REMARK    4  A    between atoms: C12_17  and  C13_18 
REMARK    5  A    between atoms: C13_18  and  N5_19 
REMARK    6  A    between atoms: N5_19  and  C14_20 
REMARK    7  A    between atoms: N6_26  and  C20_27 
ROOT
HETATM    1  C8  UNL     1       5.055  -5.591  29.199  1.00  0.00     0.684 A 
HETATM    2  N4  UNL     1       5.060  -5.310  30.517  1.00  0.00    -0.201 N 
ATOM      3  H4  UNL     1       4.181  -5.235  31.029  1.00  0.00     0.183 HD
HETATM    4  C9  UNL     1       6.236  -5.130  31.156  1.00  0.00     0.121 A 
HETATM    5  C10 UNL     1       7.424  -5.244  30.451  1.00  0.00     0.027 A 
HETATM    6  C11 UNL     1       8.804  -5.141  30.737  1.00  0.00     0.043 A 
HETATM    7  C12 UNL     1       9.509  -5.382  29.569  1.00  0.00     0.028 A 
HETATM    8  N6  UNL     1       8.577  -5.638  28.572  1.00  0.00    -0.330 N 
HETATM    9  C25 UNL     1       7.307  -5.536  29.105  1.00  0.00     0.135 A 
HETATM   10  N7  UNL     1       6.155  -5.704  28.435  1.00  0.00    -0.175 N 
ATOM     11  H7  UNL     1       6.118  -5.899  27.434  1.00  0.00     0.186 HD
ENDROOT
BRANCH   1  12
HETATM   12  N3  UNL     1       3.859  -5.780  28.506  1.00  0.00    -0.192 N 
HETATM   13  H10 UNL     1       3.602  -4.907  28.069  1.00  0.00     0.184 HD
BRANCH  12  14
HETATM   14  C7  UNL     1       3.139  -6.912  28.114  1.00  0.00     0.049 A 
HETATM   15  C6  UNL     1       1.750  -6.973  28.052  1.00  0.00     0.032 A 
HETATM   16  C5  UNL     1       1.088  -8.138  27.630  1.00  0.00     0.031 A 
HETATM   17  C4  UNL     1       1.778  -9.293  27.239  1.00  0.00     0.030 A 
HETATM   18  C27 UNL     1       3.176  -9.208  27.274  1.00  0.00     0.031 A 
HETATM   19  C26 UNL     1       3.842  -8.046  27.697  1.00  0.00     0.032 A 
BRANCH  17  20
HETATM   20  N2  UNL     1       1.126 -10.442  26.827  1.00  0.00    -0.378 N 
HETATM   21  C3  UNL     1      -0.206 -10.378  26.199  1.00  0.00     0.153 C 
HETATM   22  C2  UNL     1      -0.389 -11.495  25.144  1.00  0.00     0.291 C 
HETATM   23  N1  UNL     1      -0.149 -12.876  25.613  1.00  0.00     0.087 N 
HETATM   24  C1  UNL     1      -1.393 -13.553  25.967  1.00  0.00     0.310 C 
HETATM   25  C29 UNL     1       0.794 -12.898  26.753  1.00  0.00     0.291 C 
HETATM   26  C28 UNL     1       1.817 -11.740  26.755  1.00  0.00     0.153 C 
ENDBRANCH  17  20
ENDBRANCH  12  14
ENDBRANCH   1  12
BRANCH   8  27
HETATM   27  C20 UNL     1       8.863  -5.970  27.184  1.00  0.00     0.091 C 
HETATM   28  C21 UNL     1      10.245  -6.604  26.934  1.00  0.00     0.026 C 
HETATM   29  C22 UNL     1       9.969  -7.938  26.246  1.00  0.00     0.002 C 
HETATM   30  C23 UNL     1       8.639  -7.725  25.545  1.00  0.00     0.002 C 
HETATM   31  C24 UNL     1       7.835  -6.924  26.557  1.00  0.00     0.026 C 
ENDBRANCH   8  27
BRANCH   7  32
HETATM   32  C13 UNL     1      10.994  -5.401  29.374  1.00  0.00     0.149 C 
BRANCH  32  33
HETATM   33  N5  UNL     1      11.635  -4.117  29.634  1.00  0.00    -0.287 NA
HETATM   34  H15 UNL     1      12.582  -4.104  29.268  1.00  0.00     0.128 HD
BRANCH  33  35
HETATM   35  C14 UNL     1      11.606  -3.567  30.924  1.00  0.00     0.008 A 
HETATM   36  C15 UNL     1      11.912  -4.288  32.084  1.00  0.00     0.023 A 
HETATM   37  C16 UNL     1      11.805  -3.704  33.351  1.00  0.00     0.002 A 
HETATM   38  C17 UNL     1      11.359  -2.393  33.483  1.00  0.00     0.000 A 
HETATM   39  C18 UNL     1      11.004  -1.673  32.348  1.00  0.00     0.002 A 
HETATM   40  C19 UNL     1      11.112  -2.263  31.084  1.00  0.00     0.023 A 
ENDBRANCH  33  35
ENDBRANCH  32  33
ENDBRANCH   7  32
TORSDOF 7
ENDMDL
MODEL 5
REMARK minimizedAffinity -7.38205338
REMARK CNNscore 0.36686784
REMARK CNNaffinity 5.61060286
REMARK  7 active torsions:
REMARK  status: ('A' for Active; 'I' for Inactive)
REMARK    1  A    between atoms: N2_5  and  C4_6 
REMARK    2  A    between atoms: C7_9  and  N3_10 
REMARK    3  A    between atoms: N3_10  and  C8_11 
REMARK    4  A    between atoms: C12_17  and  C13_18 
REMARK    5  A    between atoms: C13_18  and  N5_19 
REMARK    6  A    between atoms: N5_19  and  C14_20 
REMARK    7  A    between atoms: N6_26  and  C20_27 
ROOT
HETATM    1  C8  UNL     1       6.966   9.349  42.674  1.00  0.00     0.684 A 
HETATM    2  N4  UNL     1       8.092   9.697  43.326  1.00  0.00    -0.201 N 
ATOM      3  H4  UNL     1       8.550  10.586  43.121  1.00  0.00     0.183 HD
HETATM    4  C9  UNL     1       8.611   8.863  44.253  1.00  0.00     0.121 A 
HETATM    5  C10 UNL     1       7.975   7.662  44.528  1.00  0.00     0.027 A 
HETATM    6  C11 UNL     1       8.181   6.564  45.392  1.00  0.00     0.043 A 
HETATM    7  C12 UNL     1       7.152   5.657  45.194  1.00  0.00     0.028 A 
HETATM    8  N6  UNL     1       6.315   6.190  44.224  1.00  0.00    -0.330 N 
HETATM    9  C25 UNL     1       6.826   7.403  43.805  1.00  0.00     0.135 A 
HETATM   10  N7  UNL     1       6.292   8.201  42.864  1.00  0.00    -0.175 N 
ATOM     11  H7  UNL     1       5.451   7.957  42.342  1.00  0.00     0.186 HD
ENDROOT
BRANCH   1  12
HETATM   12  N3  UNL     1       6.403  10.184  41.709  1.00  0.00    -0.192 N 
HETATM   13  H10 UNL     1       6.427  11.132  42.054  1.00  0.00     0.184 HD
BRANCH  12  14
HETATM   14  C7  UNL     1       6.076  10.018  40.360  1.00  0.00     0.049 A 
HETATM   15  C6  UNL     1       4.883   9.463  39.906  1.00  0.00     0.032 A 
HETATM   16  C5  UNL     1       4.608   9.343  38.534  1.00  0.00     0.031 A 
HETATM   17  C4  UNL     1       5.504   9.778  37.549  1.00  0.00     0.030 A 
HETATM   18  C27 UNL     1       6.686  10.365  38.017  1.00  0.00     0.031 A 
HETATM   19  C26 UNL     1       6.966  10.486  39.389  1.00  0.00     0.032 A 
BRANCH  17  20
HETATM   20  N2  UNL     1       5.235   9.656  36.196  1.00  0.00    -0.378 N 
HETATM   21  C3  UNL     1       4.113   8.831  35.714  1.00  0.00     0.153 C 
HETATM   22  C2  UNL     1       3.490   9.419  34.425  1.00  0.00     0.291 C 
HETATM   23  N1  UNL     1       4.423   9.657  33.304  1.00  0.00     0.087 N 
HETATM   24  C1  UNL     1       4.403   8.560  32.340  1.00  0.00     0.310 C 
HETATM   25  C29 UNL     1       5.801   9.889  33.793  1.00  0.00     0.291 C 
HETATM   26  C28 UNL     1       5.877  10.528  35.198  1.00  0.00     0.153 C 
ENDBRANCH  17  20
ENDBRANCH  12  14
ENDBRANCH   1  12
BRANCH   8  27
HETATM   27  C20 UNL     1       5.089   5.595  43.716  1.00  0.00     0.091 C 
HETATM   28  C21 UNL     1       3.790   6.316  44.129  1.00  0.00     0.026 C 
HETATM   29  C22 UNL     1       3.083   6.672  42.825  1.00  0.00     0.002 C 
HETATM   30  C23 UNL     1       3.573   5.626  41.839  1.00  0.00     0.002 C 
HETATM   31  C24 UNL     1       5.048   5.486  42.184  1.00  0.00     0.026 C 
ENDBRANCH   8  27
BRANCH   7  32
HETATM   32  C13 UNL     1       6.927   4.350  45.890  1.00  0.00     0.149 C 
BRANCH  32  33
HETATM   33  N5  UNL     1       6.557   4.490  47.295  1.00  0.00    -0.287 NA
HETATM   34  H15 UNL     1       7.305   4.166  47.901  1.00  0.00     0.128 HD
BRANCH  33  35
HETATM   35  C14 UNL     1       5.322   4.003  47.746  1.00  0.00     0.008 A 
HETATM   36  C15 UNL     1       4.098   4.304  47.138  1.00  0.00     0.023 A 
HETATM   37  C16 UNL     1       2.889   3.839  47.669  1.00  0.00     0.002 A 
HETATM   38  C17 UNL     1       2.881   3.087  48.839  1.00  0.00     0.000 A 
HETATM   39  C18 UNL     1       4.082   2.815  49.486  1.00  0.00     0.002 A 
HETATM   40  C19 UNL     1       5.286   3.284  48.951  1.00  0.00     0.023 A 
ENDBRANCH  33  35
ENDBRANCH  32  33
ENDBRANCH   7  32
TORSDOF 7
ENDMDL
MODEL 6
REMARK minimizedAffinity -8.51430035
REMARK CNNscore 0.355994582
REMARK CNNaffinity 7.16366053
REMARK  7 active torsions:
REMARK  status: ('A' for Active; 'I' for Inactive)
REMARK    1  A    between atoms: N2_5  and  C4_6 
REMARK    2  A    between atoms: C7_9  and  N3_10 
REMARK    3  A    between atoms: N3_10  and  C8_11 
REMARK    4  A    between atoms: C12_17  and  C13_18 
REMARK    5  A    between atoms: C13_18  and  N5_19 
REMARK    6  A    between atoms: N5_19  and  C14_20 
REMARK    7  A    between atoms: N6_26  and  C20_27 
ROOT
HETATM    1  C8  UNL     1       4.306  -6.817  28.134  1.00  0.00     0.684 A 
HETATM    2  N4  UNL     1       3.517  -6.073  28.933  1.00  0.00    -0.201 N 
ATOM      3  H4  UNL     1       2.503  -6.102  28.824  1.00  0.00     0.183 HD
HETATM    4  C9  UNL     1       4.076  -5.289  29.880  1.00  0.00     0.121 A 
HETATM    5  C10 UNL     1       5.455  -5.264  30.023  1.00  0.00     0.027 A 
HETATM    6  C11 UNL     1       6.390  -4.614  30.858  1.00  0.00     0.043 A 
HETATM    7  C12 UNL     1       7.661  -5.034  30.497  1.00  0.00     0.028 A 
HETATM    8  N6  UNL     1       7.513  -5.939  29.455  1.00  0.00    -0.330 N 
HETATM    9  C25 UNL     1       6.171  -6.066  29.154  1.00  0.00     0.135 A 
HETATM   10  N7  UNL     1       5.649  -6.843  28.191  1.00  0.00    -0.175 N 
ATOM     11  H7  UNL     1       6.221  -7.404  27.559  1.00  0.00     0.186 HD
ENDROOT
BRANCH   1  12
HETATM   12  N3  UNL     1       3.763  -7.636  27.144  1.00  0.00    -0.192 N 
HETATM   13  H10 UNL     1       4.210  -7.415  26.266  1.00  0.00     0.184 HD
BRANCH  12  14
HETATM   14  C7  UNL     1       2.972  -8.788  27.170  1.00  0.00     0.049 A 
HETATM   15  C6  UNL     1       1.588  -8.784  27.319  1.00  0.00     0.032 A 
HETATM   16  C5  UNL     1       0.850  -9.979  27.318  1.00  0.00     0.031 A 
HETATM   17  C4  UNL     1       1.453 -11.233  27.157  1.00  0.00     0.030 A 
HETATM   18  C27 UNL     1       2.841 -11.222  26.974  1.00  0.00     0.031 A 
HETATM   19  C26 UNL     1       3.584 -10.029  26.977  1.00  0.00     0.032 A 
BRANCH  17  20
HETATM   20  N2  UNL     1       0.726 -12.411  27.159  1.00  0.00    -0.378 N 
HETATM   21  C3  UNL     1       0.147 -12.951  25.915  1.00  0.00     0.153 C 
HETATM   22  C2  UNL     1       0.126 -14.498  25.925  1.00  0.00     0.291 C 
HETATM   23  N1  UNL     1      -0.549 -15.130  27.079  1.00  0.00     0.087 N 
HETATM   24  C1  UNL     1      -1.924 -15.507  26.763  1.00  0.00     0.310 C 
HETATM   25  C29 UNL     1      -0.516 -14.249  28.267  1.00  0.00     0.291 C 
HETATM   26  C28 UNL     1       0.709 -13.307  28.327  1.00  0.00     0.153 C 
ENDBRANCH  17  20
ENDBRANCH  12  14
ENDBRANCH   1  12
BRANCH   8  27
HETATM   27  C20 UNL     1       8.580  -6.659  28.775  1.00  0.00     0.091 C 
HETATM   28  C21 UNL     1       9.876  -5.854  28.556  1.00  0.00     0.026 C 
HETATM   29  C22 UNL     1      10.984  -6.668  29.218  1.00  0.00     0.002 C 
HETATM   30  C23 UNL     1      10.476  -8.098  29.165  1.00  0.00     0.002 C 
HETATM   31  C24 UNL     1       8.996  -7.955  29.487  1.00  0.00     0.026 C 
ENDBRANCH   8  27
BRANCH   7  32
HETATM   32  C13 UNL     1       8.971  -4.637  31.103  1.00  0.00     0.149 C 
BRANCH  32  33
HETATM   33  N5  UNL     1       8.848  -3.647  32.169  1.00  0.00    -0.287 NA
HETATM   34  H15 UNL     1       8.503  -2.765  31.806  1.00  0.00     0.128 HD
BRANCH  33  35
HETATM   35  C14 UNL     1       9.920  -3.426  33.045  1.00  0.00     0.008 A 
HETATM   36  C15 UNL     1      10.003  -3.978  34.329  1.00  0.00     0.023 A 
HETATM   37  C16 UNL     1      11.068  -3.671  35.184  1.00  0.00     0.002 A 
HETATM   38  C17 UNL     1      12.056  -2.780  34.780  1.00  0.00     0.000 A 
HETATM   39  C18 UNL     1      11.970  -2.183  33.528  1.00  0.00     0.002 A 
HETATM   40  C19 UNL     1      10.902  -2.492  32.679  1.00  0.00     0.023 A 
ENDBRANCH  33  35
ENDBRANCH  32  33
ENDBRANCH   7  32
TORSDOF 7
ENDMDL
MODEL 7
REMARK minimizedAffinity -9.00499916
REMARK CNNscore 0.319866508
REMARK CNNaffinity 7.12208891
REMARK  7 active torsions:
REMARK  status: ('A' for Active; 'I' for Inactive)
REMARK    1  A    between atoms: N2_5  and  C4_6 
REMARK    2  A    between atoms: C7_9  and  N3_10 
REMARK    3  A    between atoms: N3_10  and  C8_11 
REMARK    4  A    between atoms: C12_17  and  C13_18 
REMARK    5  A    between atoms: C13_18  and  N5_19 
REMARK    6  A    between atoms: N5_19  and  C14_20 
REMARK    7  A    between atoms: N6_26  and  C20_27 
ROOT
HETATM    1  C8  UNL     1       4.520  -6.609  28.434  1.00  0.00     0.684 A 
HETATM    2  N4  UNL     1       3.618  -5.871  29.111  1.00  0.00    -0.201 N 
ATOM      3  H4  UNL     1       2.620  -6.011  28.952  1.00  0.00     0.183 HD
HETATM    4  C9  UNL     1       4.043  -4.947  29.999  1.00  0.00     0.121 A 
HETATM    5  C10 UNL     1       5.403  -4.774  30.210  1.00  0.00     0.027 A 
HETATM    6  C11 UNL     1       6.220  -3.957  31.022  1.00  0.00     0.043 A 
HETATM    7  C12 UNL     1       7.544  -4.284  30.772  1.00  0.00     0.028 A 
HETATM    8  N6  UNL     1       7.545  -5.297  29.823  1.00  0.00    -0.330 N 
HETATM    9  C25 UNL     1       6.241  -5.583  29.467  1.00  0.00     0.135 A 
HETATM   10  N7  UNL     1       5.854  -6.498  28.564  1.00  0.00    -0.175 N 
ATOM     11  H7  UNL     1       6.513  -7.059  28.024  1.00  0.00     0.186 HD
ENDROOT
BRANCH   1  12
HETATM   12  N3  UNL     1       4.117  -7.570  27.507  1.00  0.00    -0.192 N 
HETATM   13  H10 UNL     1       4.898  -7.777  26.902  1.00  0.00     0.184 HD
BRANCH  12  14
HETATM   14  C7  UNL     1       3.015  -8.425  27.420  1.00  0.00     0.049 A 
HETATM   15  C6  UNL     1       3.095  -9.775  27.090  1.00  0.00     0.032 A 
HETATM   16  C5  UNL     1       1.948 -10.584  27.038  1.00  0.00     0.031 A 
HETATM   17  C4  UNL     1       0.668 -10.090  27.323  1.00  0.00     0.030 A 
HETATM   18  C27 UNL     1       0.604  -8.739  27.686  1.00  0.00     0.031 A 
HETATM   19  C26 UNL     1       1.749  -7.925  27.737  1.00  0.00     0.032 A 
BRANCH  17  20
HETATM   20  N2  UNL     1      -0.463 -10.886  27.269  1.00  0.00    -0.378 N 
HETATM   21  C3  UNL     1      -1.019 -11.332  25.978  1.00  0.00     0.153 C 
HETATM   22  C2  UNL     1      -1.663 -12.734  26.093  1.00  0.00     0.291 C 
HETATM   23  N1  UNL     1      -2.698 -12.889  27.138  1.00  0.00     0.087 N 
HETATM   24  C1  UNL     1      -4.045 -12.750  26.591  1.00  0.00     0.310 C 
HETATM   25  C29 UNL     1      -2.489 -11.930  28.245  1.00  0.00     0.291 C 
HETATM   26  C28 UNL     1      -1.012 -11.532  28.472  1.00  0.00     0.153 C 
ENDBRANCH  17  20
ENDBRANCH  12  14
ENDBRANCH   1  12
BRANCH   8  27
HETATM   27  C20 UNL     1       8.713  -5.971  29.278  1.00  0.00     0.091 C 
HETATM   28  C21 UNL     1       8.909  -7.427  29.749  1.00  0.00     0.026 C 
HETATM   29  C22 UNL     1       8.957  -8.269  28.478  1.00  0.00     0.002 C 
HETATM   30  C23 UNL     1       9.463  -7.309  27.416  1.00  0.00     0.002 C 
HETATM   31  C24 UNL     1       8.738  -6.013  27.743  1.00  0.00     0.026 C 
ENDBRANCH   8  27
BRANCH   7  32
HETATM   32  C13 UNL     1       8.773  -3.703  31.402  1.00  0.00     0.149 C 
BRANCH  32  33
HETATM   33  N5  UNL     1       8.748  -3.721  32.861  1.00  0.00    -0.287 NA
HETATM   34  H15 UNL     1       7.987  -3.152  33.218  1.00  0.00     0.128 HD
BRANCH  33  35
HETATM   35  C14 UNL     1       9.922  -3.469  33.584  1.00  0.00     0.008 A 
HETATM   36  C15 UNL     1      10.174  -3.981  34.862  1.00  0.00     0.023 A 
HETATM   37  C16 UNL     1      11.339  -3.645  35.562  1.00  0.00     0.002 A 
HETATM   38  C17 UNL     1      12.260  -2.763  35.008  1.00  0.00     0.000 A 
HETATM   39  C18 UNL     1      12.008  -2.205  33.760  1.00  0.00     0.002 A 
HETATM   40  C19 UNL     1      10.842  -2.544  33.066  1.00  0.00     0.023 A 
ENDBRANCH  33  35
ENDBRANCH  32  33
ENDBRANCH   7  32
TORSDOF 7
ENDMDL
MODEL 8
REMARK minimizedAffinity -8.96442413
REMARK CNNscore 0.284944147
REMARK CNNaffinity 7.04877234
REMARK  7 active torsions:
REMARK  status: ('A' for Active; 'I' for Inactive)
REMARK    1  A    between atoms: N2_5  and  C4_6 
REMARK    2  A    between atoms: C7_9  and  N3_10 
REMARK    3  A    between atoms: N3_10  and  C8_11 
REMARK    4  A    between atoms: C12_17  and  C13_18 
REMARK    5  A    between atoms: C13_18  and  N5_19 
REMARK    6  A    between atoms: N5_19  and  C14_20 
REMARK    7  A    between atoms: N6_26  and  C20_27 
ROOT
HETATM    1  C8  UNL     1       4.812  -6.991  28.562  1.00  0.00     0.684 A 
HETATM    2  N4  UNL     1       3.755  -6.278  28.998  1.00  0.00    -0.201 N 
ATOM      3  H4  UNL     1       2.808  -6.554  28.739  1.00  0.00     0.183 HD
HETATM    4  C9  UNL     1       3.958  -5.197  29.782  1.00  0.00     0.121 A 
HETATM    5  C10 UNL     1       5.250  -4.838  30.134  1.00  0.00     0.027 A 
HETATM    6  C11 UNL     1       5.861  -3.826  30.907  1.00  0.00     0.043 A 
HETATM    7  C12 UNL     1       7.233  -4.027  30.880  1.00  0.00     0.028 A 
HETATM    8  N6  UNL     1       7.466  -5.155  30.104  1.00  0.00    -0.330 N 
HETATM    9  C25 UNL     1       6.261  -5.638  29.635  1.00  0.00     0.135 A 
HETATM   10  N7  UNL     1       6.096  -6.708  28.840  1.00  0.00    -0.175 N 
ATOM     11  H7  UNL     1       6.877  -7.258  28.480  1.00  0.00     0.186 HD
ENDROOT
BRANCH   1  12
HETATM   12  N3  UNL     1       4.640  -8.112  27.749  1.00  0.00    -0.192 N 
HETATM   13  H10 UNL     1       5.023  -8.914  28.227  1.00  0.00     0.184 HD
BRANCH  12  14
HETATM   14  C7  UNL     1       3.872  -8.370  26.610  1.00  0.00     0.049 A 
HETATM   15  C6  UNL     1       4.404  -8.671  25.360  1.00  0.00     0.032 A 
HETATM   16  C5  UNL     1       3.574  -8.940  24.258  1.00  0.00     0.031 A 
HETATM   17  C4  UNL     1       2.177  -8.932  24.353  1.00  0.00     0.030 A 
HETATM   18  C27 UNL     1       1.654  -8.661  25.623  1.00  0.00     0.031 A 
HETATM   19  C26 UNL     1       2.480  -8.390  26.727  1.00  0.00     0.032 A 
BRANCH  17  20
HETATM   20  N2  UNL     1       1.359  -9.193  23.267  1.00  0.00    -0.378 N 
HETATM   21  C3  UNL     1       0.029  -9.805  23.445  1.00  0.00     0.153 C 
HETATM   22  C2  UNL     1      -0.976  -9.293  22.386  1.00  0.00     0.291 C 
HETATM   23  N1  UNL     1      -0.566  -9.446  20.974  1.00  0.00     0.087 N 
HETATM   24  C1  UNL     1      -1.144 -10.643  20.369  1.00  0.00     0.310 C 
HETATM   25  C29 UNL     1       0.908  -9.462  20.843  1.00  0.00     0.291 C 
HETATM   26  C28 UNL     1       1.651  -8.652  21.930  1.00  0.00     0.153 C 
ENDBRANCH  17  20
ENDBRANCH  12  14
ENDBRANCH   1  12
BRANCH   8  27
HETATM   27  C20 UNL     1       8.761  -5.757  29.821  1.00  0.00     0.091 C 
HETATM   28  C21 UNL     1       9.716  -4.889  28.977  1.00  0.00     0.026 C 
HETATM   29  C22 UNL     1      10.985  -4.743  29.812  1.00  0.00     0.002 C 
HETATM   30  C23 UNL     1      11.001  -5.987  30.683  1.00  0.00     0.002 C 
HETATM   31  C24 UNL     1       9.543  -6.153  31.081  1.00  0.00     0.026 C 
ENDBRANCH   8  27
BRANCH   7  32
HETATM   32  C13 UNL     1       8.297  -3.225  31.563  1.00  0.00     0.149 C 
BRANCH  32  33
HETATM   33  N5  UNL     1       8.503  -3.595  32.960  1.00  0.00    -0.287 NA
HETATM   34  H15 UNL     1       7.767  -3.215  33.547  1.00  0.00     0.128 HD
BRANCH  33  35
HETATM   35  C14 UNL     1       9.754  -3.394  33.559  1.00  0.00     0.008 A 
HETATM   36  C15 UNL     1      10.129  -3.958  34.785  1.00  0.00     0.023 A 
HETATM   37  C16 UNL     1      11.371  -3.672  35.365  1.00  0.00     0.002 A 
HETATM   38  C17 UNL     1      12.249  -2.790  34.744  1.00  0.00     0.000 A 
HETATM   39  C18 UNL     1      11.878  -2.182  33.550  1.00  0.00     0.002 A 
HETATM   40  C19 UNL     1      10.636  -2.471  32.976  1.00  0.00     0.023 A 
ENDBRANCH  33  35
ENDBRANCH  32  33
ENDBRANCH   7  32
TORSDOF 7
ENDMDL
MODEL 9
REMARK minimizedAffinity -9.27016926
REMARK CNNscore 0.265777379
REMARK CNNaffinity 7.02141619
REMARK  7 active torsions:
REMARK  status: ('A' for Active; 'I' for Inactive)
REMARK    1  A    between atoms: N2_5  and  C4_6 
REMARK    2  A    between atoms: C7_9  and  N3_10 
REMARK    3  A    between atoms: N3_10  and  C8_11 
REMARK    4  A    between atoms: C12_17  and  C13_18 
REMARK    5  A    between atoms: C13_18  and  N5_19 
REMARK    6  A    between atoms: N5_19  and  C14_20 
REMARK    7  A    between atoms: N6_26  and  C20_27 
ROOT
HETATM    1  C8  UNL     1       3.543  -5.833  29.026  1.00  0.00     0.684 A 
HETATM    2  N4  UNL     1       2.240  -6.104  28.814  1.00  0.00    -0.201 N 
ATOM      3  H4  UNL     1       1.520  -5.497  29.205  1.00  0.00     0.183 HD
HETATM    4  C9  UNL     1       1.895  -7.185  28.081  1.00  0.00     0.121 A 
HETATM    5  C10 UNL     1       2.884  -7.997  27.549  1.00  0.00     0.027 A 
HETATM    6  C11 UNL     1       2.939  -9.165  26.755  1.00  0.00     0.043 A 
HETATM    7  C12 UNL     1       4.271  -9.486  26.548  1.00  0.00     0.028 A 
HETATM    8  N6  UNL     1       5.031  -8.525  27.200  1.00  0.00    -0.330 N 
HETATM    9  C25 UNL     1       4.187  -7.629  27.825  1.00  0.00     0.135 A 
HETATM   10  N7  UNL     1       4.566  -6.573  28.564  1.00  0.00    -0.175 N 
ATOM     11  H7  UNL     1       5.543  -6.352  28.756  1.00  0.00     0.186 HD
ENDROOT
BRANCH   1  12
HETATM   12  N3  UNL     1       3.936  -4.728  29.781  1.00  0.00    -0.192 N 
HETATM   13  H10 UNL     1       3.109  -4.223  30.063  1.00  0.00     0.184 HD
BRANCH  12  14
HETATM   14  C7  UNL     1       5.136  -4.354  30.393  1.00  0.00     0.049 A 
HETATM   15  C6  UNL     1       5.417  -3.068  30.844  1.00  0.00     0.032 A 
HETATM   16  C5  UNL     1       6.637  -2.762  31.470  1.00  0.00     0.031 A 
HETATM   17  C4  UNL     1       7.630  -3.727  31.686  1.00  0.00     0.030 A 
HETATM   18  C27 UNL     1       7.323  -5.024  31.258  1.00  0.00     0.031 A 
HETATM   19  C26 UNL     1       6.104  -5.334  30.631  1.00  0.00     0.032 A 
BRANCH  17  20
HETATM   20  N2  UNL     1       8.834  -3.426  32.299  1.00  0.00    -0.378 N 
HETATM   21  C3  UNL     1       9.398  -4.303  33.342  1.00  0.00     0.153 C 
HETATM   22  C2  UNL     1      10.945  -4.306  33.304  1.00  0.00     0.291 C 
HETATM   23  N1  UNL     1      11.598  -2.983  33.389  1.00  0.00     0.087 N 
HETATM   24  C1  UNL     1      12.026  -2.677  34.752  1.00  0.00     0.310 C 
HETATM   25  C29 UNL     1      10.714  -1.914  32.874  1.00  0.00     0.291 C 
HETATM   26  C28 UNL     1       9.728  -2.379  31.778  1.00  0.00     0.153 C 
ENDBRANCH  17  20
ENDBRANCH  12  14
ENDBRANCH   1  12
BRANCH   8  27
HETATM   27  C20 UNL     1       6.484  -8.446  27.230  1.00  0.00     0.091 C 
HETATM   28  C21 UNL     1       7.088  -7.212  26.529  1.00  0.00     0.026 C 
HETATM   29  C22 UNL     1       7.934  -6.510  27.586  1.00  0.00     0.002 C 
HETATM   30  C23 UNL     1       8.334  -7.621  28.541  1.00  0.00     0.002 C 
HETATM   31  C24 UNL     1       7.070  -8.459  28.650  1.00  0.00     0.026 C 
ENDBRANCH   8  27
BRANCH   7  32
HETATM   32  C13 UNL     1       4.833 -10.627  25.756  1.00  0.00     0.149 C 
BRANCH  32  33
HETATM   33  N5  UNL     1       4.470 -11.939  26.280  1.00  0.00    -0.287 NA
HETATM   34  H15 UNL     1       5.141 -12.644  25.991  1.00  0.00     0.128 HD
BRANCH  33  35
HETATM   35  C14 UNL     1       3.162 -12.420  26.120  1.00  0.00     0.008 A 
HETATM   36  C15 UNL     1       2.474 -12.410  24.902  1.00  0.00     0.023 A 
HETATM   37  C16 UNL     1       1.146 -12.847  24.814  1.00  0.00     0.002 A 
HETATM   38  C17 UNL     1       0.473 -13.273  25.954  1.00  0.00     0.000 A 
HETATM   39  C18 UNL     1       1.122 -13.247  27.183  1.00  0.00     0.002 A 
HETATM   40  C19 UNL     1       2.447 -12.809  27.264  1.00  0.00     0.023 A 
ENDBRANCH  33  35
ENDBRANCH  32  33
ENDBRANCH   7  32
TORSDOF 7
ENDMDL
