MODEL 1
REMARK minimizedAffinity -10.3273029
REMARK  4 active torsions:
REMARK  status: ('A' for Active; 'I' for Inactive)
REMARK    1  A    between atoms: O1_2  and  C2_3 
REMARK    2  A    between atoms: C5_6  and  N1_7 
REMARK    3  A    between atoms: N1_7  and  C6_8 
REMARK    4  A    between atoms: C10_14  and  C11_15 
ROOT
HETATM    1  C6  UNL     1       4.719  -5.035  29.314  1.00  0.00     0.684 A 
HETATM    2  N2  UNL     1       4.437  -3.965  30.070  1.00  0.00    -0.201 N 
ATOM      3  H2  UNL     1       3.530  -3.501  30.013  1.00  0.00     0.183 HD
HETATM    4  C7  UNL     1       5.395  -3.525  30.906  1.00  0.00     0.121 A 
HETATM    5  C8  UNL     1       6.633  -4.110  31.023  1.00  0.00     0.026 A 
HETATM    6  C9  UNL     1       7.662  -3.628  31.928  1.00  0.00     0.034 A 
HETATM    7  C10 UNL     1       8.845  -4.260  31.979  1.00  0.00     0.047 A 
HETATM    8  C17 UNL     1       9.114  -5.458  31.112  1.00  0.00     0.260 A 
HETATM    9  O2  UNL     1      10.208  -6.017  31.182  1.00  0.00    -0.267 OA
HETATM   10  N3  UNL     1       8.093  -5.869  30.271  1.00  0.00    -0.303 N 
HETATM   11  C18 UNL     1       8.287  -7.019  29.405  1.00  0.00     0.161 C 
HETATM   12  C19 UNL     1       6.840  -5.206  30.210  1.00  0.00     0.137 A 
HETATM   13  N4  UNL     1       5.900  -5.673  29.361  1.00  0.00    -0.175 N 
ATOM     14  H4  UNL     1       6.080  -6.486  28.772  1.00  0.00     0.186 HD
ENDROOT
BRANCH   1  15
HETATM   15  N1  UNL     1       3.800  -5.572  28.418  1.00  0.00    -0.192 N 
HETATM   16  H6  UNL     1       3.332  -4.818  27.938  1.00  0.00     0.184 HD
BRANCH  15  17
HETATM   17  C5  UNL     1       3.420  -6.872  28.073  1.00  0.00     0.050 A 
HETATM   18  C4  UNL     1       4.315  -7.878  27.707  1.00  0.00     0.033 A 
HETATM   19  C3  UNL     1       3.870  -9.164  27.371  1.00  0.00     0.039 A 
HETATM   20  C2  UNL     1       2.512  -9.476  27.392  1.00  0.00     0.074 A 
HETATM   21  C21 UNL     1       1.590  -8.484  27.755  1.00  0.00    -0.026 A 
HETATM   22  C20 UNL     1       2.054  -7.198  28.090  1.00  0.00     0.039 A 
HETATM   23  C22 UNL     1       0.115  -8.778  27.791  1.00  0.00     0.051 C 
BRANCH  20  24
HETATM   24  O1  UNL     1       1.980 -10.701  27.081  1.00  0.00    -0.355 OA
HETATM   25  C1  UNL     1       2.891 -11.770  26.865  1.00  0.00     0.210 C 
ENDBRANCH  20  24
ENDBRANCH  15  17
ENDBRANCH   1  15
BRANCH   7  26
HETATM   26  C11 UNL     1       9.896  -3.777  32.897  1.00  0.00     0.023 A 
HETATM   27  C12 UNL     1       9.879  -4.123  34.260  1.00  0.00     0.046 A 
HETATM   28 CL1  UNL     1       8.656  -5.152  34.928  1.00  0.00    -0.083 Cl
HETATM   29  C13 UNL     1      10.867  -3.652  35.133  1.00  0.00     0.025 A 
HETATM   30  C14 UNL     1      11.884  -2.827  34.659  1.00  0.00     0.003 A 
HETATM   31  C15 UNL     1      11.917  -2.474  33.311  1.00  0.00     0.025 A 
HETATM   32  C16 UNL     1      10.931  -2.943  32.436  1.00  0.00     0.046 A 
HETATM   33 CL2  UNL     1      11.051  -2.467  30.775  1.00  0.00    -0.083 Cl
ENDBRANCH   7  26
TORSDOF 4
ENDMDL
MODEL 2
REMARK minimizedAffinity -10.3259678
REMARK  4 active torsions:
REMARK  status: ('A' for Active; 'I' for Inactive)
REMARK    1  A    between atoms: O1_2  and  C2_3 
REMARK    2  A    between atoms: C5_6  and  N1_7 
REMARK    3  A    between atoms: N1_7  and  C6_8 
REMARK    4  A    between atoms: C10_14  and  C11_15 
ROOT
HETATM    1  C6  UNL     1       4.749  -5.036  29.297  1.00  0.00     0.684 A 
HETATM    2  N2  UNL     1       4.456  -3.959  30.039  1.00  0.00    -0.201 N 
ATOM      3  H2  UNL     1       3.548  -3.499  29.970  1.00  0.00     0.183 HD
HETATM    4  C7  UNL     1       5.405  -3.505  30.878  1.00  0.00     0.121 A 
HETATM    5  C8  UNL     1       6.645  -4.084  31.011  1.00  0.00     0.026 A 
HETATM    6  C9  UNL     1       7.664  -3.588  31.919  1.00  0.00     0.034 A 
HETATM    7  C10 UNL     1       8.849  -4.214  31.987  1.00  0.00     0.047 A 
HETATM    8  C17 UNL     1       9.131  -5.420  31.135  1.00  0.00     0.260 A 
HETATM    9  O2  UNL     1      10.227  -5.973  31.219  1.00  0.00    -0.267 OA
HETATM   10  N3  UNL     1       8.118  -5.844  30.290  1.00  0.00    -0.303 N 
HETATM   11  C18 UNL     1       8.325  -7.003  29.439  1.00  0.00     0.161 C 
HETATM   12  C19 UNL     1       6.864  -5.187  30.211  1.00  0.00     0.137 A 
HETATM   13  N4  UNL     1       5.932  -5.667  29.360  1.00  0.00    -0.175 N 
ATOM     14  H4  UNL     1       6.121  -6.486  28.782  1.00  0.00     0.186 HD
ENDROOT
BRANCH   1  15
HETATM   15  N1  UNL     1       3.840  -5.586  28.399  1.00  0.00    -0.192 N 
HETATM   16  H6  UNL     1       3.362  -4.840  27.918  1.00  0.00     0.184 HD
BRANCH  15  17
HETATM   17  C5  UNL     1       3.479  -6.891  28.053  1.00  0.00     0.050 A 
HETATM   18  C4  UNL     1       4.389  -7.884  27.687  1.00  0.00     0.033 A 
HETATM   19  C3  UNL     1       3.965  -9.177  27.351  1.00  0.00     0.039 A 
HETATM   20  C2  UNL     1       2.611  -9.509  27.372  1.00  0.00     0.074 A 
HETATM   21  C21 UNL     1       1.674  -8.531  27.736  1.00  0.00    -0.026 A 
HETATM   22  C20 UNL     1       2.119  -7.239  28.072  1.00  0.00     0.039 A 
HETATM   23  C22 UNL     1       0.204  -8.848  27.773  1.00  0.00     0.051 C 
BRANCH  20  24
HETATM   24  O1  UNL     1       2.097 -10.742  27.061  1.00  0.00    -0.355 OA
HETATM   25  C1  UNL     1       3.016 -11.742  26.642  1.00  0.00     0.210 C 
ENDBRANCH  20  24
ENDBRANCH  15  17
ENDBRANCH   1  15
BRANCH   7  26
HETATM   26  C11 UNL     1       9.891  -3.716  32.908  1.00  0.00     0.023 A 
HETATM   27  C12 UNL     1      10.914  -2.867  32.449  1.00  0.00     0.046 A 
HETATM   28 CL1  UNL     1      10.992  -2.334  30.803  1.00  0.00    -0.083 Cl
HETATM   29  C13 UNL     1      11.909  -2.408  33.320  1.00  0.00     0.025 A 
HETATM   30  C14 UNL     1      11.900  -2.791  34.659  1.00  0.00     0.003 A 
HETATM   31  C15 UNL     1      10.894  -3.632  35.131  1.00  0.00     0.025 A 
HETATM   32  C16 UNL     1       9.898  -4.093  34.263  1.00  0.00     0.046 A 
HETATM   33 CL2  UNL     1       8.677  -5.125  34.932  1.00  0.00    -0.083 Cl
ENDBRANCH   7  26
TORSDOF 4
ENDMDL
MODEL 3
REMARK minimizedAffinity -10.2964325
REMARK  4 active torsions:
REMARK  status: ('A' for Active; 'I' for Inactive)
REMARK    1  A    between atoms: O1_2  and  C2_3 
REMARK    2  A    between atoms: C5_6  and  N1_7 
REMARK    3  A    between atoms: N1_7  and  C6_8 
REMARK    4  A    between atoms: C10_14  and  C11_15 
ROOT
HETATM    1  C6  UNL     1       6.525  -7.109  28.575  1.00  0.00     0.684 A 
HETATM    2  N2  UNL     1       7.683  -7.761  28.744  1.00  0.00    -0.201 N 
ATOM      3  H2  UNL     1       7.886  -8.622  28.234  1.00  0.00     0.183 HD
HETATM    4  C7  UNL     1       8.570  -7.240  29.612  1.00  0.00     0.121 A 
HETATM    5  C8  UNL     1       8.349  -6.086  30.326  1.00  0.00     0.026 A 
HETATM    6  C9  UNL     1       9.311  -5.530  31.261  1.00  0.00     0.034 A 
HETATM    7  C10 UNL     1       9.015  -4.397  31.917  1.00  0.00     0.047 A 
HETATM    8  C17 UNL     1       7.701  -3.701  31.693  1.00  0.00     0.260 A 
HETATM    9  O2  UNL     1       7.459  -2.664  32.309  1.00  0.00    -0.267 OA
HETATM   10  N3  UNL     1       6.827  -4.281  30.789  1.00  0.00    -0.303 N 
HETATM   11  C18 UNL     1       5.541  -3.660  30.526  1.00  0.00     0.161 C 
HETATM   12  C19 UNL     1       7.132  -5.478  30.092  1.00  0.00     0.137 A 
HETATM   13  N4  UNL     1       6.222  -5.976  29.227  1.00  0.00    -0.175 N 
ATOM     14  H4  UNL     1       5.331  -5.504  29.074  1.00  0.00     0.186 HD
ENDROOT
BRANCH   1  15
HETATM   15  N1  UNL     1       5.541  -7.562  27.702  1.00  0.00    -0.192 N 
HETATM   16  H6  UNL     1       5.973  -7.827  26.830  1.00  0.00     0.184 HD
BRANCH  15  17
HETATM   17  C5  UNL     1       4.154  -7.712  27.789  1.00  0.00     0.050 A 
HETATM   18  C4  UNL     1       3.288  -6.722  28.253  1.00  0.00     0.033 A 
HETATM   19  C3  UNL     1       1.903  -6.933  28.316  1.00  0.00     0.039 A 
HETATM   20  C2  UNL     1       1.349  -8.148  27.914  1.00  0.00     0.074 A 
HETATM   21  C21 UNL     1       2.197  -9.160  27.443  1.00  0.00    -0.026 A 
HETATM   22  C20 UNL     1       3.584  -8.930  27.386  1.00  0.00     0.039 A 
HETATM   23  C22 UNL     1       1.641 -10.486  26.999  1.00  0.00     0.051 C 
BRANCH  20  24
HETATM   24  O1  UNL     1       0.013  -8.450  27.937  1.00  0.00    -0.355 OA
HETATM   25  C1  UNL     1      -0.361  -9.773  27.574  1.00  0.00     0.210 C 
ENDBRANCH  20  24
ENDBRANCH  15  17
ENDBRANCH   1  15
BRANCH   7  26
HETATM   26  C11 UNL     1       9.988  -3.825  32.869  1.00  0.00     0.023 A 
HETATM   27  C12 UNL     1      11.003  -2.957  32.430  1.00  0.00     0.046 A 
HETATM   28 CL1  UNL     1      11.151  -2.487  30.769  1.00  0.00    -0.083 Cl
HETATM   29  C13 UNL     1      11.934  -2.427  33.331  1.00  0.00     0.025 A 
HETATM   30  C14 UNL     1      11.867  -2.757  34.682  1.00  0.00     0.003 A 
HETATM   31  C15 UNL     1      10.867  -3.615  35.136  1.00  0.00     0.025 A 
HETATM   32  C16 UNL     1       9.936  -4.147  34.238  1.00  0.00     0.046 A 
HETATM   33 CL2  UNL     1       8.719  -5.197  34.885  1.00  0.00    -0.083 Cl
ENDBRANCH   7  26
TORSDOF 4
ENDMDL
MODEL 4
REMARK minimizedAffinity -10.0872536
REMARK  4 active torsions:
REMARK  status: ('A' for Active; 'I' for Inactive)
REMARK    1  A    between atoms: O1_2  and  C2_3 
REMARK    2  A    between atoms: C5_6  and  N1_7 
REMARK    3  A    between atoms: N1_7  and  C6_8 
REMARK    4  A    between atoms: C10_14  and  C11_15 
ROOT
HETATM    1  C6  UNL     1       6.459  -7.073  28.401  1.00  0.00     0.684 A 
HETATM    2  N2  UNL     1       7.647  -7.687  28.492  1.00  0.00    -0.201 N 
ATOM      3  H2  UNL     1       7.859  -8.513  27.933  1.00  0.00     0.183 HD
HETATM    4  C7  UNL     1       8.548  -7.173  29.348  1.00  0.00     0.121 A 
HETATM    5  C8  UNL     1       8.316  -6.063  30.125  1.00  0.00     0.026 A 
HETATM    6  C9  UNL     1       9.294  -5.515  31.048  1.00  0.00     0.034 A 
HETATM    7  C10 UNL     1       8.984  -4.426  31.769  1.00  0.00     0.047 A 
HETATM    8  C17 UNL     1       7.638  -3.772  31.632  1.00  0.00     0.260 A 
HETATM    9  O2  UNL     1       7.383  -2.775  32.307  1.00  0.00    -0.267 OA
HETATM   10  N3  UNL     1       6.749  -4.342  30.736  1.00  0.00    -0.303 N 
HETATM   11  C18 UNL     1       5.430  -3.760  30.555  1.00  0.00     0.161 C 
HETATM   12  C19 UNL     1       7.068  -5.492  29.970  1.00  0.00     0.137 A 
HETATM   13  N4  UNL     1       6.142  -5.984  29.119  1.00  0.00    -0.175 N 
ATOM     14  H4  UNL     1       5.228  -5.540  29.024  1.00  0.00     0.186 HD
ENDROOT
BRANCH   1  15
HETATM   15  N1  UNL     1       5.457  -7.521  27.547  1.00  0.00    -0.192 N 
HETATM   16  H6  UNL     1       5.858  -7.707  26.640  1.00  0.00     0.184 HD
BRANCH  15  17
HETATM   17  C5  UNL     1       4.085  -7.752  27.688  1.00  0.00     0.050 A 
HETATM   18  C4  UNL     1       3.183  -6.815  28.195  1.00  0.00     0.033 A 
HETATM   19  C3  UNL     1       1.817  -7.106  28.312  1.00  0.00     0.039 A 
HETATM   20  C2  UNL     1       1.317  -8.349  27.923  1.00  0.00     0.074 A 
HETATM   21  C21 UNL     1       2.202  -9.308  27.411  1.00  0.00    -0.026 A 
HETATM   22  C20 UNL     1       3.570  -8.998  27.300  1.00  0.00     0.039 A 
HETATM   23  C22 UNL     1       1.705 -10.661  26.979  1.00  0.00     0.051 C 
BRANCH  20  24
HETATM   24  O1  UNL     1       0.003  -8.728  27.998  1.00  0.00    -0.355 OA
HETATM   25  C1  UNL     1      -0.832  -8.403  26.893  1.00  0.00     0.210 C 
ENDBRANCH  20  24
ENDBRANCH  15  17
ENDBRANCH   1  15
BRANCH   7  26
HETATM   26  C11 UNL     1       9.974  -3.862  32.709  1.00  0.00     0.023 A 
HETATM   27  C12 UNL     1       9.981  -4.241  34.063  1.00  0.00     0.046 A 
HETATM   28 CL1  UNL     1       8.863  -5.403  34.694  1.00  0.00    -0.083 Cl
HETATM   29  C13 UNL     1      10.910  -3.694  34.956  1.00  0.00     0.025 A 
HETATM   30  C14 UNL     1      11.843  -2.760  34.512  1.00  0.00     0.003 A 
HETATM   31  C15 UNL     1      11.851  -2.373  33.173  1.00  0.00     0.025 A 
HETATM   32  C16 UNL     1      10.924  -2.917  32.278  1.00  0.00     0.046 A 
HETATM   33 CL2  UNL     1      11.008  -2.392  30.629  1.00  0.00    -0.083 Cl
ENDBRANCH   7  26
TORSDOF 4
ENDMDL
MODEL 5
REMARK minimizedAffinity -9.73522758
REMARK  4 active torsions:
REMARK  status: ('A' for Active; 'I' for Inactive)
REMARK    1  A    between atoms: O1_2  and  C2_3 
REMARK    2  A    between atoms: C5_6  and  N1_7 
REMARK    3  A    between atoms: N1_7  and  C6_8 
REMARK    4  A    between atoms: C10_14  and  C11_15 
ROOT
HETATM    1  C6  UNL     1       6.891  -6.995  28.124  1.00  0.00     0.684 A 
HETATM    2  N2  UNL     1       8.081  -7.592  28.282  1.00  0.00    -0.201 N 
ATOM      3  H2  UNL     1       8.358  -8.383  27.700  1.00  0.00     0.183 HD
HETATM    4  C7  UNL     1       8.896  -7.110  29.238  1.00  0.00     0.121 A 
HETATM    5  C8  UNL     1       8.574  -6.049  30.051  1.00  0.00     0.026 A 
HETATM    6  C9  UNL     1       9.459  -5.535  31.081  1.00  0.00     0.034 A 
HETATM    7  C10 UNL     1       9.066  -4.494  31.830  1.00  0.00     0.047 A 
HETATM    8  C17 UNL     1       7.721  -3.857  31.615  1.00  0.00     0.260 A 
HETATM    9  O2  UNL     1       7.388  -2.904  32.318  1.00  0.00    -0.267 OA
HETATM   10  N3  UNL     1       6.923  -4.393  30.617  1.00  0.00    -0.303 N 
HETATM   11  C18 UNL     1       5.612  -3.825  30.357  1.00  0.00     0.161 C 
HETATM   12  C19 UNL     1       7.331  -5.493  29.821  1.00  0.00     0.137 A 
HETATM   13  N4  UNL     1       6.491  -5.953  28.870  1.00  0.00    -0.175 N 
ATOM     14  H4  UNL     1       5.579  -5.522  28.721  1.00  0.00     0.186 HD
ENDROOT
BRANCH   1  15
HETATM   15  N1  UNL     1       5.975  -7.414  27.165  1.00  0.00    -0.192 N 
HETATM   16  H6  UNL     1       6.110  -6.874  26.324  1.00  0.00     0.184 HD
BRANCH  15  17
HETATM   17  C5  UNL     1       4.962  -8.377  27.138  1.00  0.00     0.050 A 
HETATM   18  C4  UNL     1       5.158  -9.707  26.764  1.00  0.00     0.033 A 
HETATM   19  C3  UNL     1       4.101 -10.628  26.758  1.00  0.00     0.039 A 
HETATM   20  C2  UNL     1       2.814 -10.237  27.128  1.00  0.00     0.074 A 
HETATM   21  C21 UNL     1       2.590  -8.906  27.508  1.00  0.00    -0.026 A 
HETATM   22  C20 UNL     1       3.663  -7.996  27.509  1.00  0.00     0.039 A 
HETATM   23  C22 UNL     1       1.217  -8.443  27.915  1.00  0.00     0.051 C 
BRANCH  20  24
HETATM   24  O1  UNL     1       1.718 -11.059  27.155  1.00  0.00    -0.355 OA
HETATM   25  C1  UNL     1       1.951 -12.446  27.364  1.00  0.00     0.210 C 
ENDBRANCH  20  24
ENDBRANCH  15  17
ENDBRANCH   1  15
BRANCH   7  26
HETATM   26  C11 UNL     1       9.961  -3.965  32.879  1.00  0.00     0.023 A 
HETATM   27  C12 UNL     1      11.001  -3.075  32.559  1.00  0.00     0.046 A 
HETATM   28 CL1  UNL     1      11.270  -2.526  30.938  1.00  0.00    -0.083 Cl
HETATM   29  C13 UNL     1      11.858  -2.586  33.552  1.00  0.00     0.025 A 
HETATM   30  C14 UNL     1      11.692  -2.980  34.877  1.00  0.00     0.003 A 
HETATM   31  C15 UNL     1      10.666  -3.861  35.213  1.00  0.00     0.025 A 
HETATM   32  C16 UNL     1       9.808  -4.353  34.223  1.00  0.00     0.046 A 
HETATM   33 CL2  UNL     1       8.552  -5.435  34.726  1.00  0.00    -0.083 Cl
ENDBRANCH   7  26
TORSDOF 4
ENDMDL
MODEL 6
REMARK minimizedAffinity -9.55046177
REMARK  4 active torsions:
REMARK  status: ('A' for Active; 'I' for Inactive)
REMARK    1  A    between atoms: O1_2  and  C2_3 
REMARK    2  A    between atoms: C5_6  and  N1_7 
REMARK    3  A    between atoms: N1_7  and  C6_8 
REMARK    4  A    between atoms: C10_14  and  C11_15 
ROOT
HETATM    1  C6  UNL     1       5.603  -6.647  28.572  1.00  0.00     0.684 A 
HETATM    2  N2  UNL     1       5.050  -5.591  29.185  1.00  0.00    -0.201 N 
ATOM      3  H2  UNL     1       4.090  -5.307  28.987  1.00  0.00     0.183 HD
HETATM    4  C7  UNL     1       5.808  -4.919  30.071  1.00  0.00     0.121 A 
HETATM    5  C8  UNL     1       7.105  -5.257  30.376  1.00  0.00     0.026 A 
HETATM    6  C9  UNL     1       7.916  -4.527  31.334  1.00  0.00     0.034 A 
HETATM    7  C10 UNL     1       9.175  -4.926  31.573  1.00  0.00     0.047 A 
HETATM    8  C17 UNL     1       9.751  -6.118  30.861  1.00  0.00     0.260 A 
HETATM    9  O2  UNL     1      10.909  -6.460  31.102  1.00  0.00    -0.267 OA
HETATM   10  N3  UNL     1       8.927  -6.773  29.960  1.00  0.00    -0.303 N 
HETATM   11  C18 UNL     1       9.422  -7.931  29.237  1.00  0.00     0.161 C 
HETATM   12  C19 UNL     1       7.596  -6.357  29.701  1.00  0.00     0.137 A 
HETATM   13  N4  UNL     1       6.861  -7.052  28.807  1.00  0.00    -0.175 N 
ATOM     14  H4  UNL     1       7.250  -7.862  28.323  1.00  0.00     0.186 HD
ENDROOT
BRANCH   1  15
HETATM   15  N1  UNL     1       4.908  -7.410  27.640  1.00  0.00    -0.192 N 
HETATM   16  H6  UNL     1       5.500  -7.570  26.840  1.00  0.00     0.184 HD
BRANCH  15  17
HETATM   17  C5  UNL     1       3.626  -7.966  27.596  1.00  0.00     0.050 A 
HETATM   18  C4  UNL     1       2.458  -7.264  27.899  1.00  0.00     0.033 A 
HETATM   19  C3  UNL     1       1.199  -7.878  27.836  1.00  0.00     0.039 A 
HETATM   20  C2  UNL     1       1.078  -9.217  27.465  1.00  0.00     0.074 A 
HETATM   21  C21 UNL     1       2.235  -9.946  27.156  1.00  0.00    -0.026 A 
HETATM   22  C20 UNL     1       3.490  -9.313  27.224  1.00  0.00     0.039 A 
HETATM   23  C22 UNL     1       2.149 -11.392  26.752  1.00  0.00     0.051 C 
BRANCH  20  24
HETATM   24  O1  UNL     1      -0.104  -9.905  27.374  1.00  0.00    -0.355 OA
HETATM   25  C1  UNL     1      -1.031  -9.750  28.441  1.00  0.00     0.210 C 
ENDBRANCH  20  24
ENDBRANCH  15  17
ENDBRANCH   1  15
BRANCH   7  26
HETATM   26  C11 UNL     1      10.006  -4.189  32.546  1.00  0.00     0.023 A 
HETATM   27  C12 UNL     1      10.939  -3.228  32.117  1.00  0.00     0.046 A 
HETATM   28 CL1  UNL     1      11.141  -2.833  30.442  1.00  0.00    -0.083 Cl
HETATM   29  C13 UNL     1      11.737  -2.541  33.039  1.00  0.00     0.025 A 
HETATM   30  C14 UNL     1      11.619  -2.804  34.401  1.00  0.00     0.003 A 
HETATM   31  C15 UNL     1      10.700  -3.753  34.845  1.00  0.00     0.025 A 
HETATM   32  C16 UNL     1       9.901  -4.442  33.926  1.00  0.00     0.046 A 
HETATM   33 CL2  UNL     1       8.776  -5.597  34.561  1.00  0.00    -0.083 Cl
ENDBRANCH   7  26
TORSDOF 4
ENDMDL
MODEL 7
REMARK minimizedAffinity -9.51198196
REMARK  4 active torsions:
REMARK  status: ('A' for Active; 'I' for Inactive)
REMARK    1  A    between atoms: O1_2  and  C2_3 
REMARK    2  A    between atoms: C5_6  and  N1_7 
REMARK    3  A    between atoms: N1_7  and  C6_8 
REMARK    4  A    between atoms: C10_14  and  C11_15 
ROOT
HETATM    1  C6  UNL     1       5.572  -6.663  28.603  1.00  0.00     0.684 A 
HETATM    2  N2  UNL     1       5.025  -5.610  29.226  1.00  0.00    -0.201 N 
ATOM      3  H2  UNL     1       4.062  -5.328  29.042  1.00  0.00     0.183 HD
HETATM    4  C7  UNL     1       5.793  -4.939  30.104  1.00  0.00     0.121 A 
HETATM    5  C8  UNL     1       7.095  -5.275  30.391  1.00  0.00     0.026 A 
HETATM    6  C9  UNL     1       7.917  -4.545  31.340  1.00  0.00     0.034 A 
HETATM    7  C10 UNL     1       9.180  -4.941  31.560  1.00  0.00     0.047 A 
HETATM    8  C17 UNL     1       9.750  -6.130  30.837  1.00  0.00     0.260 A 
HETATM    9  O2  UNL     1      10.911  -6.469  31.061  1.00  0.00    -0.267 OA
HETATM   10  N3  UNL     1       8.915  -6.784  29.946  1.00  0.00    -0.303 N 
HETATM   11  C18 UNL     1       9.403  -7.939  29.213  1.00  0.00     0.161 C 
HETATM   12  C19 UNL     1       7.580  -6.371  29.706  1.00  0.00     0.137 A 
HETATM   13  N4  UNL     1       6.835  -7.065  28.819  1.00  0.00    -0.175 N 
ATOM     14  H4  UNL     1       7.219  -7.873  28.328  1.00  0.00     0.186 HD
ENDROOT
BRANCH   1  15
HETATM   15  N1  UNL     1       4.866  -7.425  27.678  1.00  0.00    -0.192 N 
HETATM   16  H6  UNL     1       5.465  -7.622  26.891  1.00  0.00     0.184 HD
BRANCH  15  17
HETATM   17  C5  UNL     1       3.568  -7.941  27.627  1.00  0.00     0.050 A 
HETATM   18  C4  UNL     1       2.421  -7.203  27.921  1.00  0.00     0.033 A 
HETATM   19  C3  UNL     1       1.145  -7.779  27.852  1.00  0.00     0.039 A 
HETATM   20  C2  UNL     1       0.985  -9.114  27.484  1.00  0.00     0.074 A 
HETATM   21  C21 UNL     1       2.121  -9.879  27.184  1.00  0.00    -0.026 A 
HETATM   22  C20 UNL     1       3.394  -9.285  27.258  1.00  0.00     0.039 A 
HETATM   23  C22 UNL     1       1.993 -11.323  26.783  1.00  0.00     0.051 C 
BRANCH  20  24
HETATM   24  O1  UNL     1      -0.217  -9.766  27.387  1.00  0.00    -0.355 OA
HETATM   25  C1  UNL     1      -1.058  -9.754  28.534  1.00  0.00     0.210 C 
ENDBRANCH  20  24
ENDBRANCH  15  17
ENDBRANCH   1  15
BRANCH   7  26
HETATM   26  C11 UNL     1      10.023  -4.205  32.524  1.00  0.00     0.023 A 
HETATM   27  C12 UNL     1       9.921  -4.449  33.906  1.00  0.00     0.046 A 
HETATM   28 CL1  UNL     1       8.837  -5.638  34.548  1.00  0.00    -0.083 Cl
HETATM   29  C13 UNL     1      10.709  -3.739  34.819  1.00  0.00     0.025 A 
HETATM   30  C14 UNL     1      11.607  -2.775  34.369  1.00  0.00     0.003 A 
HETATM   31  C15 UNL     1      11.722  -2.521  33.004  1.00  0.00     0.025 A 
HETATM   32  C16 UNL     1      10.935  -3.228  32.087  1.00  0.00     0.046 A 
HETATM   33 CL2  UNL     1      11.147  -2.859  30.408  1.00  0.00    -0.083 Cl
ENDBRANCH   7  26
TORSDOF 4
ENDMDL
MODEL 8
REMARK minimizedAffinity -8.92796993
REMARK  4 active torsions:
REMARK  status: ('A' for Active; 'I' for Inactive)
REMARK    1  A    between atoms: O1_2  and  C2_3 
REMARK    2  A    between atoms: C5_6  and  N1_7 
REMARK    3  A    between atoms: N1_7  and  C6_8 
REMARK    4  A    between atoms: C10_14  and  C11_15 
ROOT
HETATM    1  C6  UNL     1       5.566  -6.165  28.670  1.00  0.00     0.684 A 
HETATM    2  N2  UNL     1       5.083  -5.082  29.292  1.00  0.00    -0.201 N 
ATOM      3  H2  UNL     1       4.149  -4.725  29.086  1.00  0.00     0.183 HD
HETATM    4  C7  UNL     1       5.875  -4.480  30.199  1.00  0.00     0.121 A 
HETATM    5  C8  UNL     1       7.139  -4.917  30.516  1.00  0.00     0.026 A 
HETATM    6  C9  UNL     1       7.988  -4.262  31.496  1.00  0.00     0.034 A 
HETATM    7  C10 UNL     1       9.210  -4.755  31.745  1.00  0.00     0.047 A 
HETATM    8  C17 UNL     1       9.709  -5.975  31.021  1.00  0.00     0.260 A 
HETATM    9  O2  UNL     1      10.835  -6.403  31.271  1.00  0.00    -0.267 OA
HETATM   10  N3  UNL     1       8.853  -6.554  30.099  1.00  0.00    -0.303 N 
HETATM   11  C18 UNL     1       9.272  -7.734  29.364  1.00  0.00     0.161 C 
HETATM   12  C19 UNL     1       7.559  -6.038  29.829  1.00  0.00     0.137 A 
HETATM   13  N4  UNL     1       6.788  -6.664  28.914  1.00  0.00    -0.175 N 
ATOM     14  H4  UNL     1       7.125  -7.493  28.423  1.00  0.00     0.186 HD
ENDROOT
BRANCH   1  15
HETATM   15  N1  UNL     1       4.831  -6.862  27.716  1.00  0.00    -0.192 N 
HETATM   16  H6  UNL     1       4.035  -6.305  27.446  1.00  0.00     0.184 HD
BRANCH  15  17
HETATM   17  C5  UNL     1       4.969  -8.107  27.096  1.00  0.00     0.050 A 
HETATM   18  C4  UNL     1       6.033  -8.451  26.262  1.00  0.00     0.033 A 
HETATM   19  C3  UNL     1       6.115  -9.719  25.668  1.00  0.00     0.039 A 
HETATM   20  C2  UNL     1       5.128 -10.678  25.897  1.00  0.00     0.074 A 
HETATM   21  C21 UNL     1       4.048 -10.357  26.731  1.00  0.00    -0.026 A 
HETATM   22  C20 UNL     1       3.982  -9.081  27.319  1.00  0.00     0.039 A 
HETATM   23  C22 UNL     1       2.962 -11.362  27.005  1.00  0.00     0.051 C 
BRANCH  20  24
HETATM   24  O1  UNL     1       5.119 -11.941  25.365  1.00  0.00    -0.355 OA
HETATM   25  C1  UNL     1       6.365 -12.477  24.941  1.00  0.00     0.210 C 
ENDBRANCH  20  24
ENDBRANCH  15  17
ENDBRANCH   1  15
BRANCH   7  26
HETATM   26  C11 UNL     1      10.079  -4.095  32.740  1.00  0.00     0.023 A 
HETATM   27  C12 UNL     1       9.905  -4.328  34.117  1.00  0.00     0.046 A 
HETATM   28 CL1  UNL     1       8.698  -5.415  34.716  1.00  0.00    -0.083 Cl
HETATM   29  C13 UNL     1      10.719  -3.690  35.060  1.00  0.00     0.025 A 
HETATM   30  C14 UNL     1      11.716  -2.810  34.645  1.00  0.00     0.003 A 
HETATM   31  C15 UNL     1      11.902  -2.568  33.286  1.00  0.00     0.025 A 
HETATM   32  C16 UNL     1      11.090  -3.203  32.340  1.00  0.00     0.046 A 
HETATM   33 CL2  UNL     1      11.395  -2.856  30.670  1.00  0.00    -0.083 Cl
ENDBRANCH   7  26
TORSDOF 4
ENDMDL
MODEL 9
REMARK minimizedAffinity -8.33184433
REMARK  4 active torsions:
REMARK  status: ('A' for Active; 'I' for Inactive)
REMARK    1  A    between atoms: O1_2  and  C2_3 
REMARK    2  A    between atoms: C5_6  and  N1_7 
REMARK    3  A    between atoms: N1_7  and  C6_8 
REMARK    4  A    between atoms: C10_14  and  C11_15 
ROOT
HETATM    1  C6  UNL     1       3.995  -7.148  28.230  1.00  0.00     0.684 A 
HETATM    2  N2  UNL     1       3.785  -5.854  28.508  1.00  0.00    -0.201 N 
ATOM      3  H2  UNL     1       2.872  -5.422  28.360  1.00  0.00     0.183 HD
HETATM    4  C7  UNL     1       4.823  -5.145  28.989  1.00  0.00     0.121 A 
HETATM    5  C8  UNL     1       6.072  -5.675  29.206  1.00  0.00     0.026 A 
HETATM    6  C9  UNL     1       7.188  -4.903  29.726  1.00  0.00     0.034 A 
HETATM    7  C10 UNL     1       8.375  -5.501  29.908  1.00  0.00     0.047 A 
HETATM    8  C17 UNL     1       8.562  -6.956  29.582  1.00  0.00     0.260 A 
HETATM    9  O2  UNL     1       9.663  -7.476  29.761  1.00  0.00    -0.267 OA
HETATM   10  N3  UNL     1       7.460  -7.638  29.091  1.00  0.00    -0.303 N 
HETATM   11  C18 UNL     1       7.572  -9.046  28.755  1.00  0.00     0.161 C 
HETATM   12  C19 UNL     1       6.202  -7.014  28.894  1.00  0.00     0.137 A 
HETATM   13  N4  UNL     1       5.180  -7.752  28.411  1.00  0.00    -0.175 N 
ATOM     14  H4  UNL     1       5.304  -8.740  28.189  1.00  0.00     0.186 HD
ENDROOT
BRANCH   1  15
HETATM   15  N1  UNL     1       2.990  -7.970  27.729  1.00  0.00    -0.192 N 
HETATM   16  H6  UNL     1       2.492  -8.385  28.502  1.00  0.00     0.184 HD
BRANCH  15  17
HETATM   17  C5  UNL     1       2.561  -8.315  26.445  1.00  0.00     0.050 A 
HETATM   18  C4  UNL     1       3.356  -8.972  25.505  1.00  0.00     0.033 A 
HETATM   19  C3  UNL     1       2.868  -9.291  24.230  1.00  0.00     0.039 A 
HETATM   20  C2  UNL     1       1.564  -8.958  23.863  1.00  0.00     0.074 A 
HETATM   21  C21 UNL     1       0.744  -8.297  24.788  1.00  0.00    -0.026 A 
HETATM   22  C20 UNL     1       1.251  -7.985  26.063  1.00  0.00     0.039 A 
HETATM   23  C22 UNL     1      -0.669  -7.920  24.434  1.00  0.00     0.051 C 
BRANCH  20  24
HETATM   24  O1  UNL     1       0.996  -9.226  22.645  1.00  0.00    -0.355 OA
HETATM   25  C1  UNL     1       1.560  -8.586  21.508  1.00  0.00     0.210 C 
ENDBRANCH  20  24
ENDBRANCH  15  17
ENDBRANCH   1  15
BRANCH   7  26
HETATM   26  C11 UNL     1       9.514  -4.723  30.436  1.00  0.00     0.023 A 
HETATM   27  C12 UNL     1      10.472  -4.167  29.570  1.00  0.00     0.046 A 
HETATM   28 CL1  UNL     1      10.355  -4.331  27.849  1.00  0.00    -0.083 Cl
HETATM   29  C13 UNL     1      11.560  -3.442  30.072  1.00  0.00     0.025 A 
HETATM   30  C14 UNL     1      11.709  -3.265  31.446  1.00  0.00     0.003 A 
HETATM   31  C15 UNL     1      10.769  -3.809  32.319  1.00  0.00     0.025 A 
HETATM   32  C16 UNL     1       9.681  -4.534  31.821  1.00  0.00     0.046 A 
HETATM   33 CL2  UNL     1       8.553  -5.167  32.973  1.00  0.00    -0.083 Cl
ENDBRANCH   7  26
TORSDOF 4
ENDMDL
