MODEL 1
REMARK minimizedAffinity -9.01030922
REMARK  8 active torsions:
REMARK  status: ('A' for Active; 'I' for Inactive)
REMARK    1  A    between atoms: C2_2  and  C3_3 
REMARK       I    between atoms: C3_3  and  N1_5 
REMARK    2  A    between atoms: N1_5  and  C4_6 
REMARK    3  A    between atoms: C8_10  and  C9_11 
REMARK    4  A    between atoms: C12_21  and  N5_22 
REMARK    5  A    between atoms: N5_22  and  C13_23 
REMARK    6  A    between atoms: C13_23  and  C14_24 
REMARK    7  A    between atoms: C13_23  and  C15_26 
REMARK    8  A    between atoms: C14_24  and  O3_25 
ROOT
HETATM    1  C9  UNL     1      -0.573   6.381  14.328  1.00  0.00     0.083 A 
HETATM    2  N2  UNL     1      -1.109   6.718  15.510  1.00  0.00    -0.257 N 
ATOM      3  H2  UNL     1      -2.059   6.533  15.831  1.00  0.00     0.195 HD
HETATM    4  O2  UNL     1      -0.103   7.369  16.204  1.00  0.00    -0.218 OA
HETATM    5  C10 UNL     1       1.024   7.422  15.442  1.00  0.00     0.187 A 
HETATM    6  N3  UNL     1       2.165   7.995  15.848  1.00  0.00    -0.330 N 
ATOM      7  H3  UNL     1       2.296   8.443  16.755  1.00  0.00     0.168 HD
HETATM    8  C11 UNL     1       3.109   7.903  14.907  1.00  0.00     0.183 A 
HETATM    9  N4  UNL     1       3.010   7.326  13.689  1.00  0.00    -0.342 N 
ATOM     10  H4  UNL     1       3.815   7.309  13.062  1.00  0.00     0.167 HD
HETATM   11  C12 UNL     1       1.834   6.770  13.306  1.00  0.00     0.098 A 
HETATM   12  C21 UNL     1       0.781   6.800  14.232  1.00  0.00     0.085 A 
ENDROOT
BRANCH   1  13
HETATM   13  C8  UNL     1      -1.358   5.682  13.327  1.00  0.00    -0.004 A 
HETATM   14  C7  UNL     1      -0.763   5.280  12.129  1.00  0.00     0.014 A 
HETATM   15  C6  UNL     1      -1.504   4.553  11.201  1.00  0.00     0.003 A 
HETATM   16  C5  UNL     1      -2.838   4.227  11.466  1.00  0.00     0.029 A 
HETATM   17  C4  UNL     1      -3.450   4.633  12.654  1.00  0.00     0.035 A 
HETATM   18  C22 UNL     1      -2.702   5.368  13.582  1.00  0.00     0.043 A 
BRANCH  17  19
HETATM   19  N1  UNL     1      -4.795   4.356  12.986  1.00  0.00    -0.324 N 
HETATM   20  C3  UNL     1      -5.686   3.582  12.272  1.00  0.00     0.244 C 
HETATM   21  O1  UNL     1      -5.461   2.945  11.251  1.00  0.00    -0.268 OA
HETATM   22  H4  UNL     1      -5.128   4.768  13.847  1.00  0.00     0.169 HD
BRANCH  20  23
HETATM   23  C2  UNL     1      -7.040   3.572  12.903  1.00  0.00     0.064 C 
HETATM   24  C1  UNL     1      -7.824   4.658  12.852  1.00  0.00     0.017 C 
ENDBRANCH  20  23
ENDBRANCH  17  19
ENDBRANCH   1  13
BRANCH  11  25
HETATM   25  N5  UNL     1       1.744   6.150  12.058  1.00  0.00    -0.267 NA
HETATM   26  H9  UNL     1       0.874   6.406  11.601  1.00  0.00     0.130 HD
BRANCH  25  27
HETATM   27  C13 UNL     1       2.852   6.314  11.089  1.00  0.00     0.118 C 
BRANCH  27  28
HETATM   28  C14 UNL     1       4.103   7.033  11.663  1.00  0.00     0.188 C 
BRANCH  28  29
HETATM   29  O3  UNL     1       5.243   6.213  11.896  1.00  0.00    -0.399 OA
HETATM   30  H13 UNL     1       5.291   5.614  11.121  1.00  0.00     0.209 HD
ENDBRANCH  28  29
ENDBRANCH  27  28
BRANCH  27  31
HETATM   31  C15 UNL     1       2.335   6.730   9.719  1.00  0.00    -0.038 A 
HETATM   32  C16 UNL     1       2.797   6.156   8.528  1.00  0.00     0.009 A 
HETATM   33  C17 UNL     1       2.315   6.592   7.290  1.00  0.00     0.001 A 
HETATM   34  C18 UNL     1       1.366   7.607   7.225  1.00  0.00     0.000 A 
HETATM   35  C19 UNL     1       0.898   8.195   8.397  1.00  0.00     0.001 A 
HETATM   36  C20 UNL     1       1.379   7.761   9.633  1.00  0.00     0.009 A 
ENDBRANCH  27  31
ENDBRANCH  25  27
ENDBRANCH  11  25
TORSDOF 8
ENDMDL
MODEL 2
REMARK minimizedAffinity -8.98783684
REMARK  8 active torsions:
REMARK  status: ('A' for Active; 'I' for Inactive)
REMARK    1  A    between atoms: C2_2  and  C3_3 
REMARK       I    between atoms: C3_3  and  N1_5 
REMARK    2  A    between atoms: N1_5  and  C4_6 
REMARK    3  A    between atoms: C8_10  and  C9_11 
REMARK    4  A    between atoms: C12_21  and  N5_22 
REMARK    5  A    between atoms: N5_22  and  C13_23 
REMARK    6  A    between atoms: C13_23  and  C14_24 
REMARK    7  A    between atoms: C13_23  and  C15_26 
REMARK    8  A    between atoms: C14_24  and  O3_25 
ROOT
HETATM    1  C9  UNL     1      -6.875   4.591  13.299  1.00  0.00     0.083 A 
HETATM    2  N2  UNL     1      -8.119   4.179  13.586  1.00  0.00    -0.257 N 
ATOM      3  H2  UNL     1      -8.835   4.691  14.101  1.00  0.00     0.195 HD
HETATM    4  O2  UNL     1      -8.228   2.912  13.036  1.00  0.00    -0.218 OA
HETATM    5  C10 UNL     1      -7.059   2.571  12.428  1.00  0.00     0.187 A 
HETATM    6  N3  UNL     1      -6.862   1.400  11.807  1.00  0.00    -0.330 N 
ATOM      7  H3  UNL     1      -7.561   0.660  11.734  1.00  0.00     0.168 HD
HETATM    8  C11 UNL     1      -5.629   1.328  11.298  1.00  0.00     0.183 A 
HETATM    9  N4  UNL     1      -4.655   2.262  11.353  1.00  0.00    -0.342 N 
ATOM     10  H4  UNL     1      -3.753   2.091  10.909  1.00  0.00     0.167 HD
HETATM   11  C12 UNL     1      -4.885   3.430  12.004  1.00  0.00     0.098 A 
HETATM   12  C21 UNL     1      -6.159   3.611  12.562  1.00  0.00     0.085 A 
ENDROOT
BRANCH   1  13
HETATM   13  C8  UNL     1      -6.404   5.892  13.738  1.00  0.00    -0.004 A 
HETATM   14  C7  UNL     1      -7.119   6.603  14.704  1.00  0.00     0.014 A 
HETATM   15  C6  UNL     1      -6.628   7.821  15.169  1.00  0.00     0.003 A 
HETATM   16  C5  UNL     1      -5.424   8.330  14.670  1.00  0.00     0.029 A 
HETATM   17  C4  UNL     1      -4.705   7.636  13.694  1.00  0.00     0.035 A 
HETATM   18  C22 UNL     1      -5.206   6.414  13.227  1.00  0.00     0.043 A 
BRANCH  17  19
HETATM   19  N1  UNL     1      -3.493   8.092  13.131  1.00  0.00    -0.324 N 
HETATM   20  C3  UNL     1      -2.591   8.971  13.696  1.00  0.00     0.244 C 
HETATM   21  O1  UNL     1      -2.646   9.473  14.811  1.00  0.00    -0.268 OA
HETATM   22  H4  UNL     1      -3.266   7.721  12.218  1.00  0.00     0.169 HD
BRANCH  20  23
HETATM   23  C2  UNL     1      -1.455   9.267  12.773  1.00  0.00     0.064 C 
HETATM   24  C1  UNL     1      -1.484   8.850  11.500  1.00  0.00     0.017 C 
ENDBRANCH  20  23
ENDBRANCH  17  19
ENDBRANCH   1  13
BRANCH  11  25
HETATM   25  N5  UNL     1      -3.885   4.405  12.036  1.00  0.00    -0.267 NA
HETATM   26  H9  UNL     1      -3.785   4.774  12.976  1.00  0.00     0.130 HD
BRANCH  25  27
HETATM   27  C13 UNL     1      -2.540   4.076  11.511  1.00  0.00     0.118 C 
BRANCH  27  28
HETATM   28  C14 UNL     1      -2.306   2.563  11.252  1.00  0.00     0.188 C 
BRANCH  28  29
HETATM   29  O3  UNL     1      -1.817   2.218   9.961  1.00  0.00    -0.399 OA
HETATM   30  H13 UNL     1      -1.140   2.898   9.753  1.00  0.00     0.209 HD
ENDBRANCH  28  29
ENDBRANCH  27  28
BRANCH  27  31
HETATM   31  C15 UNL     1      -1.456   4.870  12.227  1.00  0.00    -0.038 A 
HETATM   32  C16 UNL     1      -0.270   5.271  11.598  1.00  0.00     0.009 A 
HETATM   33  C17 UNL     1       0.712   5.972  12.304  1.00  0.00     0.001 A 
HETATM   34  C18 UNL     1       0.523   6.283  13.647  1.00  0.00     0.000 A 
HETATM   35  C19 UNL     1      -0.646   5.889  14.292  1.00  0.00     0.001 A 
HETATM   36  C20 UNL     1      -1.626   5.187  13.589  1.00  0.00     0.009 A 
ENDBRANCH  27  31
ENDBRANCH  25  27
ENDBRANCH  11  25
TORSDOF 8
ENDMDL
MODEL 3
REMARK minimizedAffinity -8.95988274
REMARK  8 active torsions:
REMARK  status: ('A' for Active; 'I' for Inactive)
REMARK    1  A    between atoms: C2_2  and  C3_3 
REMARK       I    between atoms: C3_3  and  N1_5 
REMARK    2  A    between atoms: N1_5  and  C4_6 
REMARK    3  A    between atoms: C8_10  and  C9_11 
REMARK    4  A    between atoms: C12_21  and  N5_22 
REMARK    5  A    between atoms: N5_22  and  C13_23 
REMARK    6  A    between atoms: C13_23  and  C14_24 
REMARK    7  A    between atoms: C13_23  and  C15_26 
REMARK    8  A    between atoms: C14_24  and  O3_25 
ROOT
HETATM    1  C9  UNL     1      -6.264   3.911  12.709  1.00  0.00     0.083 A 
HETATM    2  N2  UNL     1      -7.140   2.957  12.361  1.00  0.00    -0.257 N 
ATOM      3  H2  UNL     1      -8.151   2.970  12.494  1.00  0.00     0.195 HD
HETATM    4  O2  UNL     1      -6.384   1.950  11.783  1.00  0.00    -0.218 OA
HETATM    5  C10 UNL     1      -5.068   2.300  11.787  1.00  0.00     0.187 A 
HETATM    6  N3  UNL     1      -4.095   1.522  11.294  1.00  0.00    -0.330 N 
ATOM      7  H3  UNL     1      -4.245   0.604  10.875  1.00  0.00     0.168 HD
HETATM    8  C11 UNL     1      -2.901   2.108  11.424  1.00  0.00     0.183 A 
HETATM    9  N4  UNL     1      -2.626   3.316  11.963  1.00  0.00    -0.342 N 
ATOM     10  H4  UNL     1      -1.666   3.660  11.991  1.00  0.00     0.167 HD
HETATM   11  C12 UNL     1      -3.636   4.068  12.468  1.00  0.00     0.098 A 
HETATM   12  C21 UNL     1      -4.934   3.548  12.364  1.00  0.00     0.085 A 
ENDROOT
BRANCH   1  13
HETATM   13  C8  UNL     1      -6.710   5.128  13.361  1.00  0.00    -0.004 A 
HETATM   14  C7  UNL     1      -5.808   6.170  13.587  1.00  0.00     0.014 A 
HETATM   15  C6  UNL     1      -6.256   7.360  14.154  1.00  0.00     0.003 A 
HETATM   16  C5  UNL     1      -7.604   7.513  14.496  1.00  0.00     0.029 A 
HETATM   17  C4  UNL     1      -8.516   6.475  14.287  1.00  0.00     0.035 A 
HETATM   18  C22 UNL     1      -8.058   5.278  13.721  1.00  0.00     0.043 A 
BRANCH  17  19
HETATM   19  N1  UNL     1      -9.886   6.548  14.620  1.00  0.00    -0.324 N 
HETATM   20  C3  UNL     1     -10.926   6.914  13.791  1.00  0.00     0.244 C 
HETATM   21  O1  UNL     1     -10.861   7.188  12.599  1.00  0.00    -0.268 OA
HETATM   22  H4  UNL     1     -10.121   6.293  15.571  1.00  0.00     0.169 HD
BRANCH  20  23
HETATM   23  C2  UNL     1     -12.232   6.935  14.516  1.00  0.00     0.064 C 
HETATM   24  C1  UNL     1     -13.180   6.030  14.237  1.00  0.00     0.017 C 
ENDBRANCH  20  23
ENDBRANCH  17  19
ENDBRANCH   1  13
BRANCH  11  25
HETATM   25  N5  UNL     1      -3.351   5.328  12.999  1.00  0.00    -0.267 NA
HETATM   26  H9  UNL     1      -3.958   5.521  13.790  1.00  0.00     0.130 HD
BRANCH  25  27
HETATM   27  C13 UNL     1      -1.958   5.652  13.383  1.00  0.00     0.118 C 
BRANCH  27  28
HETATM   28  C14 UNL     1      -1.760   5.930  14.897  1.00  0.00     0.188 C 
BRANCH  28  29
HETATM   29  O3  UNL     1      -0.480   5.608  15.430  1.00  0.00    -0.399 OA
HETATM   30  H13 UNL     1       0.163   5.908  14.752  1.00  0.00     0.209 HD
ENDBRANCH  28  29
ENDBRANCH  27  28
BRANCH  27  31
HETATM   31  C15 UNL     1      -1.309   6.593  12.377  1.00  0.00    -0.038 A 
HETATM   32  C16 UNL     1      -0.411   6.152  11.397  1.00  0.00     0.009 A 
HETATM   33  C17 UNL     1       0.184   7.056  10.513  1.00  0.00     0.001 A 
HETATM   34  C18 UNL     1      -0.109   8.414  10.596  1.00  0.00     0.000 A 
HETATM   35  C19 UNL     1      -0.996   8.874  11.566  1.00  0.00     0.001 A 
HETATM   36  C20 UNL     1      -1.590   7.971  12.450  1.00  0.00     0.009 A 
ENDBRANCH  27  31
ENDBRANCH  25  27
ENDBRANCH  11  25
TORSDOF 8
ENDMDL
MODEL 4
REMARK minimizedAffinity -8.83380413
REMARK  8 active torsions:
REMARK  status: ('A' for Active; 'I' for Inactive)
REMARK    1  A    between atoms: C2_2  and  C3_3 
REMARK       I    between atoms: C3_3  and  N1_5 
REMARK    2  A    between atoms: N1_5  and  C4_6 
REMARK    3  A    between atoms: C8_10  and  C9_11 
REMARK    4  A    between atoms: C12_21  and  N5_22 
REMARK    5  A    between atoms: N5_22  and  C13_23 
REMARK    6  A    between atoms: C13_23  and  C14_24 
REMARK    7  A    between atoms: C13_23  and  C15_26 
REMARK    8  A    between atoms: C14_24  and  O3_25 
ROOT
HETATM    1  C9  UNL     1      -4.258   3.545  12.228  1.00  0.00     0.083 A 
HETATM    2  N2  UNL     1      -5.146   2.563  12.009  1.00  0.00    -0.257 N 
ATOM      3  H2  UNL     1      -6.153   2.597  12.162  1.00  0.00     0.195 HD
HETATM    4  O2  UNL     1      -4.406   1.493  11.530  1.00  0.00    -0.218 OA
HETATM    5  C10 UNL     1      -3.089   1.834  11.466  1.00  0.00     0.187 A 
HETATM    6  N3  UNL     1      -2.130   1.000  11.042  1.00  0.00    -0.330 N 
ATOM      7  H3  UNL     1      -2.293   0.042  10.732  1.00  0.00     0.168 HD
HETATM    8  C11 UNL     1      -0.932   1.590  11.079  1.00  0.00     0.183 A 
HETATM    9  N4  UNL     1      -0.641   2.849  11.473  1.00  0.00    -0.342 N 
ATOM     10  H4  UNL     1       0.321   3.188  11.441  1.00  0.00     0.167 HD
HETATM   11  C12 UNL     1      -1.636   3.659  11.912  1.00  0.00     0.098 A 
HETATM   12  C21 UNL     1      -2.938   3.138  11.897  1.00  0.00     0.085 A 
ENDROOT
BRANCH   1  13
HETATM   13  C8  UNL     1      -4.686   4.830  12.749  1.00  0.00    -0.004 A 
HETATM   14  C7  UNL     1      -3.767   5.875  12.870  1.00  0.00     0.014 A 
HETATM   15  C6  UNL     1      -4.197   7.125  13.308  1.00  0.00     0.003 A 
HETATM   16  C5  UNL     1      -5.543   7.334  13.628  1.00  0.00     0.029 A 
HETATM   17  C4  UNL     1      -6.471   6.295  13.525  1.00  0.00     0.035 A 
HETATM   18  C22 UNL     1      -6.032   5.039  13.087  1.00  0.00     0.043 A 
BRANCH  17  19
HETATM   19  N1  UNL     1      -7.840   6.424  13.843  1.00  0.00    -0.324 N 
HETATM   20  C3  UNL     1      -8.914   6.225  12.999  1.00  0.00     0.244 C 
HETATM   21  O1  UNL     1      -8.880   5.843  11.836  1.00  0.00    -0.268 OA
HETATM   22  H4  UNL     1      -8.046   6.683  14.799  1.00  0.00     0.169 HD
BRANCH  20  23
HETATM   23  C2  UNL     1     -10.212   6.518  13.676  1.00  0.00     0.064 C 
HETATM   24  C1  UNL     1     -11.124   7.306  13.090  1.00  0.00     0.017 C 
ENDBRANCH  20  23
ENDBRANCH  17  19
ENDBRANCH   1  13
BRANCH  11  25
HETATM   25  N5  UNL     1      -1.336   4.969  12.292  1.00  0.00    -0.267 NA
HETATM   26  H9  UNL     1      -1.866   5.225  13.120  1.00  0.00     0.130 HD
BRANCH  25  27
HETATM   27  C13 UNL     1       0.079   5.354  12.500  1.00  0.00     0.118 C 
BRANCH  27  28
HETATM   28  C14 UNL     1       0.375   5.972  13.894  1.00  0.00     0.188 C 
BRANCH  28  29
HETATM   29  O3  UNL     1       1.749   6.149  14.220  1.00  0.00    -0.399 OA
HETATM   30  H13 UNL     1       2.168   6.482  13.397  1.00  0.00     0.209 HD
ENDBRANCH  28  29
ENDBRANCH  27  28
BRANCH  27  31
HETATM   31  C15 UNL     1       0.660   6.027  11.265  1.00  0.00    -0.038 A 
HETATM   32  C16 UNL     1       1.852   5.606  10.661  1.00  0.00     0.009 A 
HETATM   33  C17 UNL     1       2.363   6.274   9.546  1.00  0.00     0.001 A 
HETATM   34  C18 UNL     1       1.691   7.373   9.016  1.00  0.00     0.000 A 
HETATM   35  C19 UNL     1       0.507   7.810   9.604  1.00  0.00     0.001 A 
HETATM   36  C20 UNL     1      -0.003   7.144  10.720  1.00  0.00     0.009 A 
ENDBRANCH  27  31
ENDBRANCH  25  27
ENDBRANCH  11  25
TORSDOF 8
ENDMDL
MODEL 5
REMARK minimizedAffinity -8.803442
REMARK  8 active torsions:
REMARK  status: ('A' for Active; 'I' for Inactive)
REMARK    1  A    between atoms: C2_2  and  C3_3 
REMARK       I    between atoms: C3_3  and  N1_5 
REMARK    2  A    between atoms: N1_5  and  C4_6 
REMARK    3  A    between atoms: C8_10  and  C9_11 
REMARK    4  A    between atoms: C12_21  and  N5_22 
REMARK    5  A    between atoms: N5_22  and  C13_23 
REMARK    6  A    between atoms: C13_23  and  C14_24 
REMARK    7  A    between atoms: C13_23  and  C15_26 
REMARK    8  A    between atoms: C14_24  and  O3_25 
ROOT
HETATM    1  C9  UNL     1      -2.211   4.047  12.073  1.00  0.00     0.083 A 
HETATM    2  N2  UNL     1      -2.016   2.787  11.656  1.00  0.00    -0.257 N 
ATOM      3  H2  UNL     1      -1.131   2.354  11.393  1.00  0.00     0.195 HD
HETATM    4  O2  UNL     1      -3.269   2.196  11.657  1.00  0.00    -0.218 OA
HETATM    5  C10 UNL     1      -4.204   3.096  12.069  1.00  0.00     0.187 A 
HETATM    6  N3  UNL     1      -5.510   2.813  12.170  1.00  0.00    -0.330 N 
ATOM      7  H3  UNL     1      -5.923   1.907  11.948  1.00  0.00     0.168 HD
HETATM    8  C11 UNL     1      -6.199   3.873  12.599  1.00  0.00     0.183 A 
HETATM    9  N4  UNL     1      -5.722   5.098  12.913  1.00  0.00    -0.342 N 
ATOM     10  H4  UNL     1      -6.355   5.826  13.245  1.00  0.00     0.167 HD
HETATM   11  C12 UNL     1      -4.397   5.353  12.782  1.00  0.00     0.098 A 
HETATM   12  C21 UNL     1      -3.581   4.296  12.353  1.00  0.00     0.085 A 
ENDROOT
BRANCH   1  13
HETATM   13  C8  UNL     1      -1.099   4.973  12.185  1.00  0.00    -0.004 A 
HETATM   14  C7  UNL     1      -0.500   5.195  13.426  1.00  0.00     0.014 A 
HETATM   15  C6  UNL     1       0.608   6.034  13.517  1.00  0.00     0.003 A 
HETATM   16  C5  UNL     1       1.118   6.653  12.371  1.00  0.00     0.029 A 
HETATM   17  C4  UNL     1       0.521   6.450  11.125  1.00  0.00     0.035 A 
HETATM   18  C22 UNL     1      -0.596   5.609  11.040  1.00  0.00     0.043 A 
BRANCH  17  19
HETATM   19  N1  UNL     1       0.967   7.050   9.927  1.00  0.00    -0.324 N 
HETATM   20  C3  UNL     1       1.908   6.555   9.047  1.00  0.00     0.244 C 
HETATM   21  O1  UNL     1       2.487   5.479   9.112  1.00  0.00    -0.268 OA
HETATM   22  H4  UNL     1       0.537   7.936   9.693  1.00  0.00     0.169 HD
BRANCH  20  23
HETATM   23  C2  UNL     1       2.167   7.503   7.922  1.00  0.00     0.064 C 
HETATM   24  C1  UNL     1       1.869   7.161   6.661  1.00  0.00     0.017 C 
ENDBRANCH  20  23
ENDBRANCH  17  19
ENDBRANCH   1  13
BRANCH  11  25
HETATM   25  N5  UNL     1      -3.904   6.612  13.134  1.00  0.00    -0.267 NA
HETATM   26  H9  UNL     1      -4.323   7.329  12.550  1.00  0.00     0.130 HD
BRANCH  25  27
HETATM   27  C13 UNL     1      -3.982   7.049  14.547  1.00  0.00     0.118 C 
BRANCH  27  28
HETATM   28  C14 UNL     1      -3.025   6.290  15.505  1.00  0.00     0.188 C 
BRANCH  28  29
HETATM   29  O3  UNL     1      -2.623   6.995  16.675  1.00  0.00    -0.399 OA
HETATM   30  H13 UNL     1      -3.433   7.449  16.992  1.00  0.00     0.209 HD
ENDBRANCH  28  29
ENDBRANCH  27  28
BRANCH  27  31
HETATM   31  C15 UNL     1      -5.425   7.271  14.980  1.00  0.00    -0.038 A 
HETATM   32  C16 UNL     1      -6.179   8.376  14.567  1.00  0.00     0.009 A 
HETATM   33  C17 UNL     1      -7.491   8.555  15.015  1.00  0.00     0.001 A 
HETATM   34  C18 UNL     1      -8.068   7.632  15.883  1.00  0.00     0.000 A 
HETATM   35  C19 UNL     1      -7.333   6.529  16.310  1.00  0.00     0.001 A 
HETATM   36  C20 UNL     1      -6.022   6.350  15.864  1.00  0.00     0.009 A 
ENDBRANCH  27  31
ENDBRANCH  25  27
ENDBRANCH  11  25
TORSDOF 8
ENDMDL
MODEL 6
REMARK minimizedAffinity -8.78042507
REMARK  8 active torsions:
REMARK  status: ('A' for Active; 'I' for Inactive)
REMARK    1  A    between atoms: C2_2  and  C3_3 
REMARK       I    between atoms: C3_3  and  N1_5 
REMARK    2  A    between atoms: N1_5  and  C4_6 
REMARK    3  A    between atoms: C8_10  and  C9_11 
REMARK    4  A    between atoms: C12_21  and  N5_22 
REMARK    5  A    between atoms: N5_22  and  C13_23 
REMARK    6  A    between atoms: C13_23  and  C14_24 
REMARK    7  A    between atoms: C13_23  and  C15_26 
REMARK    8  A    between atoms: C14_24  and  O3_25 
ROOT
HETATM    1  C9  UNL     1      -3.844   3.529  11.306  1.00  0.00     0.083 A 
HETATM    2  N2  UNL     1      -3.311   2.939  10.226  1.00  0.00    -0.257 N 
ATOM      3  H2  UNL     1      -3.745   2.235   9.630  1.00  0.00     0.195 HD
HETATM    4  O2  UNL     1      -2.045   3.485  10.090  1.00  0.00    -0.218 OA
HETATM    5  C10 UNL     1      -1.824   4.392  11.081  1.00  0.00     0.187 A 
HETATM    6  N3  UNL     1      -0.684   5.084  11.211  1.00  0.00    -0.330 N 
ATOM      7  H3  UNL     1       0.118   4.996  10.587  1.00  0.00     0.168 HD
HETATM    8  C11 UNL     1      -0.737   5.903  12.264  1.00  0.00     0.183 A 
HETATM    9  N4  UNL     1      -1.761   6.074  13.129  1.00  0.00    -0.342 N 
ATOM     10  H4  UNL     1      -1.683   6.747  13.892  1.00  0.00     0.167 HD
HETATM   11  C12 UNL     1      -2.894   5.344  12.977  1.00  0.00     0.098 A 
HETATM   12  C21 UNL     1      -2.945   4.463  11.886  1.00  0.00     0.085 A 
ENDROOT
BRANCH   1  13
HETATM   13  C8  UNL     1      -5.180   3.184  11.758  1.00  0.00    -0.004 A 
HETATM   14  C7  UNL     1      -5.584   1.847  11.783  1.00  0.00     0.014 A 
HETATM   15  C6  UNL     1      -6.843   1.517  12.279  1.00  0.00     0.003 A 
HETATM   16  C5  UNL     1      -7.700   2.518  12.747  1.00  0.00     0.029 A 
HETATM   17  C4  UNL     1      -7.314   3.860  12.715  1.00  0.00     0.035 A 
HETATM   18  C22 UNL     1      -6.048   4.188  12.212  1.00  0.00     0.043 A 
BRANCH  17  19
HETATM   19  N1  UNL     1      -8.128   4.927  13.155  1.00  0.00    -0.324 N 
HETATM   20  C3  UNL     1      -8.857   5.797  12.370  1.00  0.00     0.244 C 
HETATM   21  O1  UNL     1      -8.981   5.769  11.153  1.00  0.00    -0.268 OA
HETATM   22  H4  UNL     1      -8.181   5.054  14.158  1.00  0.00     0.169 HD
BRANCH  20  23
HETATM   23  C2  UNL     1      -9.545   6.839  13.190  1.00  0.00     0.064 C 
HETATM   24  C1  UNL     1     -10.844   7.107  13.002  1.00  0.00     0.017 C 
ENDBRANCH  20  23
ENDBRANCH  17  19
ENDBRANCH   1  13
BRANCH  11  25
HETATM   25  N5  UNL     1      -3.961   5.543  13.856  1.00  0.00    -0.267 NA
HETATM   26  H9  UNL     1      -3.969   4.819  14.568  1.00  0.00     0.130 HD
BRANCH  25  27
HETATM   27  C13 UNL     1      -4.114   6.858  14.519  1.00  0.00     0.118 C 
BRANCH  27  28
HETATM   28  C14 UNL     1      -2.899   7.281  15.388  1.00  0.00     0.188 C 
BRANCH  28  29
HETATM   29  O3  UNL     1      -2.918   6.847  16.744  1.00  0.00    -0.399 OA
HETATM   30  H13 UNL     1      -3.245   5.922  16.712  1.00  0.00     0.209 HD
ENDBRANCH  28  29
ENDBRANCH  27  28
BRANCH  27  31
HETATM   31  C15 UNL     1      -5.515   7.034  15.088  1.00  0.00    -0.038 A 
HETATM   32  C16 UNL     1      -6.256   8.212  14.927  1.00  0.00     0.009 A 
HETATM   33  C17 UNL     1      -7.527   8.340  15.492  1.00  0.00     0.001 A 
HETATM   34  C18 UNL     1      -8.077   7.294  16.227  1.00  0.00     0.000 A 
HETATM   35  C19 UNL     1      -7.355   6.116  16.403  1.00  0.00     0.001 A 
HETATM   36  C20 UNL     1      -6.084   5.988  15.840  1.00  0.00     0.009 A 
ENDBRANCH  27  31
ENDBRANCH  25  27
ENDBRANCH  11  25
TORSDOF 8
ENDMDL
MODEL 7
REMARK minimizedAffinity -8.73683834
REMARK  8 active torsions:
REMARK  status: ('A' for Active; 'I' for Inactive)
REMARK    1  A    between atoms: C2_2  and  C3_3 
REMARK       I    between atoms: C3_3  and  N1_5 
REMARK    2  A    between atoms: N1_5  and  C4_6 
REMARK    3  A    between atoms: C8_10  and  C9_11 
REMARK    4  A    between atoms: C12_21  and  N5_22 
REMARK    5  A    between atoms: N5_22  and  C13_23 
REMARK    6  A    between atoms: C13_23  and  C14_24 
REMARK    7  A    between atoms: C13_23  and  C15_26 
REMARK    8  A    between atoms: C14_24  and  O3_25 
ROOT
HETATM    1  C9  UNL     1      -7.060   3.763  13.095  1.00  0.00     0.083 A 
HETATM    2  N2  UNL     1      -7.688   2.619  12.787  1.00  0.00    -0.257 N 
ATOM      3  H2  UNL     1      -8.623   2.333  13.073  1.00  0.00     0.195 HD
HETATM    4  O2  UNL     1      -6.799   1.907  11.998  1.00  0.00    -0.218 OA
HETATM    5  C10 UNL     1      -5.649   2.619  11.839  1.00  0.00     0.187 A 
HETATM    6  N3  UNL     1      -4.602   2.185  11.125  1.00  0.00    -0.330 N 
ATOM      7  H3  UNL     1      -4.566   1.288  10.640  1.00  0.00     0.168 HD
HETATM    8  C11 UNL     1      -3.612   3.080  11.132  1.00  0.00     0.183 A 
HETATM    9  N4  UNL     1      -3.588   4.283  11.747  1.00  0.00    -0.342 N 
ATOM     10  H4  UNL     1      -2.769   4.887  11.664  1.00  0.00     0.167 HD
HETATM   11  C12 UNL     1      -4.660   4.683  12.475  1.00  0.00     0.098 A 
HETATM   12  C21 UNL     1      -5.763   3.818  12.516  1.00  0.00     0.085 A 
ENDROOT
BRANCH   1  13
HETATM   13  C8  UNL     1      -7.701   4.761  13.931  1.00  0.00    -0.004 A 
HETATM   14  C7  UNL     1      -7.264   4.958  15.243  1.00  0.00     0.014 A 
HETATM   15  C6  UNL     1      -7.839   5.961  16.019  1.00  0.00     0.003 A 
HETATM   16  C5  UNL     1      -8.852   6.768  15.489  1.00  0.00     0.029 A 
HETATM   17  C4  UNL     1      -9.308   6.574  14.183  1.00  0.00     0.035 A 
HETATM   18  C22 UNL     1      -8.729   5.560  13.408  1.00  0.00     0.043 A 
BRANCH  17  19
HETATM   19  N1  UNL     1     -10.335   7.335  13.583  1.00  0.00    -0.324 N 
HETATM   20  C3  UNL     1     -11.696   7.154  13.722  1.00  0.00     0.244 C 
HETATM   21  O1  UNL     1     -12.265   6.338  14.435  1.00  0.00    -0.268 OA
HETATM   22  H4  UNL     1     -10.028   8.100  12.996  1.00  0.00     0.169 HD
BRANCH  20  23
HETATM   23  C2  UNL     1     -12.471   8.116  12.882  1.00  0.00     0.064 C 
HETATM   24  C1  UNL     1     -13.811   8.085  12.871  1.00  0.00     0.017 C 
ENDBRANCH  20  23
ENDBRANCH  17  19
ENDBRANCH   1  13
BRANCH  11  25
HETATM   25  N5  UNL     1      -4.643   5.939  13.085  1.00  0.00    -0.267 NA
HETATM   26  H9  UNL     1      -5.529   6.116  13.549  1.00  0.00     0.130 HD
BRANCH  25  27
HETATM   27  C13 UNL     1      -3.546   6.272  14.022  1.00  0.00     0.118 C 
BRANCH  27  28
HETATM   28  C14 UNL     1      -4.020   6.699  15.438  1.00  0.00     0.188 C 
BRANCH  28  29
HETATM   29  O3  UNL     1      -3.403   6.031  16.532  1.00  0.00    -0.399 OA
HETATM   30  H13 UNL     1      -2.454   5.969  16.292  1.00  0.00     0.209 HD
ENDBRANCH  28  29
ENDBRANCH  27  28
BRANCH  27  31
HETATM   31  C15 UNL     1      -2.460   7.091  13.338  1.00  0.00    -0.038 A 
HETATM   32  C16 UNL     1      -2.708   8.340  12.753  1.00  0.00     0.009 A 
HETATM   33  C17 UNL     1      -1.686   9.043  12.109  1.00  0.00     0.001 A 
HETATM   34  C18 UNL     1      -0.403   8.509  12.040  1.00  0.00     0.000 A 
HETATM   35  C19 UNL     1      -0.137   7.267  12.610  1.00  0.00     0.001 A 
HETATM   36  C20 UNL     1      -1.157   6.563  13.252  1.00  0.00     0.009 A 
ENDBRANCH  27  31
ENDBRANCH  25  27
ENDBRANCH  11  25
TORSDOF 8
ENDMDL
MODEL 8
REMARK minimizedAffinity -8.72785854
REMARK  8 active torsions:
REMARK  status: ('A' for Active; 'I' for Inactive)
REMARK    1  A    between atoms: C2_2  and  C3_3 
REMARK       I    between atoms: C3_3  and  N1_5 
REMARK    2  A    between atoms: N1_5  and  C4_6 
REMARK    3  A    between atoms: C8_10  and  C9_11 
REMARK    4  A    between atoms: C12_21  and  N5_22 
REMARK    5  A    between atoms: N5_22  and  C13_23 
REMARK    6  A    between atoms: C13_23  and  C14_24 
REMARK    7  A    between atoms: C13_23  and  C15_26 
REMARK    8  A    between atoms: C14_24  and  O3_25 
ROOT
HETATM    1  C9  UNL     1      -6.812   4.305  13.621  1.00  0.00     0.083 A 
HETATM    2  N2  UNL     1      -8.050   3.865  13.890  1.00  0.00    -0.257 N 
ATOM      3  H2  UNL     1      -8.737   4.295  14.508  1.00  0.00     0.195 HD
HETATM    4  O2  UNL     1      -8.200   2.702  13.152  1.00  0.00    -0.218 OA
HETATM    5  C10 UNL     1      -7.061   2.450  12.450  1.00  0.00     0.187 A 
HETATM    6  N3  UNL     1      -6.907   1.390  11.645  1.00  0.00    -0.330 N 
ATOM      7  H3  UNL     1      -7.620   0.678  11.485  1.00  0.00     0.168 HD
HETATM    8  C11 UNL     1      -5.697   1.388  11.080  1.00  0.00     0.183 A 
HETATM    9  N4  UNL     1      -4.707   2.293  11.241  1.00  0.00    -0.342 N 
ATOM     10  H4  UNL     1      -3.826   2.186  10.738  1.00  0.00     0.167 HD
HETATM   11  C12 UNL     1      -4.892   3.345  12.077  1.00  0.00     0.098 A 
HETATM   12  C21 UNL     1      -6.141   3.447  12.709  1.00  0.00     0.085 A 
ENDROOT
BRANCH   1  13
HETATM   13  C8  UNL     1      -6.303   5.516  14.239  1.00  0.00    -0.004 A 
HETATM   14  C7  UNL     1      -4.990   5.559  14.712  1.00  0.00     0.014 A 
HETATM   15  C6  UNL     1      -4.486   6.743  15.244  1.00  0.00     0.003 A 
HETATM   16  C5  UNL     1      -5.292   7.885  15.307  1.00  0.00     0.029 A 
HETATM   17  C4  UNL     1      -6.612   7.853  14.850  1.00  0.00     0.035 A 
HETATM   18  C22 UNL     1      -7.114   6.658  14.319  1.00  0.00     0.043 A 
BRANCH  17  19
HETATM   19  N1  UNL     1      -7.491   8.958  14.894  1.00  0.00    -0.324 N 
HETATM   20  C3  UNL     1      -8.727   9.014  15.504  1.00  0.00     0.244 C 
HETATM   21  O1  UNL     1      -9.265   8.139  16.169  1.00  0.00    -0.268 OA
HETATM   22  H4  UNL     1      -7.165   9.796  14.432  1.00  0.00     0.169 HD
BRANCH  20  23
HETATM   23  C2  UNL     1      -9.393  10.333  15.284  1.00  0.00     0.064 C 
HETATM   24  C1  UNL     1     -10.672  10.393  14.888  1.00  0.00     0.017 C 
ENDBRANCH  20  23
ENDBRANCH  17  19
ENDBRANCH   1  13
BRANCH  11  25
HETATM   25  N5  UNL     1      -3.877   4.294  12.220  1.00  0.00    -0.267 NA
HETATM   26  H9  UNL     1      -3.669   4.440  13.203  1.00  0.00     0.130 HD
BRANCH  25  27
HETATM   27  C13 UNL     1      -2.603   4.102  11.491  1.00  0.00     0.118 C 
BRANCH  27  28
HETATM   28  C14 UNL     1      -2.085   2.638  11.481  1.00  0.00     0.188 C 
BRANCH  28  29
HETATM   29  O3  UNL     1      -1.729   2.110  10.208  1.00  0.00    -0.399 OA
HETATM   30  H13 UNL     1      -1.255   2.838   9.752  1.00  0.00     0.209 HD
ENDBRANCH  28  29
ENDBRANCH  27  28
BRANCH  27  31
HETATM   31  C15 UNL     1      -1.617   5.222  11.792  1.00  0.00    -0.038 A 
HETATM   32  C16 UNL     1      -0.259   5.149  11.453  1.00  0.00     0.009 A 
HETATM   33  C17 UNL     1       0.615   6.190  11.776  1.00  0.00     0.001 A 
HETATM   34  C18 UNL     1       0.147   7.319  12.442  1.00  0.00     0.000 A 
HETATM   35  C19 UNL     1      -1.197   7.410  12.792  1.00  0.00     0.001 A 
HETATM   36  C20 UNL     1      -2.072   6.370  12.471  1.00  0.00     0.009 A 
ENDBRANCH  27  31
ENDBRANCH  25  27
ENDBRANCH  11  25
TORSDOF 8
ENDMDL
MODEL 9
REMARK minimizedAffinity -8.58772278
REMARK  8 active torsions:
REMARK  status: ('A' for Active; 'I' for Inactive)
REMARK    1  A    between atoms: C2_2  and  C3_3 
REMARK       I    between atoms: C3_3  and  N1_5 
REMARK    2  A    between atoms: N1_5  and  C4_6 
REMARK    3  A    between atoms: C8_10  and  C9_11 
REMARK    4  A    between atoms: C12_21  and  N5_22 
REMARK    5  A    between atoms: N5_22  and  C13_23 
REMARK    6  A    between atoms: C13_23  and  C14_24 
REMARK    7  A    between atoms: C13_23  and  C15_26 
REMARK    8  A    between atoms: C14_24  and  O3_25 
ROOT
HETATM    1  C9  UNL     1      -1.227   9.182  13.427  1.00  0.00     0.083 A 
HETATM    2  N2  UNL     1      -0.345  10.162  13.677  1.00  0.00    -0.257 N 
ATOM      3  H2  UNL     1       0.625  10.213  13.367  1.00  0.00     0.195 HD
HETATM    4  O2  UNL     1      -1.028  11.091  14.446  1.00  0.00    -0.218 OA
HETATM    5  C10 UNL     1      -2.306  10.669  14.654  1.00  0.00     0.187 A 
HETATM    6  N3  UNL     1      -3.207  11.359  15.365  1.00  0.00    -0.330 N 
ATOM      7  H3  UNL     1      -3.022  12.256  15.815  1.00  0.00     0.168 HD
HETATM    8  C11 UNL     1      -4.378  10.718  15.408  1.00  0.00     0.183 A 
HETATM    9  N4  UNL     1      -4.695   9.535  14.838  1.00  0.00    -0.342 N 
ATOM     10  H4  UNL     1      -5.637   9.155  14.933  1.00  0.00     0.167 HD
HETATM   11  C12 UNL     1      -3.752   8.856  14.139  1.00  0.00     0.098 A 
HETATM   12  C21 UNL     1      -2.489   9.454  14.021  1.00  0.00     0.085 A 
ENDROOT
BRANCH   1  13
HETATM   13  C8  UNL     1      -0.846   8.021  12.645  1.00  0.00    -0.004 A 
HETATM   14  C7  UNL     1      -1.320   6.756  12.998  1.00  0.00     0.014 A 
HETATM   15  C6  UNL     1      -1.004   5.655  12.205  1.00  0.00     0.003 A 
HETATM   16  C5  UNL     1      -0.215   5.814  11.062  1.00  0.00     0.029 A 
HETATM   17  C4  UNL     1       0.278   7.071  10.704  1.00  0.00     0.035 A 
HETATM   18  C22 UNL     1      -0.039   8.175  11.507  1.00  0.00     0.043 A 
BRANCH  17  19
HETATM   19  N1  UNL     1       1.092   7.310   9.575  1.00  0.00    -0.324 N 
HETATM   20  C3  UNL     1       0.721   7.918   8.394  1.00  0.00     0.244 C 
HETATM   21  O1  UNL     1      -0.365   8.416   8.127  1.00  0.00    -0.268 OA
HETATM   22  H4  UNL     1       2.053   7.004   9.655  1.00  0.00     0.169 HD
BRANCH  20  23
HETATM   23  C2  UNL     1       1.839   7.935   7.404  1.00  0.00     0.064 C 
HETATM   24  C1  UNL     1       1.881   7.039   6.408  1.00  0.00     0.017 C 
ENDBRANCH  20  23
ENDBRANCH  17  19
ENDBRANCH   1  13
BRANCH  11  25
HETATM   25  N5  UNL     1      -4.091   7.646  13.528  1.00  0.00    -0.267 NA
HETATM   26  H9  UNL     1      -3.260   7.191  13.164  1.00  0.00     0.130 HD
BRANCH  25  27
HETATM   27  C13 UNL     1      -4.880   6.650  14.288  1.00  0.00     0.118 C 
BRANCH  27  28
HETATM   28  C14 UNL     1      -4.303   6.310  15.688  1.00  0.00     0.188 C 
BRANCH  28  29
HETATM   29  O3  UNL     1      -2.947   5.876  15.717  1.00  0.00    -0.399 OA
HETATM   30  H13 UNL     1      -2.478   6.458  15.082  1.00  0.00     0.209 HD
ENDBRANCH  28  29
ENDBRANCH  27  28
BRANCH  27  31
HETATM   31  C15 UNL     1      -5.344   5.509  13.393  1.00  0.00    -0.038 A 
HETATM   32  C16 UNL     1      -6.697   5.207  13.189  1.00  0.00     0.009 A 
HETATM   33  C17 UNL     1      -7.075   4.130  12.383  1.00  0.00     0.001 A 
HETATM   34  C18 UNL     1      -6.109   3.340  11.768  1.00  0.00     0.000 A 
HETATM   35  C19 UNL     1      -4.759   3.620  11.961  1.00  0.00     0.001 A 
HETATM   36  C20 UNL     1      -4.379   4.695  12.768  1.00  0.00     0.009 A 
ENDBRANCH  27  31
ENDBRANCH  25  27
ENDBRANCH  11  25
TORSDOF 8
ENDMDL
