MODEL 1
REMARK minimizedAffinity -6.99413013
REMARK  3 active torsions:
REMARK  status: ('A' for Active; 'I' for Inactive)
REMARK    1  A    between atoms: C5_5  and  N1_6 
REMARK    2  A    between atoms: N1_6  and  C6_7 
REMARK    3  A    between atoms: C14_20  and  O1_21 
ROOT
HETATM    1  C6  UNL     1      10.955  35.090  17.927  1.00  0.00     0.136 A 
HETATM    2  N2  UNL     1      10.134  35.668  17.100  1.00  0.00    -0.336 N 
ATOM      3  H2  UNL     1      10.436  35.876  16.149  1.00  0.00     0.168 HD
HETATM    4  C7  UNL     1       8.867  35.998  17.499  1.00  0.00     0.199 A 
HETATM    5  N3  UNL     1       8.340  35.800  18.663  1.00  0.00    -0.289 N 
ATOM      6  H3  UNL     1       7.384  36.068  18.897  1.00  0.00     0.188 HD
HETATM    7  N4  UNL     1       9.171  35.211  19.531  1.00  0.00    -0.263 N 
HETATM    8  C8  UNL     1       8.859  34.896  20.823  1.00  0.00     0.117 A 
HETATM    9  C9  UNL     1       9.967  34.327  21.404  1.00  0.00     0.028 A 
HETATM   10  C10 UNL     1      11.001  34.290  20.422  1.00  0.00    -0.028 A 
HETATM   11  C11 UNL     1      12.369  33.762  20.662  1.00  0.00     0.050 C 
HETATM   12  C12 UNL     1      10.459  34.838  19.263  1.00  0.00     0.105 A 
ENDROOT
BRANCH   1  13
HETATM   13  N1  UNL     1      12.230  34.709  17.557  1.00  0.00    -0.340 N 
HETATM   14  H6  UNL     1      12.430  33.724  17.612  1.00  0.00     0.167 HD
BRANCH  13  15
HETATM   15  C5  UNL     1      13.311  35.472  17.076  1.00  0.00     0.036 A 
HETATM   16  C4  UNL     1      14.612  34.982  17.285  1.00  0.00     0.030 A 
HETATM   17  C3  UNL     1      15.739  35.672  16.823  1.00  0.00     0.012 A 
HETATM   18  C2  UNL     1      15.595  36.876  16.130  1.00  0.00    -0.029 A 
HETATM   19  C1  UNL     1      16.798  37.620  15.628  1.00  0.00     0.051 C 
HETATM   20  C14 UNL     1      14.305  37.364  15.913  1.00  0.00     0.073 A 
HETATM   21  C13 UNL     1      13.179  36.675  16.377  1.00  0.00     0.066 A 
BRANCH  20  22
HETATM   22  O1  UNL     1      14.158  38.541  15.233  1.00  0.00    -0.360 OA
HETATM   23  H14 UNL     1      13.209  38.724  15.135  1.00  0.00     0.217 HD
ENDBRANCH  20  22
ENDBRANCH  13  15
ENDBRANCH   1  13
TORSDOF 3
ENDMDL
MODEL 2
REMARK minimizedAffinity -6.67874193
REMARK  3 active torsions:
REMARK  status: ('A' for Active; 'I' for Inactive)
REMARK    1  A    between atoms: C5_5  and  N1_6 
REMARK    2  A    between atoms: N1_6  and  C6_7 
REMARK    3  A    between atoms: C14_20  and  O1_21 
ROOT
HETATM    1  C6  UNL     1       9.640  36.186  20.948  1.00  0.00     0.136 A 
HETATM    2  N2  UNL     1       9.759  36.047  22.236  1.00  0.00    -0.336 N 
ATOM      3  H2  UNL     1      10.639  36.288  22.692  1.00  0.00     0.168 HD
HETATM    4  C7  UNL     1       8.711  35.581  22.983  1.00  0.00     0.199 A 
HETATM    5  N3  UNL     1       7.541  35.237  22.555  1.00  0.00    -0.289 N 
ATOM      6  H3  UNL     1       6.799  34.898  23.166  1.00  0.00     0.188 HD
HETATM    7  N4  UNL     1       7.399  35.368  21.230  1.00  0.00    -0.263 N 
HETATM    8  C8  UNL     1       6.264  35.069  20.531  1.00  0.00     0.117 A 
HETATM    9  C9  UNL     1       6.506  35.308  19.200  1.00  0.00     0.028 A 
HETATM   10  C10 UNL     1       7.848  35.777  19.081  1.00  0.00    -0.028 A 
HETATM   11  C11 UNL     1       8.503  36.132  17.794  1.00  0.00     0.050 C 
HETATM   12  C12 UNL     1       8.366  35.813  20.372  1.00  0.00     0.105 A 
ENDROOT
BRANCH   1  13
HETATM   13  N1  UNL     1      10.659  36.685  20.161  1.00  0.00    -0.340 N 
HETATM   14  H6  UNL     1      10.615  37.669  19.952  1.00  0.00     0.167 HD
BRANCH  13  15
HETATM   15  C5  UNL     1      11.791  36.050  19.617  1.00  0.00     0.036 A 
HETATM   16  C4  UNL     1      13.061  36.486  20.035  1.00  0.00     0.030 A 
HETATM   17  C3  UNL     1      14.234  35.895  19.553  1.00  0.00     0.012 A 
HETATM   18  C2  UNL     1      14.172  34.842  18.639  1.00  0.00    -0.029 A 
HETATM   19  C1  UNL     1      15.426  34.201  18.120  1.00  0.00     0.051 C 
HETATM   20  C14 UNL     1      12.914  34.400  18.225  1.00  0.00     0.073 A 
HETATM   21  C13 UNL     1      11.741  34.992  18.704  1.00  0.00     0.066 A 
BRANCH  20  22
HETATM   22  O1  UNL     1      12.846  33.368  17.330  1.00  0.00    -0.360 OA
HETATM   23  H14 UNL     1      11.911  33.158  17.173  1.00  0.00     0.217 HD
ENDBRANCH  20  22
ENDBRANCH  13  15
ENDBRANCH   1  13
TORSDOF 3
ENDMDL
MODEL 3
REMARK minimizedAffinity -6.60460567
REMARK  3 active torsions:
REMARK  status: ('A' for Active; 'I' for Inactive)
REMARK    1  A    between atoms: C5_5  and  N1_6 
REMARK    2  A    between atoms: N1_6  and  C6_7 
REMARK    3  A    between atoms: C14_20  and  O1_21 
ROOT
HETATM    1  C6  UNL     1      11.531  34.486  18.770  1.00  0.00     0.136 A 
HETATM    2  N2  UNL     1      12.277  33.848  19.624  1.00  0.00    -0.336 N 
ATOM      3  H2  UNL     1      13.187  33.490  19.333  1.00  0.00     0.168 HD
HETATM    4  C7  UNL     1      11.849  33.654  20.909  1.00  0.00     0.199 A 
HETATM    5  N3  UNL     1      10.730  34.045  21.425  1.00  0.00    -0.289 N 
ATOM      6  H3  UNL     1      10.470  33.871  22.396  1.00  0.00     0.188 HD
HETATM    7  N4  UNL     1       9.945  34.699  20.561  1.00  0.00    -0.263 N 
HETATM    8  C8  UNL     1       8.713  35.211  20.855  1.00  0.00     0.117 A 
HETATM    9  C9  UNL     1       8.206  35.788  19.716  1.00  0.00     0.028 A 
HETATM   10  C10 UNL     1       9.173  35.624  18.680  1.00  0.00    -0.028 A 
HETATM   11  C11 UNL     1       8.995  36.097  17.282  1.00  0.00     0.050 C 
HETATM   12  C12 UNL     1      10.250  34.952  19.252  1.00  0.00     0.105 A 
ENDROOT
BRANCH   1  13
HETATM   13  N1  UNL     1      11.938  34.733  17.474  1.00  0.00    -0.340 N 
HETATM   14  H6  UNL     1      11.353  34.356  16.747  1.00  0.00     0.167 HD
BRANCH  13  15
HETATM   15  C5  UNL     1      13.035  35.466  16.982  1.00  0.00     0.036 A 
HETATM   16  C4  UNL     1      14.326  34.958  17.207  1.00  0.00     0.030 A 
HETATM   17  C3  UNL     1      15.467  35.618  16.736  1.00  0.00     0.012 A 
HETATM   18  C2  UNL     1      15.348  36.808  16.017  1.00  0.00    -0.029 A 
HETATM   19  C1  UNL     1      16.566  37.520  15.505  1.00  0.00     0.051 C 
HETATM   20  C14 UNL     1      14.068  37.315  15.784  1.00  0.00     0.073 A 
HETATM   21  C13 UNL     1      12.928  36.657  16.257  1.00  0.00     0.066 A 
BRANCH  20  22
HETATM   22  O1  UNL     1      13.945  38.480  15.078  1.00  0.00    -0.360 OA
HETATM   23  H14 UNL     1      13.000  38.677  14.972  1.00  0.00     0.217 HD
ENDBRANCH  20  22
ENDBRANCH  13  15
ENDBRANCH   1  13
TORSDOF 3
ENDMDL
MODEL 4
REMARK minimizedAffinity -6.51984644
REMARK  3 active torsions:
REMARK  status: ('A' for Active; 'I' for Inactive)
REMARK    1  A    between atoms: C5_5  and  N1_6 
REMARK    2  A    between atoms: N1_6  and  C6_7 
REMARK    3  A    between atoms: C14_20  and  O1_21 
ROOT
HETATM    1  C6  UNL     1      14.000  35.677  19.059  1.00  0.00     0.136 A 
HETATM    2  N2  UNL     1      14.240  34.904  20.078  1.00  0.00    -0.336 N 
ATOM      3  H2  UNL     1      13.643  34.954  20.903  1.00  0.00     0.168 HD
HETATM    4  C7  UNL     1      15.287  34.023  20.049  1.00  0.00     0.199 A 
HETATM    5  N3  UNL     1      16.127  33.842  19.083  1.00  0.00    -0.289 N 
ATOM      6  H3  UNL     1      16.887  33.164  19.121  1.00  0.00     0.188 HD
HETATM    7  N4  UNL     1      15.901  34.632  18.026  1.00  0.00    -0.263 N 
HETATM    8  C8  UNL     1      16.645  34.639  16.881  1.00  0.00     0.117 A 
HETATM    9  C9  UNL     1      16.127  35.594  16.039  1.00  0.00     0.028 A 
HETATM   10  C10 UNL     1      15.013  36.195  16.699  1.00  0.00    -0.028 A 
HETATM   11  C11 UNL     1      14.188  37.290  16.126  1.00  0.00     0.050 C 
HETATM   12  C12 UNL     1      14.897  35.557  17.931  1.00  0.00     0.105 A 
ENDROOT
BRANCH   1  13
HETATM   13  N1  UNL     1      12.936  36.555  19.032  1.00  0.00    -0.340 N 
HETATM   14  H6  UNL     1      13.169  37.534  19.055  1.00  0.00     0.167 HD
BRANCH  13  15
HETATM   15  C5  UNL     1      11.551  36.315  18.944  1.00  0.00     0.036 A 
HETATM   16  C4  UNL     1      10.780  36.444  20.113  1.00  0.00     0.030 A 
HETATM   17  C3  UNL     1       9.396  36.239  20.104  1.00  0.00     0.012 A 
HETATM   18  C2  UNL     1       8.739  35.900  18.920  1.00  0.00    -0.029 A 
HETATM   19  C1  UNL     1       7.254  35.682  18.902  1.00  0.00     0.051 C 
HETATM   20  C14 UNL     1       9.498  35.777  17.755  1.00  0.00     0.073 A 
HETATM   21  C13 UNL     1      10.882  35.980  17.763  1.00  0.00     0.066 A 
BRANCH  20  22
HETATM   22  O1  UNL     1       8.859  35.448  16.591  1.00  0.00    -0.360 OA
HETATM   23  H14 UNL     1       9.514  35.436  15.873  1.00  0.00     0.217 HD
ENDBRANCH  20  22
ENDBRANCH  13  15
ENDBRANCH   1  13
TORSDOF 3
ENDMDL
MODEL 5
REMARK minimizedAffinity -6.47593546
REMARK  3 active torsions:
REMARK  status: ('A' for Active; 'I' for Inactive)
REMARK    1  A    between atoms: C5_5  and  N1_6 
REMARK    2  A    between atoms: N1_6  and  C6_7 
REMARK    3  A    between atoms: C14_20  and  O1_21 
ROOT
HETATM    1  C6  UNL     1      12.691  35.059  17.427  1.00  0.00     0.136 A 
HETATM    2  N2  UNL     1      11.460  35.372  17.147  1.00  0.00    -0.336 N 
ATOM      3  H2  UNL     1      11.213  35.656  16.199  1.00  0.00     0.168 HD
HETATM    4  C7  UNL     1      10.494  35.323  18.115  1.00  0.00     0.199 A 
HETATM    5  N3  UNL     1      10.649  34.984  19.354  1.00  0.00    -0.289 N 
ATOM      6  H3  UNL     1       9.885  34.964  20.028  1.00  0.00     0.188 HD
HETATM    7  N4  UNL     1      11.911  34.663  19.664  1.00  0.00    -0.263 N 
HETATM    8  C8  UNL     1      12.338  34.275  20.902  1.00  0.00     0.117 A 
HETATM    9  C9  UNL     1      13.693  34.053  20.838  1.00  0.00     0.028 A 
HETATM   10  C10 UNL     1      14.111  34.314  19.499  1.00  0.00    -0.028 A 
HETATM   11  C11 UNL     1      15.515  34.205  19.021  1.00  0.00     0.050 C 
HETATM   12  C12 UNL     1      12.967  34.678  18.795  1.00  0.00     0.105 A 
ENDROOT
BRANCH   1  13
HETATM   13  N1  UNL     1      13.690  35.062  16.474  1.00  0.00    -0.340 N 
HETATM   14  H6  UNL     1      13.847  34.191  15.995  1.00  0.00     0.167 HD
BRANCH  13  15
HETATM   15  C5  UNL     1      14.522  36.104  16.021  1.00  0.00     0.036 A 
HETATM   16  C4  UNL     1      15.728  35.760  15.386  1.00  0.00     0.030 A 
HETATM   17  C3  UNL     1      16.602  36.736  14.893  1.00  0.00     0.012 A 
HETATM   18  C2  UNL     1      16.290  38.091  15.018  1.00  0.00    -0.029 A 
HETATM   19  C1  UNL     1      17.220  39.144  14.489  1.00  0.00     0.051 C 
HETATM   20  C14 UNL     1      15.091  38.439  15.642  1.00  0.00     0.073 A 
HETATM   21  C13 UNL     1      14.218  37.464  16.136  1.00  0.00     0.066 A 
BRANCH  20  22
HETATM   22  O1  UNL     1      14.779  39.765  15.765  1.00  0.00    -0.360 OA
HETATM   23  H14 UNL     1      13.905  39.839  16.184  1.00  0.00     0.217 HD
ENDBRANCH  20  22
ENDBRANCH  13  15
ENDBRANCH   1  13
TORSDOF 3
ENDMDL
MODEL 6
REMARK minimizedAffinity -6.43613291
REMARK  3 active torsions:
REMARK  status: ('A' for Active; 'I' for Inactive)
REMARK    1  A    between atoms: C5_5  and  N1_6 
REMARK    2  A    between atoms: N1_6  and  C6_7 
REMARK    3  A    between atoms: C14_20  and  O1_21 
ROOT
HETATM    1  C6  UNL     1       9.569  35.588  19.022  1.00  0.00     0.136 A 
HETATM    2  N2  UNL     1       8.928  36.297  18.140  1.00  0.00    -0.336 N 
ATOM      3  H2  UNL     1       9.386  36.553  17.266  1.00  0.00     0.168 HD
HETATM    4  C7  UNL     1       7.642  36.701  18.377  1.00  0.00     0.199 A 
HETATM    5  N3  UNL     1       6.930  36.457  19.429  1.00  0.00    -0.289 N 
ATOM      6  H3  UNL     1       5.972  36.786  19.544  1.00  0.00     0.188 HD
HETATM    7  N4  UNL     1       7.574  35.733  20.352  1.00  0.00    -0.263 N 
HETATM    8  C8  UNL     1       7.046  35.345  21.551  1.00  0.00     0.117 A 
HETATM    9  C9  UNL     1       8.008  34.640  22.234  1.00  0.00     0.028 A 
HETATM   10  C10 UNL     1       9.175  34.593  21.414  1.00  0.00    -0.028 A 
HETATM   11  C11 UNL     1      10.449  33.933  21.803  1.00  0.00     0.050 C 
HETATM   12  C12 UNL     1       8.858  35.274  20.242  1.00  0.00     0.105 A 
ENDROOT
BRANCH   1  13
HETATM   13  N1  UNL     1      10.854  35.130  18.810  1.00  0.00    -0.340 N 
HETATM   14  H6  UNL     1      11.042  34.186  19.106  1.00  0.00     0.167 HD
BRANCH  13  15
HETATM   15  C5  UNL     1      11.963  35.756  18.208  1.00  0.00     0.036 A 
HETATM   16  C4  UNL     1      12.965  36.277  19.045  1.00  0.00     0.030 A 
HETATM   17  C3  UNL     1      14.106  36.899  18.525  1.00  0.00     0.012 A 
HETATM   18  C2  UNL     1      14.279  37.015  17.144  1.00  0.00    -0.029 A 
HETATM   19  C1  UNL     1      15.502  37.677  16.578  1.00  0.00     0.051 C 
HETATM   20  C14 UNL     1      13.291  36.494  16.308  1.00  0.00     0.073 A 
HETATM   21  C13 UNL     1      12.150  35.874  16.828  1.00  0.00     0.066 A 
BRANCH  20  22
HETATM   22  O1  UNL     1      13.456  36.603  14.954  1.00  0.00    -0.360 OA
HETATM   23  H14 UNL     1      12.708  36.165  14.516  1.00  0.00     0.217 HD
ENDBRANCH  20  22
ENDBRANCH  13  15
ENDBRANCH   1  13
TORSDOF 3
ENDMDL
MODEL 7
REMARK minimizedAffinity -6.42356777
REMARK  3 active torsions:
REMARK  status: ('A' for Active; 'I' for Inactive)
REMARK    1  A    between atoms: C5_5  and  N1_6 
REMARK    2  A    between atoms: N1_6  and  C6_7 
REMARK    3  A    between atoms: C14_20  and  O1_21 
ROOT
HETATM    1  C6  UNL     1      13.767  34.823  17.613  1.00  0.00     0.136 A 
HETATM    2  N2  UNL     1      13.687  35.265  16.392  1.00  0.00    -0.336 N 
ATOM      3  H2  UNL     1      12.841  35.098  15.848  1.00  0.00     0.168 HD
HETATM    4  C7  UNL     1      14.730  35.954  15.835  1.00  0.00     0.199 A 
HETATM    5  N3  UNL     1      15.859  36.245  16.393  1.00  0.00    -0.289 N 
ATOM      6  H3  UNL     1      16.598  36.766  15.923  1.00  0.00     0.188 HD
HETATM    7  N4  UNL     1      15.963  35.794  17.649  1.00  0.00    -0.263 N 
HETATM    8  C8  UNL     1      17.054  35.966  18.454  1.00  0.00     0.117 A 
HETATM    9  C9  UNL     1      16.800  35.348  19.655  1.00  0.00     0.028 A 
HETATM   10  C10 UNL     1      15.495  34.776  19.582  1.00  0.00    -0.028 A 
HETATM   11  C11 UNL     1      14.854  34.003  20.677  1.00  0.00     0.050 C 
HETATM   12  C12 UNL     1      15.002  35.089  18.319  1.00  0.00     0.105 A 
ENDROOT
BRANCH   1  13
HETATM   13  N1  UNL     1      12.726  34.154  18.227  1.00  0.00    -0.340 N 
HETATM   14  H6  UNL     1      12.892  33.186  18.448  1.00  0.00     0.167 HD
BRANCH  13  15
HETATM   15  C5  UNL     1      11.458  34.610  18.635  1.00  0.00     0.036 A 
HETATM   16  C4  UNL     1      11.007  34.250  19.917  1.00  0.00     0.030 A 
HETATM   17  C3  UNL     1       9.765  34.676  20.404  1.00  0.00     0.012 A 
HETATM   18  C2  UNL     1       8.938  35.482  19.620  1.00  0.00    -0.029 A 
HETATM   19  C1  UNL     1       7.607  35.946  20.136  1.00  0.00     0.051 C 
HETATM   20  C14 UNL     1       9.384  35.848  18.348  1.00  0.00     0.073 A 
HETATM   21  C13 UNL     1      10.623  35.420  17.861  1.00  0.00     0.066 A 
BRANCH  20  22
HETATM   22  O1  UNL     1       8.578  36.639  17.576  1.00  0.00    -0.360 OA
HETATM   23  H14 UNL     1       9.041  36.832  16.745  1.00  0.00     0.217 HD
ENDBRANCH  20  22
ENDBRANCH  13  15
ENDBRANCH   1  13
TORSDOF 3
ENDMDL
MODEL 8
REMARK minimizedAffinity -6.30226326
REMARK  3 active torsions:
REMARK  status: ('A' for Active; 'I' for Inactive)
REMARK    1  A    between atoms: C5_5  and  N1_6 
REMARK    2  A    between atoms: N1_6  and  C6_7 
REMARK    3  A    between atoms: C14_20  and  O1_21 
ROOT
HETATM    1  C6  UNL     1      10.342  34.800  19.369  1.00  0.00     0.136 A 
HETATM    2  N2  UNL     1      10.284  35.299  18.169  1.00  0.00    -0.336 N 
ATOM      3  H2  UNL     1      11.043  35.122  17.510  1.00  0.00     0.168 HD
HETATM    4  C7  UNL     1       9.212  36.057  17.783  1.00  0.00     0.199 A 
HETATM    5  N3  UNL     1       8.180  36.367  18.498  1.00  0.00    -0.289 N 
ATOM      6  H3  UNL     1       7.409  36.936  18.150  1.00  0.00     0.188 HD
HETATM    7  N4  UNL     1       8.223  35.868  19.739  1.00  0.00    -0.263 N 
HETATM    8  C8  UNL     1       7.259  36.052  20.690  1.00  0.00     0.117 A 
HETATM    9  C9  UNL     1       7.662  35.412  21.837  1.00  0.00     0.028 A 
HETATM   10  C10 UNL     1       8.928  34.808  21.574  1.00  0.00    -0.028 A 
HETATM   11  C11 UNL     1       9.712  34.033  22.572  1.00  0.00     0.050 C 
HETATM   12  C12 UNL     1       9.235  35.104  20.250  1.00  0.00     0.105 A 
ENDROOT
BRANCH   1  13
HETATM   13  N1  UNL     1      11.388  34.002  19.788  1.00  0.00    -0.340 N 
HETATM   14  H6  UNL     1      11.134  33.101  20.159  1.00  0.00     0.167 HD
BRANCH  13  15
HETATM   15  C5  UNL     1      12.778  34.220  19.755  1.00  0.00     0.036 A 
HETATM   16  C4  UNL     1      13.444  34.065  18.526  1.00  0.00     0.030 A 
HETATM   17  C3  UNL     1      14.822  34.281  18.406  1.00  0.00     0.012 A 
HETATM   18  C2  UNL     1      15.576  34.663  19.517  1.00  0.00    -0.029 A 
HETATM   19  C1  UNL     1      17.054  34.900  19.396  1.00  0.00     0.051 C 
HETATM   20  C14 UNL     1      14.920  34.825  20.738  1.00  0.00     0.073 A 
HETATM   21  C13 UNL     1      13.543  34.608  20.859  1.00  0.00     0.066 A 
BRANCH  20  22
HETATM   22  O1  UNL     1      15.653  35.202  21.830  1.00  0.00    -0.360 OA
HETATM   23  H14 UNL     1      15.051  35.305  22.585  1.00  0.00     0.217 HD
ENDBRANCH  20  22
ENDBRANCH  13  15
ENDBRANCH   1  13
TORSDOF 3
ENDMDL
MODEL 9
REMARK minimizedAffinity -6.2607379
REMARK  3 active torsions:
REMARK  status: ('A' for Active; 'I' for Inactive)
REMARK    1  A    between atoms: C5_5  and  N1_6 
REMARK    2  A    between atoms: N1_6  and  C6_7 
REMARK    3  A    between atoms: C14_20  and  O1_21 
ROOT
HETATM    1  C6  UNL     1       4.732  65.312  -5.659  1.00  0.00     0.136 A 
HETATM    2  N2  UNL     1       5.401  64.659  -4.754  1.00  0.00    -0.336 N 
ATOM      3  H2  UNL     1       4.957  64.428  -3.865  1.00  0.00     0.168 HD
HETATM    4  C7  UNL     1       6.695  64.281  -4.987  1.00  0.00     0.199 A 
HETATM    5  N3  UNL     1       7.390  64.498  -6.056  1.00  0.00    -0.289 N 
ATOM      6  H3  UNL     1       8.354  64.185  -6.169  1.00  0.00     0.188 HD
HETATM    7  N4  UNL     1       6.721  65.172  -6.998  1.00  0.00    -0.263 N 
HETATM    8  C8  UNL     1       7.229  65.530  -8.215  1.00  0.00     0.117 A 
HETATM    9  C9  UNL     1       6.260  66.227  -8.896  1.00  0.00     0.028 A 
HETATM   10  C10 UNL     1       5.107  66.296  -8.058  1.00  0.00    -0.028 A 
HETATM   11  C11 UNL     1       3.842  66.985  -8.425  1.00  0.00     0.050 C 
HETATM   12  C12 UNL     1       5.431  65.614  -6.889  1.00  0.00     0.105 A 
ENDROOT
BRANCH   1  13
HETATM   13  N1  UNL     1       3.414  65.683  -5.480  1.00  0.00    -0.340 N 
HETATM   14  H6  UNL     1       3.012  66.251  -6.207  1.00  0.00     0.167 HD
BRANCH  13  15
HETATM   15  C5  UNL     1       2.505  65.370  -4.451  1.00  0.00     0.036 A 
HETATM   16  C4  UNL     1       1.419  64.532  -4.759  1.00  0.00     0.030 A 
HETATM   17  C3  UNL     1       0.481  64.161  -3.788  1.00  0.00     0.012 A 
HETATM   18  C2  UNL     1       0.608  64.614  -2.474  1.00  0.00    -0.029 A 
HETATM   19  C1  UNL     1      -0.392  64.217  -1.426  1.00  0.00     0.051 C 
HETATM   20  C14 UNL     1       1.688  65.440  -2.160  1.00  0.00     0.073 A 
HETATM   21  C13 UNL     1       2.624  65.814  -3.131  1.00  0.00     0.066 A 
BRANCH  20  22
HETATM   22  O1  UNL     1       1.818  65.886  -0.874  1.00  0.00    -0.360 OA
HETATM   23  H14 UNL     1       2.631  66.415  -0.811  1.00  0.00     0.217 HD
ENDBRANCH  20  22
ENDBRANCH  13  15
ENDBRANCH   1  13
TORSDOF 3
ENDMDL
