MODEL 1
REMARK minimizedAffinity -10.2378292
REMARK  4 active torsions:
REMARK  status: ('A' for Active; 'I' for Inactive)
REMARK    1  A    between atoms: O1_2  and  C2_3 
REMARK    2  A    between atoms: C3_4  and  N1_5 
REMARK    3  A    between atoms: C8_10  and  N3_31 
REMARK    4  A    between atoms: C9_12  and  N2_14 
ROOT
HETATM    1  C2  UNL     1       9.205  -8.603  26.955  1.00  0.00     0.207 C 
HETATM    2  C3  UNL     1       9.866  -9.865  26.330  1.00  0.00     0.226 C 
HETATM    3  C7  UNL     1      11.370  -9.866  26.629  1.00  0.00     0.090 C 
HETATM    4  C8  UNL     1      11.665  -9.494  28.087  1.00  0.00     0.234 C 
HETATM    5  O2  UNL     1      10.507  -9.531  28.913  1.00  0.00    -0.333 OA
HETATM    6  C9  UNL     1       9.351  -8.751  28.525  1.00  0.00     0.168 C 
HETATM    7  C10 UNL     1       8.222  -9.674  29.041  1.00  0.00     0.074 C 
ENDROOT
BRANCH   2   8
HETATM    8  N1  UNL     1       9.582 -10.060  24.770  1.00  0.00    -0.072 N 
HETATM    9  C4  UNL     1       8.390 -10.971  24.461  1.00  0.00     0.272 C 
HETATM   10  C5  UNL     1       9.311  -8.697  24.113  1.00  0.00     0.272 C 
HETATM   11  C6  UNL     1      10.819 -10.650  24.084  1.00  0.00     0.272 C 
ENDBRANCH   2   8
BRANCH   1  12
HETATM   12  O1  UNL     1       9.895  -7.471  26.397  1.00  0.00    -0.384 OA
HETATM   13  C1  UNL     1       9.066  -6.336  26.148  1.00  0.00     0.202 C 
ENDBRANCH   1  12
BRANCH   6  14
HETATM   14  N2  UNL     1       9.412  -7.463  29.232  1.00  0.00    -0.308 N 
HETATM   15  C11 UNL     1      10.487  -6.863  29.889  1.00  0.00     0.049 A 
HETATM   16  C12 UNL     1      11.839  -7.226  30.055  1.00  0.00     0.030 A 
HETATM   17  C16 UNL     1      10.002  -5.680  30.485  1.00  0.00     0.004 A 
HETATM   18  C13 UNL     1      12.692  -6.391  30.785  1.00  0.00     0.002 A 
HETATM   19  C14 UNL     1      12.225  -5.218  31.358  1.00  0.00     0.001 A 
HETATM   20  C15 UNL     1      10.886  -4.858  31.217  1.00  0.00     0.014 A 
HETATM   21  C17 UNL     1       8.609  -5.598  30.220  1.00  0.00     0.015 A 
HETATM   22  C18 UNL     1       7.549  -4.740  30.558  1.00  0.00    -0.010 A 
HETATM   23  C28 UNL     1       8.296  -6.694  29.446  1.00  0.00     0.077 A 
HETATM   24  C19 UNL     1       6.206  -5.003  30.148  1.00  0.00     0.054 A 
HETATM   25  C30 UNL     1       7.575  -3.481  31.376  1.00  0.00     0.163 A 
HETATM   26  C20 UNL     1       5.805  -6.095  29.362  1.00  0.00     0.022 A 
HETATM   27  C29 UNL     1       5.367  -3.933  30.705  1.00  0.00     0.253 A 
HETATM   28  C21 UNL     1       4.611  -6.639  28.799  1.00  0.00     0.004 A 
HETATM   29  C27 UNL     1       6.831  -6.945  28.982  1.00  0.00     0.077 A 
HETATM   30  C22 UNL     1       3.249  -6.268  28.825  1.00  0.00     0.014 A 
HETATM   31  C26 UNL     1       4.969  -7.782  28.066  1.00  0.00     0.048 A 
HETATM   32  C23 UNL     1       2.298  -7.023  28.131  1.00  0.00     0.001 A 
HETATM   33  C24 UNL     1       2.680  -8.142  27.405  1.00  0.00     0.002 A 
HETATM   34  C25 UNL     1       4.018  -8.540  27.357  1.00  0.00     0.030 A 
HETATM   35  N3  UNL     1       6.343  -7.935  28.191  1.00  0.00    -0.316 N 
HETATM   36  O3  UNL     1       4.166  -3.796  30.591  1.00  0.00    -0.268 OA
HETATM   37  N4  UNL     1       6.195  -3.087  31.408  1.00  0.00    -0.353 N 
HETATM   38  H29 UNL     1       5.827  -2.261  31.861  1.00  0.00     0.163 HD
ENDBRANCH   6  14
TORSDOF 4
ENDMDL
MODEL 2
REMARK minimizedAffinity -9.71623611
REMARK  4 active torsions:
REMARK  status: ('A' for Active; 'I' for Inactive)
REMARK    1  A    between atoms: O1_2  and  C2_3 
REMARK    2  A    between atoms: C3_4  and  N1_5 
REMARK    3  A    between atoms: C8_10  and  N3_31 
REMARK    4  A    between atoms: C9_12  and  N2_14 
ROOT
HETATM    1  C2  UNL     1       5.509  -8.532  27.810  1.00  0.00     0.207 C 
HETATM    2  C3  UNL     1       5.579  -9.218  26.417  1.00  0.00     0.226 C 
HETATM    3  C7  UNL     1       6.228  -8.270  25.402  1.00  0.00     0.090 C 
HETATM    4  C8  UNL     1       7.472  -7.582  25.975  1.00  0.00     0.234 C 
HETATM    5  O2  UNL     1       7.932  -8.183  27.179  1.00  0.00    -0.333 OA
HETATM    6  C9  UNL     1       7.006  -8.324  28.284  1.00  0.00     0.168 C 
HETATM    7  C10 UNL     1       7.519  -9.650  28.893  1.00  0.00     0.074 C 
ENDROOT
BRANCH   2   8
HETATM    8  N1  UNL     1       4.181  -9.777  25.879  1.00  0.00    -0.072 N 
HETATM    9  C4  UNL     1       3.374  -8.761  25.065  1.00  0.00     0.272 C 
HETATM   10  C5  UNL     1       4.418 -11.007  24.988  1.00  0.00     0.272 C 
HETATM   11  C6  UNL     1       3.315 -10.236  27.057  1.00  0.00     0.272 C 
ENDBRANCH   2   8
BRANCH   1  12
HETATM   12  O1  UNL     1       4.770  -7.312  27.620  1.00  0.00    -0.384 OA
HETATM   13  C1  UNL     1       3.368  -7.426  27.862  1.00  0.00     0.202 C 
ENDBRANCH   1  12
BRANCH   6  14
HETATM   14  N2  UNL     1       7.183  -7.171  29.178  1.00  0.00    -0.308 N 
HETATM   15  C11 UNL     1       6.266  -6.187  29.548  1.00  0.00     0.049 A 
HETATM   16  C12 UNL     1       4.900  -5.986  29.262  1.00  0.00     0.030 A 
HETATM   17  C16 UNL     1       6.958  -5.253  30.347  1.00  0.00     0.004 A 
HETATM   18  C13 UNL     1       4.240  -4.875  29.800  1.00  0.00     0.002 A 
HETATM   19  C14 UNL     1       4.910  -3.964  30.599  1.00  0.00     0.001 A 
HETATM   20  C15 UNL     1       6.265  -4.141  30.874  1.00  0.00     0.014 A 
HETATM   21  C17 UNL     1       8.318  -5.659  30.414  1.00  0.00     0.015 A 
HETATM   22  C18 UNL     1       9.510  -5.167  30.972  1.00  0.00    -0.010 A 
HETATM   23  C28 UNL     1       8.407  -6.834  29.700  1.00  0.00     0.077 A 
HETATM   24  C19 UNL     1      10.760  -5.832  30.786  1.00  0.00     0.054 A 
HETATM   25  C30 UNL     1       9.729  -3.928  31.793  1.00  0.00     0.163 A 
HETATM   26  C20 UNL     1      10.935  -7.030  30.075  1.00  0.00     0.022 A 
HETATM   27  C29 UNL     1      11.783  -5.028  31.469  1.00  0.00     0.253 A 
HETATM   28  C21 UNL     1      11.987  -7.923  29.707  1.00  0.00     0.004 A 
HETATM   29  C27 UNL     1       9.774  -7.561  29.538  1.00  0.00     0.077 A 
HETATM   30  C22 UNL     1      13.382  -7.948  29.923  1.00  0.00     0.014 A 
HETATM   31  C26 UNL     1      11.411  -8.984  28.991  1.00  0.00     0.048 A 
HETATM   32  C23 UNL     1      14.154  -9.007  29.436  1.00  0.00     0.001 A 
HETATM   33  C24 UNL     1      13.558 -10.050  28.739  1.00  0.00     0.002 A 
HETATM   34  C25 UNL     1      12.182 -10.059  28.507  1.00  0.00     0.030 A 
HETATM   35  N3  UNL     1      10.048  -8.736  28.914  1.00  0.00    -0.316 N 
HETATM   36  O3  UNL     1      12.975  -5.247  31.541  1.00  0.00    -0.268 OA
HETATM   37  N4  UNL     1      11.146  -3.942  32.025  1.00  0.00    -0.353 N 
HETATM   38  H29 UNL     1      11.661  -3.259  32.565  1.00  0.00     0.163 HD
ENDBRANCH   6  14
TORSDOF 4
ENDMDL
MODEL 3
REMARK minimizedAffinity -9.6316061
REMARK  4 active torsions:
REMARK  status: ('A' for Active; 'I' for Inactive)
REMARK    1  A    between atoms: O1_2  and  C2_3 
REMARK    2  A    between atoms: C3_4  and  N1_5 
REMARK    3  A    between atoms: C8_10  and  N3_31 
REMARK    4  A    between atoms: C9_12  and  N2_14 
ROOT
HETATM    1  C2  UNL     1       9.531  -3.729  30.912  1.00  0.00     0.207 C 
HETATM    2  C3  UNL     1      10.894  -3.679  31.658  1.00  0.00     0.226 C 
HETATM    3  C7  UNL     1      11.163  -5.024  32.343  1.00  0.00     0.090 C 
HETATM    4  C8  UNL     1      10.841  -6.209  31.424  1.00  0.00     0.234 C 
HETATM    5  O2  UNL     1      10.665  -5.824  30.066  1.00  0.00    -0.333 OA
HETATM    6  C9  UNL     1       9.692  -4.797  29.754  1.00  0.00     0.168 C 
HETATM    7  C10 UNL     1      10.395  -4.121  28.554  1.00  0.00     0.074 C 
ENDROOT
BRANCH   2   8
HETATM    8  N1  UNL     1      11.046  -2.464  32.685  1.00  0.00    -0.072 N 
HETATM    9  C4  UNL     1      11.208  -2.896  34.145  1.00  0.00     0.272 C 
HETATM   10  C5  UNL     1      12.270  -1.613  32.311  1.00  0.00     0.272 C 
HETATM   11  C6  UNL     1       9.821  -1.548  32.596  1.00  0.00     0.272 C 
ENDBRANCH   2   8
BRANCH   1  12
HETATM   12  O1  UNL     1       8.544  -4.069  31.902  1.00  0.00    -0.384 OA
HETATM   13  C1  UNL     1       8.951  -5.086  32.818  1.00  0.00     0.202 C 
ENDBRANCH   1  12
BRANCH   6  14
HETATM   14  N2  UNL     1       8.432  -5.460  29.387  1.00  0.00    -0.308 N 
HETATM   15  C11 UNL     1       7.121  -5.112  29.712  1.00  0.00     0.049 A 
HETATM   16  C12 UNL     1       6.558  -4.030  30.420  1.00  0.00     0.030 A 
HETATM   17  C16 UNL     1       6.283  -6.124  29.198  1.00  0.00     0.004 A 
HETATM   18  C13 UNL     1       5.169  -3.959  30.578  1.00  0.00     0.002 A 
HETATM   19  C14 UNL     1       4.340  -4.941  30.061  1.00  0.00     0.001 A 
HETATM   20  C15 UNL     1       4.885  -6.025  29.376  1.00  0.00     0.014 A 
HETATM   21  C17 UNL     1       7.109  -7.113  28.601  1.00  0.00     0.015 A 
HETATM   22  C18 UNL     1       6.931  -8.361  27.982  1.00  0.00    -0.010 A 
HETATM   23  C28 UNL     1       8.405  -6.663  28.728  1.00  0.00     0.077 A 
HETATM   24  C19 UNL     1       8.038  -9.143  27.532  1.00  0.00     0.054 A 
HETATM   25  C30 UNL     1       5.657  -9.105  27.702  1.00  0.00     0.163 A 
HETATM   26  C20 UNL     1       9.385  -8.759  27.624  1.00  0.00     0.022 A 
HETATM   27  C29 UNL     1       7.490 -10.388  26.976  1.00  0.00     0.253 A 
HETATM   28  C21 UNL     1      10.678  -9.268  27.296  1.00  0.00     0.004 A 
HETATM   29  C27 UNL     1       9.596  -7.517  28.200  1.00  0.00     0.077 A 
HETATM   30  C22 UNL     1      11.150 -10.464  26.712  1.00  0.00     0.014 A 
HETATM   31  C26 UNL     1      11.622  -8.292  27.655  1.00  0.00     0.048 A 
HETATM   32  C23 UNL     1      12.518 -10.654  26.499  1.00  0.00     0.001 A 
HETATM   33  C24 UNL     1      13.430  -9.669  26.853  1.00  0.00     0.002 A 
HETATM   34  C25 UNL     1      13.001  -8.474  27.433  1.00  0.00     0.030 A 
HETATM   35  N3  UNL     1      10.922  -7.224  28.198  1.00  0.00    -0.316 N 
HETATM   36  O3  UNL     1       8.101 -11.321  26.496  1.00  0.00    -0.268 OA
HETATM   37  N4  UNL     1       6.120 -10.325  27.102  1.00  0.00    -0.353 N 
HETATM   38  H29 UNL     1       5.533 -11.075  26.762  1.00  0.00     0.163 HD
ENDBRANCH   6  14
TORSDOF 4
ENDMDL
MODEL 4
REMARK minimizedAffinity -9.57334042
REMARK  4 active torsions:
REMARK  status: ('A' for Active; 'I' for Inactive)
REMARK    1  A    between atoms: O1_2  and  C2_3 
REMARK    2  A    between atoms: C3_4  and  N1_5 
REMARK    3  A    between atoms: C8_10  and  N3_31 
REMARK    4  A    between atoms: C9_12  and  N2_14 
ROOT
HETATM    1  C2  UNL     1       9.581  -9.876  26.656  1.00  0.00     0.207 C 
HETATM    2  C3  UNL     1      11.063  -9.472  26.414  1.00  0.00     0.226 C 
HETATM    3  C7  UNL     1      11.139  -7.994  26.013  1.00  0.00     0.090 C 
HETATM    4  C8  UNL     1      10.243  -7.114  26.892  1.00  0.00     0.234 C 
HETATM    5  O2  UNL     1       9.784  -7.785  28.060  1.00  0.00    -0.333 OA
HETATM    6  C9  UNL     1       9.087  -9.045  27.909  1.00  0.00     0.168 C 
HETATM    7  C10 UNL     1       9.559  -9.764  29.195  1.00  0.00     0.074 C 
ENDROOT
BRANCH   2   8
HETATM    8  N1  UNL     1      11.844 -10.398  25.372  1.00  0.00    -0.072 N 
HETATM    9  C4  UNL     1      13.265 -10.767  25.808  1.00  0.00     0.272 C 
HETATM   10  C5  UNL     1      11.068 -11.707  25.153  1.00  0.00     0.272 C 
HETATM   11  C6  UNL     1      11.932  -9.696  24.013  1.00  0.00     0.272 C 
ENDBRANCH   2   8
BRANCH   1  12
HETATM   12  O1  UNL     1       8.881  -9.583  25.434  1.00  0.00    -0.384 OA
HETATM   13  C1  UNL     1       9.024  -8.238  24.977  1.00  0.00     0.202 C 
ENDBRANCH   1  12
BRANCH   6  14
HETATM   14  N2  UNL     1       7.643  -8.769  27.899  1.00  0.00    -0.308 N 
HETATM   15  C11 UNL     1       6.629  -9.380  27.161  1.00  0.00     0.049 A 
HETATM   16  C12 UNL     1       6.615 -10.460  26.254  1.00  0.00     0.030 A 
HETATM   17  C16 UNL     1       5.434  -8.685  27.441  1.00  0.00     0.004 A 
HETATM   18  C13 UNL     1       5.406 -10.848  25.665  1.00  0.00     0.002 A 
HETATM   19  C14 UNL     1       4.226 -10.180  25.949  1.00  0.00     0.001 A 
HETATM   20  C15 UNL     1       4.230  -9.099  26.829  1.00  0.00     0.014 A 
HETATM   21  C17 UNL     1       5.748  -7.614  28.320  1.00  0.00     0.015 A 
HETATM   22  C18 UNL     1       5.063  -6.544  28.920  1.00  0.00    -0.010 A 
HETATM   23  C28 UNL     1       7.097  -7.710  28.581  1.00  0.00     0.077 A 
HETATM   24  C19 UNL     1       5.733  -5.583  29.736  1.00  0.00     0.054 A 
HETATM   25  C30 UNL     1       3.609  -6.182  28.827  1.00  0.00     0.163 A 
HETATM   26  C20 UNL     1       7.102  -5.609  30.049  1.00  0.00     0.022 A 
HETATM   27  C29 UNL     1       4.728  -4.599  30.159  1.00  0.00     0.253 A 
HETATM   28  C21 UNL     1       8.053  -4.848  30.794  1.00  0.00     0.004 A 
HETATM   29  C27 UNL     1       7.803  -6.671  29.501  1.00  0.00     0.077 A 
HETATM   30  C22 UNL     1       7.989  -3.664  31.560  1.00  0.00     0.014 A 
HETATM   31  C26 UNL     1       9.291  -5.504  30.696  1.00  0.00     0.048 A 
HETATM   32  C23 UNL     1       9.130  -3.174  32.202  1.00  0.00     0.001 A 
HETATM   33  C24 UNL     1      10.340  -3.847  32.098  1.00  0.00     0.002 A 
HETATM   34  C25 UNL     1      10.442  -5.021  31.348  1.00  0.00     0.030 A 
HETATM   35  N3  UNL     1       9.100  -6.626  29.903  1.00  0.00    -0.316 N 
HETATM   36  O3  UNL     1       4.894  -3.620  30.857  1.00  0.00    -0.268 OA
HETATM   37  N4  UNL     1       3.525  -4.979  29.607  1.00  0.00    -0.353 N 
HETATM   38  H29 UNL     1       2.682  -4.450  29.786  1.00  0.00     0.163 HD
ENDBRANCH   6  14
TORSDOF 4
ENDMDL
MODEL 5
REMARK minimizedAffinity -9.53209209
REMARK  4 active torsions:
REMARK  status: ('A' for Active; 'I' for Inactive)
REMARK    1  A    between atoms: O1_2  and  C2_3 
REMARK    2  A    between atoms: C3_4  and  N1_5 
REMARK    3  A    between atoms: C8_10  and  N3_31 
REMARK    4  A    between atoms: C9_12  and  N2_14 
ROOT
HETATM    1  C2  UNL     1      10.328  -8.114  27.430  1.00  0.00     0.207 C 
HETATM    2  C3  UNL     1      11.650  -8.880  27.140  1.00  0.00     0.226 C 
HETATM    3  C7  UNL     1      12.827  -8.156  27.804  1.00  0.00     0.090 C 
HETATM    4  C8  UNL     1      12.498  -7.721  29.237  1.00  0.00     0.234 C 
HETATM    5  O2  UNL     1      11.319  -8.336  29.744  1.00  0.00    -0.333 OA
HETATM    6  C9  UNL     1      10.089  -8.207  28.992  1.00  0.00     0.168 C 
HETATM    7  C10 UNL     1       9.439  -9.575  29.311  1.00  0.00     0.074 C 
ENDROOT
BRANCH   2   8
HETATM    8  N1  UNL     1      11.934  -9.153  25.591  1.00  0.00    -0.072 N 
HETATM    9  C4  UNL     1      12.538  -7.958  24.847  1.00  0.00     0.272 C 
HETATM   10  C5  UNL     1      12.903 -10.336  25.439  1.00  0.00     0.272 C 
HETATM   11  C6  UNL     1      10.633  -9.544  24.882  1.00  0.00     0.272 C 
ENDBRANCH   2   8
BRANCH   1  12
HETATM   12  O1  UNL     1      10.523  -6.776  26.937  1.00  0.00    -0.384 OA
HETATM   13  C1  UNL     1       9.507  -6.320  26.044  1.00  0.00     0.202 C 
ENDBRANCH   1  12
BRANCH   6  14
HETATM   14  N2  UNL     1       9.337  -7.069  29.540  1.00  0.00    -0.308 N 
HETATM   15  C11 UNL     1       9.745  -6.090  30.446  1.00  0.00     0.049 A 
HETATM   16  C12 UNL     1      10.973  -5.820  31.084  1.00  0.00     0.030 A 
HETATM   17  C16 UNL     1       8.621  -5.283  30.721  1.00  0.00     0.004 A 
HETATM   18  C13 UNL     1      11.069  -4.734  31.962  1.00  0.00     0.002 A 
HETATM   19  C14 UNL     1       9.973  -3.927  32.222  1.00  0.00     0.001 A 
HETATM   20  C15 UNL     1       8.749  -4.194  31.612  1.00  0.00     0.014 A 
HETATM   21  C17 UNL     1       7.516  -5.816  30.006  1.00  0.00     0.015 A 
HETATM   22  C18 UNL     1       6.143  -5.541  29.885  1.00  0.00    -0.010 A 
HETATM   23  C28 UNL     1       7.998  -6.892  29.293  1.00  0.00     0.077 A 
HETATM   24  C19 UNL     1       5.280  -6.353  29.087  1.00  0.00     0.054 A 
HETATM   25  C30 UNL     1       5.337  -4.450  30.528  1.00  0.00     0.163 A 
HETATM   26  C20 UNL     1       5.691  -7.464  28.333  1.00  0.00     0.022 A 
HETATM   27  C29 UNL     1       3.925  -5.803  29.220  1.00  0.00     0.253 A 
HETATM   28  C21 UNL     1       5.126  -8.451  27.469  1.00  0.00     0.004 A 
HETATM   29  C27 UNL     1       7.046  -7.744  28.403  1.00  0.00     0.077 A 
HETATM   30  C22 UNL     1       3.822  -8.729  27.007  1.00  0.00     0.014 A 
HETATM   31  C26 UNL     1       6.174  -9.271  27.020  1.00  0.00     0.048 A 
HETATM   32  C23 UNL     1       3.596  -9.789  26.123  1.00  0.00     0.001 A 
HETATM   33  C24 UNL     1       4.651 -10.578  25.686  1.00  0.00     0.002 A 
HETATM   34  C25 UNL     1       5.954 -10.333  26.122  1.00  0.00     0.030 A 
HETATM   35  N3  UNL     1       7.342  -8.802  27.604  1.00  0.00    -0.316 N 
HETATM   36  O3  UNL     1       2.903  -6.209  28.705  1.00  0.00    -0.268 OA
HETATM   37  N4  UNL     1       4.005  -4.716  30.062  1.00  0.00    -0.353 N 
HETATM   38  H29 UNL     1       3.183  -4.168  30.280  1.00  0.00     0.163 HD
ENDBRANCH   6  14
TORSDOF 4
ENDMDL
MODEL 6
REMARK minimizedAffinity -9.39590645
REMARK  4 active torsions:
REMARK  status: ('A' for Active; 'I' for Inactive)
REMARK    1  A    between atoms: O1_2  and  C2_3 
REMARK    2  A    between atoms: C3_4  and  N1_5 
REMARK    3  A    between atoms: C8_10  and  N3_31 
REMARK    4  A    between atoms: C9_12  and  N2_14 
ROOT
HETATM    1  C2  UNL     1       9.839  -8.836  27.007  1.00  0.00     0.207 C 
HETATM    2  C3  UNL     1      11.387  -8.713  26.934  1.00  0.00     0.226 C 
HETATM    3  C7  UNL     1      11.804  -7.254  27.152  1.00  0.00     0.090 C 
HETATM    4  C8  UNL     1      11.042  -6.607  28.315  1.00  0.00     0.234 C 
HETATM    5  O2  UNL     1      10.358  -7.557  29.124  1.00  0.00    -0.333 OA
HETATM    6  C9  UNL     1       9.428  -8.469  28.491  1.00  0.00     0.168 C 
HETATM    7  C10 UNL     1       9.631  -9.717  29.382  1.00  0.00     0.074 C 
ENDROOT
BRANCH   2   8
HETATM    8  N1  UNL     1      12.042  -9.313  25.605  1.00  0.00    -0.072 N 
HETATM    9  C4  UNL     1      13.442  -9.899  25.808  1.00  0.00     0.272 C 
HETATM   10  C5  UNL     1      11.146 -10.426  25.038  1.00  0.00     0.272 C 
HETATM   11  C6  UNL     1      12.135  -8.223  24.532  1.00  0.00     0.272 C 
ENDBRANCH   2   8
BRANCH   1  12
HETATM   12  O1  UNL     1       9.319  -7.943  26.006  1.00  0.00    -0.384 OA
HETATM   13  C1  UNL     1       8.605  -8.587  24.951  1.00  0.00     0.202 C 
ENDBRANCH   1  12
BRANCH   6  14
HETATM   14  N2  UNL     1       8.079  -7.894  28.600  1.00  0.00    -0.308 N 
HETATM   15  C11 UNL     1       6.919  -8.212  27.894  1.00  0.00     0.049 A 
HETATM   16  C12 UNL     1       6.623  -9.185  26.916  1.00  0.00     0.030 A 
HETATM   17  C16 UNL     1       5.919  -7.307  28.305  1.00  0.00     0.004 A 
HETATM   18  C13 UNL     1       5.330  -9.257  26.387  1.00  0.00     0.002 A 
HETATM   19  C14 UNL     1       4.339  -8.381  26.800  1.00  0.00     0.001 A 
HETATM   20  C15 UNL     1       4.624  -7.403  27.752  1.00  0.00     0.014 A 
HETATM   21  C17 UNL     1       6.504  -6.404  29.234  1.00  0.00     0.015 A 
HETATM   22  C18 UNL     1       6.099  -5.268  29.955  1.00  0.00    -0.010 A 
HETATM   23  C28 UNL     1       7.812  -6.805  29.393  1.00  0.00     0.077 A 
HETATM   24  C19 UNL     1       7.004  -4.543  30.788  1.00  0.00     0.054 A 
HETATM   25  C30 UNL     1       4.755  -4.600  29.990  1.00  0.00     0.163 A 
HETATM   26  C20 UNL     1       8.349  -4.884  31.003  1.00  0.00     0.022 A 
HETATM   27  C29 UNL     1       6.259  -3.408  31.350  1.00  0.00     0.253 A 
HETATM   28  C21 UNL     1       9.481  -4.407  31.731  1.00  0.00     0.004 A 
HETATM   29  C27 UNL     1       8.774  -6.020  30.333  1.00  0.00     0.077 A 
HETATM   30  C22 UNL     1       9.714  -3.305  32.582  1.00  0.00     0.014 A 
HETATM   31  C26 UNL     1      10.541  -5.299  31.500  1.00  0.00     0.048 A 
HETATM   32  C23 UNL     1      10.967  -3.123  33.175  1.00  0.00     0.001 A 
HETATM   33  C24 UNL     1      11.996  -4.026  32.939  1.00  0.00     0.002 A 
HETATM   34  C25 UNL     1      11.802  -5.127  32.103  1.00  0.00     0.030 A 
HETATM   35  N3  UNL     1      10.069  -6.285  30.645  1.00  0.00    -0.316 N 
HETATM   36  O3  UNL     1       6.670  -2.548  32.102  1.00  0.00    -0.268 OA
HETATM   37  N4  UNL     1       4.975  -3.477  30.857  1.00  0.00    -0.353 N 
HETATM   38  H29 UNL     1       4.277  -2.799  31.132  1.00  0.00     0.163 HD
ENDBRANCH   6  14
TORSDOF 4
ENDMDL
MODEL 7
REMARK minimizedAffinity -9.36450863
REMARK  4 active torsions:
REMARK  status: ('A' for Active; 'I' for Inactive)
REMARK    1  A    between atoms: O1_2  and  C2_3 
REMARK    2  A    between atoms: C3_4  and  N1_5 
REMARK    3  A    between atoms: C8_10  and  N3_31 
REMARK    4  A    between atoms: C9_12  and  N2_14 
ROOT
HETATM    1  C2  UNL     1       8.562  -9.040  26.602  1.00  0.00     0.207 C 
HETATM    2  C3  UNL     1       9.992  -8.939  25.999  1.00  0.00     0.226 C 
HETATM    3  C7  UNL     1      10.333  -7.473  25.709  1.00  0.00     0.090 C 
HETATM    4  C8  UNL     1       9.927  -6.551  26.866  1.00  0.00     0.234 C 
HETATM    5  O2  UNL     1       9.616  -7.263  28.058  1.00  0.00    -0.333 OA
HETATM    6  C9  UNL     1       8.613  -8.305  28.004  1.00  0.00     0.168 C 
HETATM    7  C10 UNL     1       9.191  -9.285  29.053  1.00  0.00     0.074 C 
ENDROOT
BRANCH   2   8
HETATM    8  N1  UNL     1      10.240  -9.858  24.715  1.00  0.00    -0.072 N 
HETATM    9  C4  UNL     1      11.641 -10.473  24.648  1.00  0.00     0.272 C 
HETATM   10  C5  UNL     1       9.222 -11.010  24.693  1.00  0.00     0.272 C 
HETATM   11  C6  UNL     1      10.019  -9.041  23.438  1.00  0.00     0.272 C 
ENDBRANCH   2   8
BRANCH   1  12
HETATM   12  O1  UNL     1       7.680  -8.431  25.642  1.00  0.00    -0.384 OA
HETATM   13  C1  UNL     1       7.811  -7.014  25.533  1.00  0.00     0.202 C 
ENDBRANCH   1  12
BRANCH   6  14
HETATM   14  N2  UNL     1       7.326  -7.721  28.406  1.00  0.00    -0.308 N 
HETATM   15  C11 UNL     1       6.033  -8.062  28.007  1.00  0.00     0.049 A 
HETATM   16  C12 UNL     1       5.520  -9.071  27.166  1.00  0.00     0.030 A 
HETATM   17  C16 UNL     1       5.154  -7.137  28.608  1.00  0.00     0.004 A 
HETATM   18  C13 UNL     1       4.138  -9.159  26.961  1.00  0.00     0.002 A 
HETATM   19  C14 UNL     1       3.268  -8.263  27.562  1.00  0.00     0.001 A 
HETATM   20  C15 UNL     1       3.765  -7.250  28.380  1.00  0.00     0.014 A 
HETATM   21  C17 UNL     1       5.936  -6.202  29.336  1.00  0.00     0.015 A 
HETATM   22  C18 UNL     1       5.707  -5.037  30.087  1.00  0.00    -0.010 A 
HETATM   23  C28 UNL     1       7.248  -6.601  29.197  1.00  0.00     0.077 A 
HETATM   24  C19 UNL     1       6.780  -4.283  30.654  1.00  0.00     0.054 A 
HETATM   25  C30 UNL     1       4.406  -4.362  30.413  1.00  0.00     0.163 A 
HETATM   26  C20 UNL     1       8.139  -4.621  30.558  1.00  0.00     0.022 A 
HETATM   27  C29 UNL     1       6.183  -3.124  31.331  1.00  0.00     0.253 A 
HETATM   28  C21 UNL     1       9.409  -4.120  30.978  1.00  0.00     0.004 A 
HETATM   29  C27 UNL     1       8.400  -5.783  29.851  1.00  0.00     0.077 A 
HETATM   30  C22 UNL     1       9.831  -2.986  31.707  1.00  0.00     0.014 A 
HETATM   31  C26 UNL     1      10.389  -5.024  30.539  1.00  0.00     0.048 A 
HETATM   32  C23 UNL     1      11.188  -2.787  31.979  1.00  0.00     0.001 A 
HETATM   33  C24 UNL     1      12.136  -3.702  31.542  1.00  0.00     0.002 A 
HETATM   34  C25 UNL     1      11.755  -4.834  30.819  1.00  0.00     0.030 A 
HETATM   35  N3  UNL     1       9.734  -6.041  29.858  1.00  0.00    -0.316 N 
HETATM   36  O3  UNL     1       6.755  -2.237  31.931  1.00  0.00    -0.268 OA
HETATM   37  N4  UNL     1       4.819  -3.207  31.159  1.00  0.00    -0.353 N 
HETATM   38  H29 UNL     1       4.203  -2.516  31.565  1.00  0.00     0.163 HD
ENDBRANCH   6  14
TORSDOF 4
ENDMDL
MODEL 8
REMARK minimizedAffinity -9.12854099
REMARK  4 active torsions:
REMARK  status: ('A' for Active; 'I' for Inactive)
REMARK    1  A    between atoms: O1_2  and  C2_3 
REMARK    2  A    between atoms: C3_4  and  N1_5 
REMARK    3  A    between atoms: C8_10  and  N3_31 
REMARK    4  A    between atoms: C9_12  and  N2_14 
ROOT
HETATM    1  C2  UNL     1      11.439  -8.140  28.550  1.00  0.00     0.207 C 
HETATM    2  C3  UNL     1      11.632  -9.662  28.299  1.00  0.00     0.226 C 
HETATM    3  C7  UNL     1      10.572 -10.455  29.073  1.00  0.00     0.090 C 
HETATM    4  C8  UNL     1       9.178  -9.831  28.939  1.00  0.00     0.234 C 
HETATM    5  O2  UNL     1       9.104  -8.858  27.903  1.00  0.00    -0.333 OA
HETATM    6  C9  UNL     1      10.040  -7.753  27.919  1.00  0.00     0.168 C 
HETATM    7  C10 UNL     1      10.227  -7.542  26.398  1.00  0.00     0.074 C 
ENDROOT
BRANCH   2   8
HETATM    8  N1  UNL     1      13.102 -10.207  28.604  1.00  0.00    -0.072 N 
HETATM    9  C4  UNL     1      13.497 -11.437  27.780  1.00  0.00     0.272 C 
HETATM   10  C5  UNL     1      14.136  -9.105  28.321  1.00  0.00     0.272 C 
HETATM   11  C6  UNL     1      13.228 -10.570  30.087  1.00  0.00     0.272 C 
ENDBRANCH   2   8
BRANCH   1  12
HETATM   12  O1  UNL     1      11.521  -7.956  29.975  1.00  0.00    -0.384 OA
HETATM   13  C1  UNL     1      12.769  -7.437  30.434  1.00  0.00     0.202 C 
ENDBRANCH   1  12
BRANCH   6  14
HETATM   14  N2  UNL     1       9.390  -6.615  28.585  1.00  0.00    -0.308 N 
HETATM   15  C11 UNL     1       9.959  -5.575  29.320  1.00  0.00     0.049 A 
HETATM   16  C12 UNL     1      11.292  -5.227  29.624  1.00  0.00     0.030 A 
HETATM   17  C16 UNL     1       8.899  -4.795  29.828  1.00  0.00     0.004 A 
HETATM   18  C13 UNL     1      11.546  -4.093  30.403  1.00  0.00     0.002 A 
HETATM   19  C14 UNL     1      10.510  -3.313  30.890  1.00  0.00     0.001 A 
HETATM   20  C15 UNL     1       9.188  -3.657  30.612  1.00  0.00     0.014 A 
HETATM   21  C17 UNL     1       7.680  -5.406  29.431  1.00  0.00     0.015 A 
HETATM   22  C18 UNL     1       6.307  -5.188  29.639  1.00  0.00    -0.010 A 
HETATM   23  C28 UNL     1       8.025  -6.501  28.668  1.00  0.00     0.077 A 
HETATM   24  C19 UNL     1       5.316  -6.072  29.114  1.00  0.00     0.054 A 
HETATM   25  C30 UNL     1       5.631  -4.094  30.413  1.00  0.00     0.163 A 
HETATM   26  C20 UNL     1       5.584  -7.206  28.330  1.00  0.00     0.022 A 
HETATM   27  C29 UNL     1       4.009  -5.565  29.553  1.00  0.00     0.253 A 
HETATM   28  C21 UNL     1       4.874  -8.258  27.676  1.00  0.00     0.004 A 
HETATM   29  C27 UNL     1       6.927  -7.433  28.077  1.00  0.00     0.077 A 
HETATM   30  C22 UNL     1       3.510  -8.607  27.561  1.00  0.00     0.014 A 
HETATM   31  C26 UNL     1       5.818  -9.063  27.018  1.00  0.00     0.048 A 
HETATM   32  C23 UNL     1       3.127  -9.721  26.807  1.00  0.00     0.001 A 
HETATM   33  C24 UNL     1       4.080 -10.494  26.158  1.00  0.00     0.002 A 
HETATM   34  C25 UNL     1       5.438 -10.179  26.249  1.00  0.00     0.030 A 
HETATM   35  N3  UNL     1       7.070  -8.521  27.277  1.00  0.00    -0.316 N 
HETATM   36  O3  UNL     1       2.914  -6.035  29.323  1.00  0.00    -0.268 OA
HETATM   37  N4  UNL     1       4.240  -4.433  30.301  1.00  0.00    -0.353 N 
HETATM   38  H29 UNL     1       3.471  -3.903  30.691  1.00  0.00     0.163 HD
ENDBRANCH   6  14
TORSDOF 4
ENDMDL
MODEL 9
REMARK minimizedAffinity -9.1073246
REMARK  4 active torsions:
REMARK  status: ('A' for Active; 'I' for Inactive)
REMARK    1  A    between atoms: O1_2  and  C2_3 
REMARK    2  A    between atoms: C3_4  and  N1_5 
REMARK    3  A    between atoms: C8_10  and  N3_31 
REMARK    4  A    between atoms: C9_12  and  N2_14 
ROOT
HETATM    1  C2  UNL     1       9.478  -9.409  25.790  1.00  0.00     0.207 C 
HETATM    2  C3  UNL     1      10.540  -8.282  25.929  1.00  0.00     0.226 C 
HETATM    3  C7  UNL     1       9.879  -6.915  25.709  1.00  0.00     0.090 C 
HETATM    4  C8  UNL     1       8.542  -6.799  26.450  1.00  0.00     0.234 C 
HETATM    5  O2  UNL     1       8.350  -7.831  27.410  1.00  0.00    -0.333 OA
HETATM    6  C9  UNL     1       8.452  -9.210  26.979  1.00  0.00     0.168 C 
HETATM    7  C10 UNL     1       9.049  -9.844  28.257  1.00  0.00     0.074 C 
ENDROOT
BRANCH   2   8
HETATM    8  N1  UNL     1      11.828  -8.461  25.001  1.00  0.00    -0.072 N 
HETATM    9  C4  UNL     1      11.604  -8.063  23.539  1.00  0.00     0.272 C 
HETATM   10  C5  UNL     1      12.987  -7.611  25.545  1.00  0.00     0.272 C 
HETATM   11  C6  UNL     1      12.292  -9.921  25.028  1.00  0.00     0.272 C 
ENDBRANCH   2   8
BRANCH   1  12
HETATM   12  O1  UNL     1       8.906  -9.260  24.478  1.00  0.00    -0.384 OA
HETATM   13  C1  UNL     1       9.331 -10.242  23.532  1.00  0.00     0.202 C 
ENDBRANCH   1  12
BRANCH   6  14
HETATM   14  N2  UNL     1       7.098  -9.693  26.672  1.00  0.00    -0.308 N 
HETATM   15  C11 UNL     1       6.696 -10.728  25.828  1.00  0.00     0.049 A 
HETATM   16  C12 UNL     1       7.404 -11.669  25.052  1.00  0.00     0.030 A 
HETATM   17  C16 UNL     1       5.285 -10.724  25.807  1.00  0.00     0.004 A 
HETATM   18  C13 UNL     1       6.696 -12.608  24.293  1.00  0.00     0.002 A 
HETATM   19  C14 UNL     1       5.311 -12.620  24.283  1.00  0.00     0.001 A 
HETATM   20  C15 UNL     1       4.599 -11.684  25.030  1.00  0.00     0.014 A 
HETATM   21  C17 UNL     1       4.840  -9.642  26.612  1.00  0.00     0.015 A 
HETATM   22  C18 UNL     1       3.610  -9.059  26.960  1.00  0.00    -0.010 A 
HETATM   23  C28 UNL     1       5.973  -9.051  27.127  1.00  0.00     0.077 A 
HETATM   24  C19 UNL     1       3.533  -7.894  27.781  1.00  0.00     0.054 A 
HETATM   25  C30 UNL     1       2.222  -9.473  26.562  1.00  0.00     0.163 A 
HETATM   26  C20 UNL     1       4.637  -7.232  28.343  1.00  0.00     0.022 A 
HETATM   27  C29 UNL     1       2.111  -7.545  27.905  1.00  0.00     0.253 A 
HETATM   28  C21 UNL     1       4.911  -6.098  29.167  1.00  0.00     0.004 A 
HETATM   29  C27 UNL     1       5.866  -7.799  28.048  1.00  0.00     0.077 A 
HETATM   30  C22 UNL     1       4.115  -5.107  29.780  1.00  0.00     0.014 A 
HETATM   31  C26 UNL     1       6.300  -6.047  29.369  1.00  0.00     0.048 A 
HETATM   32  C23 UNL     1       4.704  -4.113  30.567  1.00  0.00     0.001 A 
HETATM   33  C24 UNL     1       6.079  -4.091  30.759  1.00  0.00     0.002 A 
HETATM   34  C25 UNL     1       6.899  -5.054  30.169  1.00  0.00     0.030 A 
HETATM   35  N3  UNL     1       6.856  -7.113  28.676  1.00  0.00    -0.316 N 
HETATM   36  O3  UNL     1       1.624  -6.615  28.516  1.00  0.00    -0.268 OA
HETATM   37  N4  UNL     1       1.398  -8.475  27.183  1.00  0.00    -0.353 N 
HETATM   38  H29 UNL     1       0.387  -8.438  27.147  1.00  0.00     0.163 HD
ENDBRANCH   6  14
TORSDOF 4
ENDMDL
