MODEL 1
REMARK minimizedAffinity -7.91159153
REMARK  3 active torsions:
REMARK  status: ('A' for Active; 'I' for Inactive)
REMARK    1  A    between atoms: C4_5  and  C5_6 
REMARK    2  A    between atoms: N2_9  and  C6_10 
REMARK    3  A    between atoms: C12_16  and  C13_17 
ROOT
HETATM    1  C5  UNL     1      17.277  38.018  14.924  1.00  0.00     0.038 C 
HETATM    2  N1  UNL     1      17.047  37.189  13.952  1.00  0.00    -0.301 N 
ATOM      3  H1  UNL     1      16.832  37.433  12.986  1.00  0.00     0.187 HD
HETATM    4  N2  UNL     1      17.144  35.927  14.467  1.00  0.00    -0.283 N 
HETATM    5  C12 UNL     1      17.329  35.913  15.920  1.00  0.00     0.147 C 
HETATM    6  C23 UNL     1      17.636  37.378  16.236  1.00  0.00     0.091 C 
ENDROOT
BRANCH   5   7
HETATM    7  C13 UNL     1      16.104  35.439  16.688  1.00  0.00    -0.032 A 
HETATM    8  C14 UNL     1      16.252  34.454  17.677  1.00  0.00     0.010 A 
HETATM    9  C15 UNL     1      15.151  34.016  18.416  1.00  0.00     0.013 A 
HETATM   10  C16 UNL     1      13.875  34.553  18.191  1.00  0.00    -0.026 A 
HETATM   11  C17 UNL     1      12.757  34.117  18.922  1.00  0.00     0.012 A 
HETATM   12  C21 UNL     1      13.710  35.550  17.205  1.00  0.00    -0.025 A 
HETATM   13  C18 UNL     1      11.494  34.659  18.683  1.00  0.00     0.001 A 
HETATM   14  C19 UNL     1      11.331  35.642  17.712  1.00  0.00     0.001 A 
HETATM   15  C20 UNL     1      12.433  36.085  16.976  1.00  0.00     0.012 A 
HETATM   16  C22 UNL     1      14.827  35.983  16.471  1.00  0.00     0.021 A 
ENDBRANCH   5   7
BRANCH   4  17
HETATM   17  C6  UNL     1      17.144  34.810  13.632  1.00  0.00     0.051 A 
HETATM   18  C7  UNL     1      16.103  34.600  12.711  1.00  0.00     0.031 A 
HETATM   19  C8  UNL     1      16.076  33.487  11.864  1.00  0.00     0.002 A 
HETATM   20  C9  UNL     1      17.097  32.547  11.920  1.00  0.00     0.000 A 
HETATM   21  C10 UNL     1      18.141  32.725  12.821  1.00  0.00     0.002 A 
HETATM   22  C11 UNL     1      18.162  33.843  13.664  1.00  0.00     0.031 A 
ENDBRANCH   4  17
BRANCH   1  23
HETATM   23  C4  UNL     1      17.225  39.490  14.758  1.00  0.00    -0.012 A 
HETATM   24  C3  UNL     1      16.704  40.078  13.598  1.00  0.00     0.016 A 
HETATM   25  C2  UNL     1      16.674  41.470  13.476  1.00  0.00     0.043 A 
HETATM   26  C1  UNL     1      17.157  42.264  14.510  1.00  0.00     0.116 A 
HETATM   27  F1  UNL     1      17.121  43.598  14.389  1.00  0.00    -0.206 F 
HETATM   28  C25 UNL     1      17.673  41.695  15.668  1.00  0.00     0.043 A 
HETATM   29  C24 UNL     1      17.707  40.305  15.793  1.00  0.00     0.016 A 
ENDBRANCH   1  23
TORSDOF 3
ENDMDL
MODEL 2
REMARK minimizedAffinity -7.8914113
REMARK  3 active torsions:
REMARK  status: ('A' for Active; 'I' for Inactive)
REMARK    1  A    between atoms: C4_5  and  C5_6 
REMARK    2  A    between atoms: N2_9  and  C6_10 
REMARK    3  A    between atoms: C12_16  and  C13_17 
ROOT
HETATM    1  C5  UNL     1      13.557  57.491   1.126  1.00  0.00     0.038 C 
HETATM    2  N1  UNL     1      13.661  56.390   1.806  1.00  0.00    -0.301 N 
ATOM      3  H1  UNL     1      13.232  55.493   1.577  1.00  0.00     0.187 HD
HETATM    4  N2  UNL     1      14.453  56.657   2.886  1.00  0.00    -0.283 N 
HETATM    5  C12 UNL     1      14.801  58.074   3.006  1.00  0.00     0.147 C 
HETATM    6  C23 UNL     1      14.354  58.647   1.660  1.00  0.00     0.091 C 
ENDROOT
BRANCH   5   7
HETATM    7  C13 UNL     1      14.098  58.782   4.155  1.00  0.00    -0.032 A 
HETATM    8  C14 UNL     1      14.236  58.281   5.458  1.00  0.00     0.010 A 
HETATM    9  C15 UNL     1      13.624  58.923   6.537  1.00  0.00     0.013 A 
HETATM   10  C16 UNL     1      12.861  60.083   6.344  1.00  0.00    -0.026 A 
HETATM   11  C17 UNL     1      12.233  60.736   7.418  1.00  0.00     0.012 A 
HETATM   12  C21 UNL     1      12.718  60.606   5.039  1.00  0.00    -0.025 A 
HETATM   13  C18 UNL     1      11.475  61.888   7.208  1.00  0.00     0.001 A 
HETATM   14  C19 UNL     1      11.334  62.402   5.923  1.00  0.00     0.001 A 
HETATM   15  C20 UNL     1      11.951  61.765   4.844  1.00  0.00     0.012 A 
HETATM   16  C22 UNL     1      13.342  59.951   3.964  1.00  0.00     0.021 A 
ENDBRANCH   5   7
BRANCH   4  17
HETATM   17  C6  UNL     1      14.917  55.629   3.707  1.00  0.00     0.051 A 
HETATM   18  C7  UNL     1      16.290  55.341   3.794  1.00  0.00     0.031 A 
HETATM   19  C8  UNL     1      16.782  54.314   4.605  1.00  0.00     0.002 A 
HETATM   20  C9  UNL     1      15.905  53.541   5.357  1.00  0.00     0.000 A 
HETATM   21  C10 UNL     1      14.541  53.800   5.293  1.00  0.00     0.002 A 
HETATM   22  C11 UNL     1      14.056  54.832   4.478  1.00  0.00     0.031 A 
ENDBRANCH   4  17
BRANCH   1  23
HETATM   23  C4  UNL     1      12.740  57.603  -0.106  1.00  0.00    -0.012 A 
HETATM   24  C3  UNL     1      12.705  58.788  -0.855  1.00  0.00     0.016 A 
HETATM   25  C2  UNL     1      11.921  58.858  -2.010  1.00  0.00     0.043 A 
HETATM   26  C1  UNL     1      11.184  57.750  -2.413  1.00  0.00     0.116 A 
HETATM   27  F1  UNL     1      10.438  57.822  -3.523  1.00  0.00    -0.206 F 
HETATM   28  C25 UNL     1      11.213  56.568  -1.683  1.00  0.00     0.043 A 
HETATM   29  C24 UNL     1      11.993  56.494  -0.527  1.00  0.00     0.016 A 
ENDBRANCH   1  23
TORSDOF 3
ENDMDL
MODEL 3
REMARK minimizedAffinity -7.87841606
REMARK  3 active torsions:
REMARK  status: ('A' for Active; 'I' for Inactive)
REMARK    1  A    between atoms: C4_5  and  C5_6 
REMARK    2  A    between atoms: N2_9  and  C6_10 
REMARK    3  A    between atoms: C12_16  and  C13_17 
ROOT
HETATM    1  C5  UNL     1      14.223  58.753   2.804  1.00  0.00     0.038 C 
HETATM    2  N1  UNL     1      14.240  57.462   2.945  1.00  0.00    -0.301 N 
ATOM      3  H1  UNL     1      13.853  56.778   2.296  1.00  0.00     0.187 HD
HETATM    4  N2  UNL     1      14.873  57.193   4.125  1.00  0.00    -0.283 N 
HETATM    5  C12 UNL     1      15.191  58.399   4.893  1.00  0.00     0.147 C 
HETATM    6  C23 UNL     1      14.931  59.520   3.886  1.00  0.00     0.091 C 
ENDROOT
BRANCH   5   7
HETATM    7  C13 UNL     1      14.331  58.577   6.135  1.00  0.00    -0.032 A 
HETATM    8  C14 UNL     1      14.750  58.011   7.349  1.00  0.00     0.010 A 
HETATM    9  C15 UNL     1      13.996  58.179   8.512  1.00  0.00     0.013 A 
HETATM   10  C16 UNL     1      12.805  58.919   8.495  1.00  0.00    -0.026 A 
HETATM   11  C17 UNL     1      12.032  59.090   9.656  1.00  0.00     0.012 A 
HETATM   12  C21 UNL     1      12.372  59.503   7.284  1.00  0.00    -0.025 A 
HETATM   13  C18 UNL     1      10.848  59.827   9.621  1.00  0.00     0.001 A 
HETATM   14  C19 UNL     1      10.421  60.402   8.428  1.00  0.00     0.001 A 
HETATM   15  C20 UNL     1      11.179  60.240   7.265  1.00  0.00     0.012 A 
HETATM   16  C22 UNL     1      13.143  59.328   6.122  1.00  0.00     0.021 A 
ENDBRANCH   5   7
BRANCH   4  17
HETATM   17  C6  UNL     1      15.226  55.889   4.468  1.00  0.00     0.051 A 
HETATM   18  C7  UNL     1      16.564  55.463   4.401  1.00  0.00     0.031 A 
HETATM   19  C8  UNL     1      16.946  54.160   4.735  1.00  0.00     0.002 A 
HETATM   20  C9  UNL     1      15.989  53.240   5.148  1.00  0.00     0.000 A 
HETATM   21  C10 UNL     1      14.657  53.629   5.224  1.00  0.00     0.002 A 
HETATM   22  C11 UNL     1      14.283  54.937   4.888  1.00  0.00     0.031 A 
ENDBRANCH   4  17
BRANCH   1  23
HETATM   23  C4  UNL     1      13.584  59.431   1.652  1.00  0.00    -0.012 A 
HETATM   24  C3  UNL     1      12.989  60.693   1.783  1.00  0.00     0.016 A 
HETATM   25  C2  UNL     1      12.393  61.300   0.674  1.00  0.00     0.043 A 
HETATM   26  C1  UNL     1      12.399  60.651  -0.556  1.00  0.00     0.116 A 
HETATM   27  F1  UNL     1      11.831  61.240  -1.616  1.00  0.00    -0.206 F 
HETATM   28  C25 UNL     1      12.990  59.402  -0.701  1.00  0.00     0.043 A 
HETATM   29  C24 UNL     1      13.584  58.790   0.404  1.00  0.00     0.016 A 
ENDBRANCH   1  23
TORSDOF 3
ENDMDL
MODEL 4
REMARK minimizedAffinity -7.78114843
REMARK  3 active torsions:
REMARK  status: ('A' for Active; 'I' for Inactive)
REMARK    1  A    between atoms: C4_5  and  C5_6 
REMARK    2  A    between atoms: N2_9  and  C6_10 
REMARK    3  A    between atoms: C12_16  and  C13_17 
ROOT
HETATM    1  C5  UNL     1      13.127  57.592   0.430  1.00  0.00     0.038 C 
HETATM    2  N1  UNL     1      13.239  56.601   1.262  1.00  0.00    -0.301 N 
ATOM      3  H1  UNL     1      12.795  55.687   1.178  1.00  0.00     0.187 HD
HETATM    4  N2  UNL     1      14.064  57.013   2.269  1.00  0.00    -0.283 N 
HETATM    5  C12 UNL     1      14.429  58.428   2.171  1.00  0.00     0.147 C 
HETATM    6  C23 UNL     1      13.950  58.803   0.767  1.00  0.00     0.091 C 
ENDROOT
BRANCH   5   7
HETATM    7  C13 UNL     1      13.766  59.306   3.221  1.00  0.00    -0.032 A 
HETATM    8  C14 UNL     1      13.197  60.529   2.835  1.00  0.00     0.010 A 
HETATM    9  C15 UNL     1      12.559  61.346   3.771  1.00  0.00     0.013 A 
HETATM   10  C16 UNL     1      12.468  60.961   5.116  1.00  0.00    -0.026 A 
HETATM   11  C17 UNL     1      11.835  61.776   6.070  1.00  0.00     0.012 A 
HETATM   12  C21 UNL     1      13.028  59.729   5.521  1.00  0.00    -0.025 A 
HETATM   13  C18 UNL     1      11.756  61.379   7.406  1.00  0.00     0.001 A 
HETATM   14  C19 UNL     1      12.307  60.165   7.804  1.00  0.00     0.001 A 
HETATM   15  C20 UNL     1      12.940  59.345   6.867  1.00  0.00     0.012 A 
HETATM   16  C22 UNL     1      13.664  58.917   4.568  1.00  0.00     0.021 A 
ENDBRANCH   5   7
BRANCH   4  17
HETATM   17  C6  UNL     1      14.541  56.110   3.219  1.00  0.00     0.051 A 
HETATM   18  C7  UNL     1      15.921  55.924   3.407  1.00  0.00     0.031 A 
HETATM   19  C8  UNL     1      16.427  55.023   4.349  1.00  0.00     0.002 A 
HETATM   20  C9  UNL     1      15.556  54.278   5.135  1.00  0.00     0.000 A 
HETATM   21  C10 UNL     1      14.185  54.438   4.974  1.00  0.00     0.002 A 
HETATM   22  C11 UNL     1      13.686  55.343   4.028  1.00  0.00     0.031 A 
ENDBRANCH   4  17
BRANCH   1  23
HETATM   23  C4  UNL     1      12.277  57.534  -0.783  1.00  0.00    -0.012 A 
HETATM   24  C3  UNL     1      11.503  56.404  -1.082  1.00  0.00     0.016 A 
HETATM   25  C2  UNL     1      10.716  56.385  -2.237  1.00  0.00     0.043 A 
HETATM   26  C1  UNL     1      10.701  57.490  -3.081  1.00  0.00     0.116 A 
HETATM   27  F1  UNL     1       9.941  57.468  -4.184  1.00  0.00    -0.206 F 
HETATM   28  C25 UNL     1      11.459  58.619  -2.795  1.00  0.00     0.043 A 
HETATM   29  C24 UNL     1      12.249  58.642  -1.643  1.00  0.00     0.016 A 
ENDBRANCH   1  23
TORSDOF 3
ENDMDL
MODEL 5
REMARK minimizedAffinity -7.74768734
REMARK  3 active torsions:
REMARK  status: ('A' for Active; 'I' for Inactive)
REMARK    1  A    between atoms: C4_5  and  C5_6 
REMARK    2  A    between atoms: N2_9  and  C6_10 
REMARK    3  A    between atoms: C12_16  and  C13_17 
ROOT
HETATM    1  C5  UNL     1      14.869  57.152   4.414  1.00  0.00     0.038 C 
HETATM    2  N1  UNL     1      13.879  57.726   5.029  1.00  0.00    -0.301 N 
ATOM      3  H1  UNL     1      13.287  57.307   5.745  1.00  0.00     0.187 HD
HETATM    4  N2  UNL     1      13.780  58.995   4.534  1.00  0.00    -0.283 N 
HETATM    5  C12 UNL     1      14.689  59.249   3.415  1.00  0.00     0.147 C 
HETATM    6  C23 UNL     1      15.615  58.031   3.449  1.00  0.00     0.091 C 
ENDROOT
BRANCH   5   7
HETATM    7  C13 UNL     1      13.989  59.358   2.069  1.00  0.00    -0.032 A 
HETATM    8  C14 UNL     1      13.859  60.615   1.461  1.00  0.00     0.010 A 
HETATM    9  C15 UNL     1      13.243  60.745   0.215  1.00  0.00     0.013 A 
HETATM   10  C16 UNL     1      12.744  59.622  -0.460  1.00  0.00    -0.026 A 
HETATM   11  C17 UNL     1      12.116  59.737  -1.711  1.00  0.00     0.012 A 
HETATM   12  C21 UNL     1      12.873  58.347   0.134  1.00  0.00    -0.025 A 
HETATM   13  C18 UNL     1      11.621  58.610  -2.368  1.00  0.00     0.001 A 
HETATM   14  C19 UNL     1      11.748  57.353  -1.783  1.00  0.00     0.001 A 
HETATM   15  C20 UNL     1      12.370  57.223  -0.538  1.00  0.00     0.012 A 
HETATM   16  C22 UNL     1      13.497  58.231   1.387  1.00  0.00     0.021 A 
ENDBRANCH   5   7
BRANCH   4  17
HETATM   17  C6  UNL     1      12.937  59.932   5.131  1.00  0.00     0.051 A 
HETATM   18  C7  UNL     1      12.663  61.159   4.502  1.00  0.00     0.031 A 
HETATM   19  C8  UNL     1      11.826  62.119   5.080  1.00  0.00     0.002 A 
HETATM   20  C9  UNL     1      11.236  61.873   6.314  1.00  0.00     0.000 A 
HETATM   21  C10 UNL     1      11.487  60.670   6.963  1.00  0.00     0.002 A 
HETATM   22  C11 UNL     1      12.326  59.714   6.377  1.00  0.00     0.031 A 
ENDBRANCH   4  17
BRANCH   1  23
HETATM   23  C4  UNL     1      15.265  55.745   4.660  1.00  0.00    -0.012 A 
HETATM   24  C3  UNL     1      14.322  54.771   5.018  1.00  0.00     0.016 A 
HETATM   25  C2  UNL     1      14.733  53.455   5.244  1.00  0.00     0.043 A 
HETATM   26  C1  UNL     1      16.075  53.117   5.108  1.00  0.00     0.116 A 
HETATM   27  F1  UNL     1      16.461  51.852   5.322  1.00  0.00    -0.206 F 
HETATM   28  C25 UNL     1      17.019  54.071   4.749  1.00  0.00     0.043 A 
HETATM   29  C24 UNL     1      16.614  55.387   4.524  1.00  0.00     0.016 A 
ENDBRANCH   1  23
TORSDOF 3
ENDMDL
MODEL 6
REMARK minimizedAffinity -7.74490499
REMARK  3 active torsions:
REMARK  status: ('A' for Active; 'I' for Inactive)
REMARK    1  A    between atoms: C4_5  and  C5_6 
REMARK    2  A    between atoms: N2_9  and  C6_10 
REMARK    3  A    between atoms: C12_16  and  C13_17 
ROOT
HETATM    1  C5  UNL     1      13.237  58.939   6.095  1.00  0.00     0.038 C 
HETATM    2  N1  UNL     1      12.730  58.748   4.915  1.00  0.00    -0.301 N 
ATOM      3  H1  UNL     1      11.755  58.875   4.647  1.00  0.00     0.187 HD
HETATM    4  N2  UNL     1      13.749  58.347   4.099  1.00  0.00    -0.283 N 
HETATM    5  C12 UNL     1      15.008  58.130   4.815  1.00  0.00     0.147 C 
HETATM    6  C23 UNL     1      14.725  58.743   6.188  1.00  0.00     0.091 C 
ENDROOT
BRANCH   5   7
HETATM    7  C13 UNL     1      15.392  56.664   4.947  1.00  0.00    -0.032 A 
HETATM    8  C14 UNL     1      14.391  55.709   5.182  1.00  0.00     0.010 A 
HETATM    9  C15 UNL     1      14.708  54.353   5.283  1.00  0.00     0.013 A 
HETATM   10  C16 UNL     1      16.033  53.914   5.148  1.00  0.00    -0.026 A 
HETATM   11  C17 UNL     1      16.369  52.553   5.254  1.00  0.00     0.012 A 
HETATM   12  C21 UNL     1      17.053  54.860   4.903  1.00  0.00    -0.025 A 
HETATM   13  C18 UNL     1      17.692  52.133   5.120  1.00  0.00     0.001 A 
HETATM   14  C19 UNL     1      18.697  53.066   4.879  1.00  0.00     0.001 A 
HETATM   15  C20 UNL     1      18.379  54.422   4.772  1.00  0.00     0.012 A 
HETATM   16  C22 UNL     1      16.718  56.220   4.801  1.00  0.00     0.021 A 
ENDBRANCH   5   7
BRANCH   4  17
HETATM   17  C6  UNL     1      13.568  58.251   2.720  1.00  0.00     0.051 A 
HETATM   18  C7  UNL     1      13.562  57.000   2.078  1.00  0.00     0.031 A 
HETATM   19  C8  UNL     1      13.386  56.875   0.696  1.00  0.00     0.002 A 
HETATM   20  C9  UNL     1      13.210  58.010  -0.087  1.00  0.00     0.000 A 
HETATM   21  C10 UNL     1      13.211  59.263   0.517  1.00  0.00     0.002 A 
HETATM   22  C11 UNL     1      13.387  59.379   1.901  1.00  0.00     0.031 A 
ENDBRANCH   4  17
BRANCH   1  23
HETATM   23  C4  UNL     1      12.426  59.350   7.265  1.00  0.00    -0.012 A 
HETATM   24  C3  UNL     1      12.670  58.832   8.544  1.00  0.00     0.016 A 
HETATM   25  C2  UNL     1      11.881  59.241   9.623  1.00  0.00     0.043 A 
HETATM   26  C1  UNL     1      10.862  60.165   9.422  1.00  0.00     0.116 A 
HETATM   27  F1  UNL     1      10.113  60.557  10.461  1.00  0.00    -0.206 F 
HETATM   28  C25 UNL     1      10.611  60.691   8.161  1.00  0.00     0.043 A 
HETATM   29  C24 UNL     1      11.395  60.283   7.079  1.00  0.00     0.016 A 
ENDBRANCH   1  23
TORSDOF 3
ENDMDL
MODEL 7
REMARK minimizedAffinity -7.6793623
REMARK  3 active torsions:
REMARK  status: ('A' for Active; 'I' for Inactive)
REMARK    1  A    between atoms: C4_5  and  C5_6 
REMARK    2  A    between atoms: N2_9  and  C6_10 
REMARK    3  A    between atoms: C12_16  and  C13_17 
ROOT
HETATM    1  C5  UNL     1      18.230  50.431   6.329  1.00  0.00     0.038 C 
HETATM    2  N1  UNL     1      18.394  51.173   7.383  1.00  0.00    -0.301 N 
ATOM      3  H1  UNL     1      18.378  50.859   8.353  1.00  0.00     0.187 HD
HETATM    4  N2  UNL     1      18.591  52.452   6.948  1.00  0.00    -0.283 N 
HETATM    5  C12 UNL     1      18.420  52.600   5.501  1.00  0.00     0.147 C 
HETATM    6  C23 UNL     1      18.372  51.150   5.017  1.00  0.00     0.091 C 
ENDROOT
BRANCH   5   7
HETATM    7  C13 UNL     1      17.152  53.344   5.107  1.00  0.00    -0.032 A 
HETATM    8  C14 UNL     1      15.905  52.820   5.479  1.00  0.00     0.010 A 
HETATM    9  C15 UNL     1      14.724  53.492   5.154  1.00  0.00     0.013 A 
HETATM   10  C16 UNL     1      14.758  54.706   4.453  1.00  0.00    -0.026 A 
HETATM   11  C17 UNL     1      13.579  55.389   4.113  1.00  0.00     0.012 A 
HETATM   12  C21 UNL     1      16.006  55.251   4.078  1.00  0.00    -0.025 A 
HETATM   13  C18 UNL     1      13.630  56.595   3.413  1.00  0.00     0.001 A 
HETATM   14  C19 UNL     1      14.859  57.132   3.043  1.00  0.00     0.001 A 
HETATM   15  C20 UNL     1      16.040  56.464   3.373  1.00  0.00     0.012 A 
HETATM   16  C22 UNL     1      17.185  54.566   4.414  1.00  0.00     0.021 A 
ENDBRANCH   5   7
BRANCH   4  17
HETATM   17  C6  UNL     1      18.992  53.455   7.830  1.00  0.00     0.051 A 
HETATM   18  C7  UNL     1      19.411  53.142   9.135  1.00  0.00     0.031 A 
HETATM   19  C8  UNL     1      19.815  54.127  10.041  1.00  0.00     0.002 A 
HETATM   20  C9  UNL     1      19.811  55.464   9.661  1.00  0.00     0.000 A 
HETATM   21  C10 UNL     1      19.402  55.808   8.378  1.00  0.00     0.002 A 
HETATM   22  C11 UNL     1      18.999  54.814   7.476  1.00  0.00     0.031 A 
ENDBRANCH   4  17
BRANCH   1  23
HETATM   23  C4  UNL     1      17.955  48.977   6.401  1.00  0.00    -0.012 A 
HETATM   24  C3  UNL     1      16.762  48.432   5.906  1.00  0.00     0.016 A 
HETATM   25  C2  UNL     1      16.536  47.056   5.994  1.00  0.00     0.043 A 
HETATM   26  C1  UNL     1      17.499  46.233   6.568  1.00  0.00     0.116 A 
HETATM   27  F1  UNL     1      17.279  44.914   6.645  1.00  0.00    -0.206 F 
HETATM   28  C25 UNL     1      18.688  46.758   7.059  1.00  0.00     0.043 A 
HETATM   29  C24 UNL     1      18.917  48.133   6.975  1.00  0.00     0.016 A 
ENDBRANCH   1  23
TORSDOF 3
ENDMDL
MODEL 8
REMARK minimizedAffinity -7.67635536
REMARK  3 active torsions:
REMARK  status: ('A' for Active; 'I' for Inactive)
REMARK    1  A    between atoms: C4_5  and  C5_6 
REMARK    2  A    between atoms: N2_9  and  C6_10 
REMARK    3  A    between atoms: C12_16  and  C13_17 
ROOT
HETATM    1  C5  UNL     1      11.392  35.011  19.995  1.00  0.00     0.038 C 
HETATM    2  N1  UNL     1      12.093  35.816  20.735  1.00  0.00    -0.301 N 
ATOM      3  H1  UNL     1      11.742  36.618  21.257  1.00  0.00     0.187 HD
HETATM    4  N2  UNL     1      13.388  35.386  20.683  1.00  0.00    -0.283 N 
HETATM    5  C12 UNL     1      13.591  34.287  19.736  1.00  0.00     0.147 C 
HETATM    6  C23 UNL     1      12.160  33.867  19.395  1.00  0.00     0.091 C 
ENDROOT
BRANCH   5   7
HETATM    7  C13 UNL     1      14.350  34.692  18.482  1.00  0.00    -0.032 A 
HETATM    8  C14 UNL     1      13.734  35.543  17.551  1.00  0.00     0.010 A 
HETATM    9  C15 UNL     1      14.413  35.953  16.402  1.00  0.00     0.013 A 
HETATM   10  C16 UNL     1      15.726  35.529  16.153  1.00  0.00    -0.026 A 
HETATM   11  C17 UNL     1      16.419  35.928  14.998  1.00  0.00     0.012 A 
HETATM   12  C21 UNL     1      16.364  34.679  17.083  1.00  0.00    -0.025 A 
HETATM   13  C18 UNL     1      17.724  35.494  14.764  1.00  0.00     0.001 A 
HETATM   14  C19 UNL     1      18.353  34.656  15.680  1.00  0.00     0.001 A 
HETATM   15  C20 UNL     1      17.676  34.250  16.833  1.00  0.00     0.012 A 
HETATM   16  C22 UNL     1      15.670  34.276  18.236  1.00  0.00     0.021 A 
ENDBRANCH   5   7
BRANCH   4  17
HETATM   17  C6  UNL     1      14.356  35.923  21.531  1.00  0.00     0.051 A 
HETATM   18  C7  UNL     1      14.174  37.184  22.125  1.00  0.00     0.031 A 
HETATM   19  C8  UNL     1      15.130  37.748  22.976  1.00  0.00     0.002 A 
HETATM   20  C9  UNL     1      16.304  37.059  23.256  1.00  0.00     0.000 A 
HETATM   21  C10 UNL     1      16.515  35.810  22.683  1.00  0.00     0.002 A 
HETATM   22  C11 UNL     1      15.552  35.252  21.833  1.00  0.00     0.031 A 
ENDBRANCH   4  17
BRANCH   1  23
HETATM   23  C4  UNL     1       9.936  35.179  19.775  1.00  0.00    -0.012 A 
HETATM   24  C3  UNL     1       8.994  34.512  20.570  1.00  0.00     0.016 A 
HETATM   25  C2  UNL     1       7.629  34.693  20.332  1.00  0.00     0.043 A 
HETATM   26  C1  UNL     1       7.213  35.538  19.309  1.00  0.00     0.116 A 
HETATM   27  F1  UNL     1       5.903  35.711  19.088  1.00  0.00    -0.206 F 
HETATM   28  C25 UNL     1       8.135  36.210  18.516  1.00  0.00     0.043 A 
HETATM   29  C24 UNL     1       9.500  36.031  18.749  1.00  0.00     0.016 A 
ENDBRANCH   1  23
TORSDOF 3
ENDMDL
MODEL 9
REMARK minimizedAffinity -7.66287041
REMARK  3 active torsions:
REMARK  status: ('A' for Active; 'I' for Inactive)
REMARK    1  A    between atoms: C4_5  and  C5_6 
REMARK    2  A    between atoms: N2_9  and  C6_10 
REMARK    3  A    between atoms: C12_16  and  C13_17 
ROOT
HETATM    1  C5  UNL     1      14.108  36.869  17.624  1.00  0.00     0.038 C 
HETATM    2  N1  UNL     1      14.145  37.855  16.779  1.00  0.00    -0.301 N 
ATOM      3  H1  UNL     1      13.343  38.365  16.409  1.00  0.00     0.187 HD
HETATM    4  N2  UNL     1      15.458  38.080  16.480  1.00  0.00    -0.283 N 
HETATM    5  C12 UNL     1      16.360  37.089  17.070  1.00  0.00     0.147 C 
HETATM    6  C23 UNL     1      15.451  36.348  18.053  1.00  0.00     0.091 C 
ENDROOT
BRANCH   5   7
HETATM    7  C13 UNL     1      16.959  36.126  16.056  1.00  0.00    -0.032 A 
HETATM    8  C14 UNL     1      18.198  35.527  16.326  1.00  0.00     0.010 A 
HETATM    9  C15 UNL     1      18.763  34.619  15.427  1.00  0.00     0.013 A 
HETATM   10  C16 UNL     1      18.103  34.283  14.236  1.00  0.00    -0.026 A 
HETATM   11  C17 UNL     1      18.661  33.378  13.319  1.00  0.00     0.012 A 
HETATM   12  C21 UNL     1      16.850  34.872  13.952  1.00  0.00    -0.025 A 
HETATM   13  C18 UNL     1      17.993  33.057  12.137  1.00  0.00     0.001 A 
HETATM   14  C19 UNL     1      16.759  33.636  11.857  1.00  0.00     0.001 A 
HETATM   15  C20 UNL     1      16.191  34.539  12.759  1.00  0.00     0.012 A 
HETATM   16  C22 UNL     1      16.294  35.780  14.867  1.00  0.00     0.021 A 
ENDBRANCH   5   7
BRANCH   4  17
HETATM   17  C6  UNL     1      15.844  39.204  15.750  1.00  0.00     0.051 A 
HETATM   18  C7  UNL     1      16.051  39.127  14.362  1.00  0.00     0.031 A 
HETATM   19  C8  UNL     1      16.442  40.237  13.607  1.00  0.00     0.002 A 
HETATM   20  C9  UNL     1      16.639  41.464  14.227  1.00  0.00     0.000 A 
HETATM   21  C10 UNL     1      16.444  41.575  15.599  1.00  0.00     0.002 A 
HETATM   22  C11 UNL     1      16.051  40.458  16.348  1.00  0.00     0.031 A 
ENDBRANCH   4  17
BRANCH   1  23
HETATM   23  C4  UNL     1      12.843  36.311  18.157  1.00  0.00    -0.012 A 
HETATM   24  C3  UNL     1      11.826  35.857  17.306  1.00  0.00     0.016 A 
HETATM   25  C2  UNL     1      10.646  35.339  17.846  1.00  0.00     0.043 A 
HETATM   26  C1  UNL     1      10.488  35.272  19.226  1.00  0.00     0.116 A 
HETATM   27  F1  UNL     1       9.357  34.770  19.737  1.00  0.00    -0.206 F 
HETATM   28  C25 UNL     1      11.490  35.714  20.082  1.00  0.00     0.043 A 
HETATM   29  C24 UNL     1      12.670  36.234  19.547  1.00  0.00     0.016 A 
ENDBRANCH   1  23
TORSDOF 3
ENDMDL
