MODEL 1
REMARK minimizedAffinity -9.94669342
REMARK CNNscore 0.832592726
REMARK CNNaffinity 7.83453703
REMARK  5 active torsions:
REMARK  status: ('A' for Active; 'I' for Inactive)
REMARK    1  A    between atoms: O1_2  and  C2_3 
REMARK       I    between atoms: C2_3  and  N1_5 
REMARK    2  A    between atoms: N1_5  and  C4_7 
REMARK    3  A    between atoms: C6_9  and  N3_33 
REMARK    4  A    between atoms: C7_11  and  N2_16 
REMARK    5  A    between atoms: C9_13  and  O4_14 
ROOT
HETATM    1  C4  UNL     1      10.909  -8.298  27.153  1.00  0.00     0.126 C 
HETATM    2  C5  UNL     1      10.378  -7.519  28.361  1.00  0.00     0.082 C 
HETATM    3  C6  UNL     1       9.285  -8.301  29.101  1.00  0.00     0.233 C 
HETATM    4  O3  UNL     1       9.080  -9.628  28.625  1.00  0.00    -0.333 OA
HETATM    5  C7  UNL     1       8.912  -9.824  27.197  1.00  0.00     0.168 C 
HETATM    6  C8  UNL     1       9.543 -11.228  27.045  1.00  0.00     0.074 C 
HETATM    7  C9  UNL     1       9.703  -8.794  26.324  1.00  0.00     0.199 C 
ENDROOT
BRANCH   1   8
HETATM    8  N1  UNL     1      11.905  -7.580  26.326  1.00  0.00    -0.325 N 
HETATM    9  C2  UNL     1      13.153  -7.358  26.898  1.00  0.00     0.362 C 
HETATM   10  O2  UNL     1      13.407  -7.629  28.068  1.00  0.00    -0.238 OA
HETATM   11  C3  UNL     1      11.656  -7.371  24.905  1.00  0.00     0.155 C 
BRANCH   9  12
HETATM   12  O1  UNL     1      14.056  -6.829  26.031  1.00  0.00    -0.309 OA
HETATM   13  C1  UNL     1      15.406  -7.236  26.265  1.00  0.00     0.215 C 
ENDBRANCH   9  12
ENDBRANCH   1   8
BRANCH   7  14
HETATM   14  O4  UNL     1       8.917  -7.622  26.010  1.00  0.00    -0.384 OA
HETATM   15  C10 UNL     1       7.887  -7.877  25.063  1.00  0.00     0.202 C 
ENDBRANCH   7  14
BRANCH   3  16
HETATM   16  N3  UNL     1       8.011  -7.607  29.259  1.00  0.00    -0.316 N 
HETATM   17  C26 UNL     1       6.819  -8.007  28.676  1.00  0.00     0.048 A 
HETATM   18  C21 UNL     1       5.865  -7.012  28.949  1.00  0.00     0.004 A 
HETATM   19  C25 UNL     1       6.502  -9.155  27.924  1.00  0.00     0.030 A 
HETATM   20  C20 UNL     1       6.513  -5.994  29.715  1.00  0.00     0.022 A 
HETATM   21  C22 UNL     1       4.556  -7.193  28.456  1.00  0.00     0.014 A 
HETATM   22  C19 UNL     1       6.213  -4.756  30.304  1.00  0.00     0.054 A 
HETATM   23  C27 UNL     1       7.818  -6.421  29.899  1.00  0.00     0.077 A 
HETATM   24  C18 UNL     1       7.131  -3.968  31.066  1.00  0.00    -0.010 A 
HETATM   25  C29 UNL     1       4.936  -4.026  30.280  1.00  0.00     0.253 A 
HETATM   26  C17 UNL     1       8.450  -4.387  31.305  1.00  0.00     0.015 A 
HETATM   27  C30 UNL     1       6.436  -2.725  31.540  1.00  0.00     0.163 A 
HETATM   28  C16 UNL     1       9.568  -3.923  32.049  1.00  0.00     0.004 A 
HETATM   29  C28 UNL     1       8.830  -5.582  30.736  1.00  0.00     0.077 A 
HETATM   30  C11 UNL     1      10.590  -4.887  31.936  1.00  0.00     0.049 A 
HETATM   31  C15 UNL     1       9.781  -2.784  32.858  1.00  0.00     0.014 A 
HETATM   32  N2  UNL     1      10.134  -5.867  31.055  1.00  0.00    -0.308 N 
HETATM   33  C12 UNL     1      11.784  -4.741  32.668  1.00  0.00     0.030 A 
HETATM   34  C13 UNL     1      11.964  -3.605  33.464  1.00  0.00     0.002 A 
HETATM   35  C14 UNL     1      10.981  -2.632  33.552  1.00  0.00     0.001 A 
HETATM   36  N4  UNL     1       5.112  -2.868  31.005  1.00  0.00    -0.353 N 
HETATM   37  H26 UNL     1       4.358  -2.204  31.108  1.00  0.00     0.163 HD
HETATM   38  O5  UNL     1       3.900  -4.349  29.735  1.00  0.00    -0.268 OA
HETATM   39  C23 UNL     1       4.233  -8.335  27.716  1.00  0.00     0.001 A 
HETATM   40  C24 UNL     1       5.197  -9.300  27.452  1.00  0.00     0.002 A 
ENDBRANCH   3  16
TORSDOF 5
ENDMDL
MODEL 2
REMARK minimizedAffinity -8.02852249
REMARK CNNscore 0.730449736
REMARK CNNaffinity 6.25733805
REMARK  5 active torsions:
REMARK  status: ('A' for Active; 'I' for Inactive)
REMARK    1  A    between atoms: O1_2  and  C2_3 
REMARK       I    between atoms: C2_3  and  N1_5 
REMARK    2  A    between atoms: N1_5  and  C4_7 
REMARK    3  A    between atoms: C6_9  and  N3_33 
REMARK    4  A    between atoms: C7_11  and  N2_16 
REMARK    5  A    between atoms: C9_13  and  O4_14 
ROOT
HETATM    1  C4  UNL     1       1.788   8.821  34.295  1.00  0.00     0.126 C 
HETATM    2  C5  UNL     1       1.879   8.608  35.810  1.00  0.00     0.082 C 
HETATM    3  C6  UNL     1       2.365   9.873  36.529  1.00  0.00     0.233 C 
HETATM    4  O3  UNL     1       2.495  11.019  35.691  1.00  0.00    -0.333 OA
HETATM    5  C7  UNL     1       3.228  10.876  34.447  1.00  0.00     0.168 C 
HETATM    6  C8  UNL     1       2.467  11.899  33.571  1.00  0.00     0.074 C 
HETATM    7  C9  UNL     1       3.113   9.450  33.810  1.00  0.00     0.199 C 
ENDROOT
BRANCH   1   8
HETATM    8  N1  UNL     1       1.412   7.622  33.510  1.00  0.00    -0.325 N 
HETATM    9  C2  UNL     1       1.023   6.498  34.228  1.00  0.00     0.362 C 
HETATM   10  O2  UNL     1       1.090   6.433  35.453  1.00  0.00    -0.238 OA
HETATM   11  C3  UNL     1       1.209   7.730  32.071  1.00  0.00     0.155 C 
BRANCH   9  12
HETATM   12  O1  UNL     1       0.553   5.493  33.444  1.00  0.00    -0.309 OA
HETATM   13  C1  UNL     1      -0.649   4.885  33.920  1.00  0.00     0.215 C 
ENDBRANCH   9  12
ENDBRANCH   1   8
BRANCH   7  14
HETATM   14  O4  UNL     1       4.168   8.565  34.250  1.00  0.00    -0.384 OA
HETATM   15  C10 UNL     1       5.462   8.991  33.843  1.00  0.00     0.202 C 
ENDBRANCH   7  14
BRANCH   3  16
HETATM   16  N3  UNL     1       3.550   9.706  37.364  1.00  0.00    -0.316 N 
HETATM   17  C26 UNL     1       4.707  10.463  37.248  1.00  0.00     0.048 A 
HETATM   18  C21 UNL     1       5.656   9.910  38.125  1.00  0.00     0.004 A 
HETATM   19  C25 UNL     1       5.000  11.577  36.440  1.00  0.00     0.030 A 
HETATM   20  C20 UNL     1       5.042   8.795  38.777  1.00  0.00     0.022 A 
HETATM   21  C22 UNL     1       6.929  10.512  38.190  1.00  0.00     0.014 A 
HETATM   22  C19 UNL     1       5.365   7.807  39.719  1.00  0.00     0.054 A 
HETATM   23  C27 UNL     1       3.746   8.733  38.294  1.00  0.00     0.077 A 
HETATM   24  C18 UNL     1       4.463   6.807  40.200  1.00  0.00    -0.010 A 
HETATM   25  C29 UNL     1       6.649   7.593  40.405  1.00  0.00     0.253 A 
HETATM   26  C17 UNL     1       3.131   6.737  39.761  1.00  0.00     0.015 A 
HETATM   27  C30 UNL     1       5.172   5.948  41.206  1.00  0.00     0.163 A 
HETATM   28  C16 UNL     1       1.978   5.962  40.063  1.00  0.00     0.004 A 
HETATM   29  C28 UNL     1       2.744   7.658  38.813  1.00  0.00     0.077 A 
HETATM   30  C11 UNL     1       0.906   6.475  39.307  1.00  0.00     0.049 A 
HETATM   31  C15 UNL     1       1.741   4.898  40.962  1.00  0.00     0.014 A 
HETATM   32  N2  UNL     1       1.424   7.474  38.483  1.00  0.00    -0.308 N 
HETATM   33  C12 UNL     1      -0.395   5.967  39.490  1.00  0.00     0.030 A 
HETATM   34  C13 UNL     1      -0.600   4.917  40.391  1.00  0.00     0.002 A 
HETATM   35  C14 UNL     1       0.456   4.380  41.111  1.00  0.00     0.001 A 
HETATM   36  N4  UNL     1       6.489   6.517  41.249  1.00  0.00    -0.353 N 
HETATM   37  H26 UNL     1       7.258   6.185  41.814  1.00  0.00     0.163 HD
HETATM   38  O5  UNL     1       7.680   8.223  40.277  1.00  0.00    -0.268 OA
HETATM   39  C23 UNL     1       7.225  11.625  37.396  1.00  0.00     0.001 A 
HETATM   40  C24 UNL     1       6.271  12.147  36.532  1.00  0.00     0.002 A 
ENDBRANCH   3  16
TORSDOF 5
ENDMDL
MODEL 3
REMARK minimizedAffinity -7.00961161
REMARK CNNscore 0.652981758
REMARK CNNaffinity 6.64514923
REMARK  5 active torsions:
REMARK  status: ('A' for Active; 'I' for Inactive)
REMARK    1  A    between atoms: O1_2  and  C2_3 
REMARK       I    between atoms: C2_3  and  N1_5 
REMARK    2  A    between atoms: N1_5  and  C4_7 
REMARK    3  A    between atoms: C6_9  and  N3_33 
REMARK    4  A    between atoms: C7_11  and  N2_16 
REMARK    5  A    between atoms: C9_13  and  O4_14 
ROOT
HETATM    1  C4  UNL     1       7.424   8.957  42.692  1.00  0.00     0.126 C 
HETATM    2  C5  UNL     1       6.681   7.623  42.808  1.00  0.00     0.082 C 
HETATM    3  C6  UNL     1       6.242   7.099  41.435  1.00  0.00     0.233 C 
HETATM    4  O3  UNL     1       6.724   7.858  40.329  1.00  0.00    -0.333 OA
HETATM    5  C7  UNL     1       6.549   9.298  40.360  1.00  0.00     0.168 C 
HETATM    6  C8  UNL     1       7.808   9.737  39.576  1.00  0.00     0.074 C 
HETATM    7  C9  UNL     1       6.589   9.906  41.803  1.00  0.00     0.199 C 
ENDROOT
BRANCH   1   8
HETATM    8  N1  UNL     1       7.807   9.582  43.979  1.00  0.00    -0.325 N 
HETATM    9  C2  UNL     1       8.564   8.809  44.852  1.00  0.00     0.362 C 
HETATM   10  O2  UNL     1       8.818   7.626  44.644  1.00  0.00    -0.238 OA
HETATM   11  C3  UNL     1       7.621  11.014  44.176  1.00  0.00     0.155 C 
BRANCH   9  12
HETATM   12  O1  UNL     1       9.000   9.495  45.940  1.00  0.00    -0.309 OA
HETATM   13  C1  UNL     1       8.389   9.102  47.170  1.00  0.00     0.215 C 
ENDBRANCH   9  12
ENDBRANCH   1   8
BRANCH   7  14
HETATM   14  O4  UNL     1       5.277   9.976  42.406  1.00  0.00    -0.384 OA
HETATM   15  C10 UNL     1       4.283  10.482  41.524  1.00  0.00     0.202 C 
ENDBRANCH   7  14
BRANCH   3  16
HETATM   16  N3  UNL     1       4.816   6.827  41.291  1.00  0.00    -0.316 N 
HETATM   17  C26 UNL     1       4.077   7.082  40.146  1.00  0.00     0.048 A 
HETATM   18  C21 UNL     1       2.731   6.816  40.450  1.00  0.00     0.004 A 
HETATM   19  C25 UNL     1       4.478   7.534  38.874  1.00  0.00     0.030 A 
HETATM   20  C20 UNL     1       2.673   6.392  41.813  1.00  0.00     0.022 A 
HETATM   21  C22 UNL     1       1.771   7.003  39.432  1.00  0.00     0.014 A 
HETATM   22  C19 UNL     1       1.718   5.993  42.761  1.00  0.00     0.054 A 
HETATM   23  C27 UNL     1       3.979   6.390  42.272  1.00  0.00     0.077 A 
HETATM   24  C18 UNL     1       2.013   5.583  44.098  1.00  0.00    -0.010 A 
HETATM   25  C29 UNL     1       0.259   5.902  42.595  1.00  0.00     0.253 A 
HETATM   26  C17 UNL     1       3.329   5.533  44.586  1.00  0.00     0.015 A 
HETATM   27  C30 UNL     1       0.735   5.220  44.795  1.00  0.00     0.163 A 
HETATM   28  C16 UNL     1       3.978   5.120  45.781  1.00  0.00     0.004 A 
HETATM   29  C28 UNL     1       4.324   5.936  43.722  1.00  0.00     0.077 A 
HETATM   30  C11 UNL     1       5.367   5.250  45.583  1.00  0.00     0.049 A 
HETATM   31  C15 UNL     1       3.503   4.591  47.002  1.00  0.00     0.014 A 
HETATM   32  N2  UNL     1       5.551   5.830  44.328  1.00  0.00    -0.308 N 
HETATM   33  C12 UNL     1       6.268   4.804  46.570  1.00  0.00     0.030 A 
HETATM   34  C13 UNL     1       5.767   4.280  47.767  1.00  0.00     0.002 A 
HETATM   35  C14 UNL     1       4.402   4.184  47.987  1.00  0.00     0.001 A 
HETATM   36  N4  UNL     1      -0.262   5.451  43.788  1.00  0.00    -0.353 N 
HETATM   37  H26 UNL     1      -1.258   5.327  43.902  1.00  0.00     0.163 HD
HETATM   38  O5  UNL     1      -0.400   6.166  41.610  1.00  0.00    -0.268 OA
HETATM   39  C23 UNL     1       2.164   7.444  38.164  1.00  0.00     0.001 A 
HETATM   40  C24 UNL     1       3.500   7.708  37.893  1.00  0.00     0.002 A 
ENDBRANCH   3  16
TORSDOF 5
ENDMDL
MODEL 4
REMARK minimizedAffinity -6.67303371
REMARK CNNscore 0.647355855
REMARK CNNaffinity 6.41748571
REMARK  5 active torsions:
REMARK  status: ('A' for Active; 'I' for Inactive)
REMARK    1  A    between atoms: O1_2  and  C2_3 
REMARK       I    between atoms: C2_3  and  N1_5 
REMARK    2  A    between atoms: N1_5  and  C4_7 
REMARK    3  A    between atoms: C6_9  and  N3_33 
REMARK    4  A    between atoms: C7_11  and  N2_16 
REMARK    5  A    between atoms: C9_13  and  O4_14 
ROOT
HETATM    1  C4  UNL     1       8.377 -17.278  42.196  1.00  0.00     0.126 C 
HETATM    2  C5  UNL     1       7.586 -16.915  43.458  1.00  0.00     0.082 C 
HETATM    3  C6  UNL     1       6.200 -17.570  43.463  1.00  0.00     0.233 C 
HETATM    4  O3  UNL     1       5.972 -18.485  42.394  1.00  0.00    -0.333 OA
HETATM    5  C7  UNL     1       6.280 -18.050  41.044  1.00  0.00     0.168 C 
HETATM    6  C8  UNL     1       6.703 -19.400  40.419  1.00  0.00     0.074 C 
HETATM    7  C9  UNL     1       7.472 -17.037  40.967  1.00  0.00     0.199 C 
ENDROOT
BRANCH   1   8
HETATM    8  N1  UNL     1       9.695 -16.617  42.065  1.00  0.00    -0.325 N 
HETATM    9  C2  UNL     1      10.231 -16.048  43.215  1.00  0.00     0.362 C 
HETATM   10  O2  UNL     1       9.613 -15.981  44.274  1.00  0.00    -0.238 OA
HETATM   11  C3  UNL     1      10.485 -16.804  40.854  1.00  0.00     0.155 C 
BRANCH   9  12
HETATM   12  O1  UNL     1      11.501 -15.594  43.051  1.00  0.00    -0.309 OA
HETATM   13  C1  UNL     1      12.450 -16.156  43.959  1.00  0.00     0.215 C 
ENDBRANCH   9  12
ENDBRANCH   1   8
BRANCH   7  14
HETATM   14  O4  UNL     1       7.033 -15.663  41.050  1.00  0.00    -0.384 OA
HETATM   15  C10 UNL     1       7.594 -14.835  40.040  1.00  0.00     0.202 C 
ENDBRANCH   7  14
BRANCH   3  16
HETATM   16  N3  UNL     1       5.072 -16.656  43.609  1.00  0.00    -0.316 N 
HETATM   17  C26 UNL     1       3.956 -16.643  42.785  1.00  0.00     0.048 A 
HETATM   18  C21 UNL     1       3.173 -15.539  43.161  1.00  0.00     0.004 A 
HETATM   19  C25 UNL     1       3.578 -17.503  41.736  1.00  0.00     0.030 A 
HETATM   20  C20 UNL     1       3.844 -14.881  44.237  1.00  0.00     0.022 A 
HETATM   21  C22 UNL     1       1.969 -15.311  42.461  1.00  0.00     0.014 A 
HETATM   22  C19 UNL     1       3.676 -13.762  45.067  1.00  0.00     0.054 A 
HETATM   23  C27 UNL     1       4.987 -15.621  44.489  1.00  0.00     0.077 A 
HETATM   24  C18 UNL     1       4.565 -13.382  46.120  1.00  0.00    -0.010 A 
HETATM   25  C29 UNL     1       2.586 -12.774  45.047  1.00  0.00     0.253 A 
HETATM   26  C17 UNL     1       5.713 -14.130  46.428  1.00  0.00     0.015 A 
HETATM   27  C30 UNL     1       4.039 -12.144  46.786  1.00  0.00     0.163 A 
HETATM   28  C16 UNL     1       6.738 -14.099  47.412  1.00  0.00     0.004 A 
HETATM   29  C28 UNL     1       5.963 -15.231  45.639  1.00  0.00     0.077 A 
HETATM   30  C11 UNL     1       7.564 -15.222  47.207  1.00  0.00     0.049 A 
HETATM   31  C15 UNL     1       7.005 -13.237  48.499  1.00  0.00     0.014 A 
HETATM   32  N2  UNL     1       7.107 -15.864  46.056  1.00  0.00    -0.308 N 
HETATM   33  C12 UNL     1       8.605 -15.510  48.111  1.00  0.00     0.030 A 
HETATM   34  C13 UNL     1       8.842 -14.640  49.181  1.00  0.00     0.002 A 
HETATM   35  C14 UNL     1       8.060 -13.511  49.369  1.00  0.00     0.001 A 
HETATM   36  N4  UNL     1       2.836 -11.867  46.052  1.00  0.00    -0.353 N 
HETATM   37  H26 UNL     1       2.214 -11.087  46.211  1.00  0.00     0.163 HD
HETATM   38  O5  UNL     1       1.629 -12.730  44.300  1.00  0.00    -0.268 OA
HETATM   39  C23 UNL     1       1.583 -16.166  41.424  1.00  0.00     0.001 A 
HETATM   40  C24 UNL     1       2.381 -17.245  41.066  1.00  0.00     0.002 A 
ENDBRANCH   3  16
TORSDOF 5
ENDMDL
MODEL 5
REMARK minimizedAffinity -7.28577375
REMARK CNNscore 0.620902359
REMARK CNNaffinity 7.45969629
REMARK  5 active torsions:
REMARK  status: ('A' for Active; 'I' for Inactive)
REMARK    1  A    between atoms: O1_2  and  C2_3 
REMARK       I    between atoms: C2_3  and  N1_5 
REMARK    2  A    between atoms: N1_5  and  C4_7 
REMARK    3  A    between atoms: C6_9  and  N3_33 
REMARK    4  A    between atoms: C7_11  and  N2_16 
REMARK    5  A    between atoms: C9_13  and  O4_14 
ROOT
HETATM    1  C4  UNL     1       4.143 -10.901  24.231  1.00  0.00     0.126 C 
HETATM    2  C5  UNL     1       4.100  -9.392  24.494  1.00  0.00     0.082 C 
HETATM    3  C6  UNL     1       5.313  -8.927  25.309  1.00  0.00     0.233 C 
HETATM    4  O3  UNL     1       6.297  -9.933  25.535  1.00  0.00    -0.333 OA
HETATM    5  C7  UNL     1       5.856 -11.219  26.043  1.00  0.00     0.168 C 
HETATM    6  C8  UNL     1       6.902 -12.142  25.375  1.00  0.00     0.074 C 
HETATM    7  C9  UNL     1       4.419 -11.622  25.570  1.00  0.00     0.199 C 
ENDROOT
BRANCH   1   8
HETATM    8  N1  UNL     1       2.963 -11.454  23.526  1.00  0.00    -0.325 N 
HETATM    9  C2  UNL     1       2.312 -10.608  22.635  1.00  0.00     0.362 C 
HETATM   10  O2  UNL     1       2.605  -9.423  22.505  1.00  0.00    -0.238 OA
HETATM   11  C3  UNL     1       2.690 -12.884  23.577  1.00  0.00     0.155 C 
BRANCH   9  12
HETATM   12  O1  UNL     1       1.336 -11.228  21.920  1.00  0.00    -0.309 OA
HETATM   13  C1  UNL     1       1.401 -10.996  20.511  1.00  0.00     0.215 C 
ENDBRANCH   9  12
ENDBRANCH   1   8
BRANCH   7  14
HETATM   14  O4  UNL     1       3.394 -11.181  26.487  1.00  0.00    -0.384 OA
HETATM   15  C10 UNL     1       2.722 -12.255  27.133  1.00  0.00     0.202 C 
ENDBRANCH   7  14
BRANCH   3  16
HETATM   16  N3  UNL     1       5.006  -8.218  26.547  1.00  0.00    -0.316 N 
HETATM   17  C26 UNL     1       3.724  -7.940  26.997  1.00  0.00     0.048 A 
HETATM   18  C21 UNL     1       3.850  -7.131  28.139  1.00  0.00     0.004 A 
HETATM   19  C25 UNL     1       2.468  -8.322  26.490  1.00  0.00     0.030 A 
HETATM   20  C20 UNL     1       5.245  -6.925  28.370  1.00  0.00     0.022 A 
HETATM   21  C22 UNL     1       2.669  -6.711  28.788  1.00  0.00     0.014 A 
HETATM   22  C19 UNL     1       6.084  -6.249  29.269  1.00  0.00     0.054 A 
HETATM   23  C27 UNL     1       5.907  -7.635  27.383  1.00  0.00     0.077 A 
HETATM   24  C18 UNL     1       7.513  -6.275  29.234  1.00  0.00    -0.010 A 
HETATM   25  C29 UNL     1       5.697  -5.404  30.410  1.00  0.00     0.253 A 
HETATM   26  C17 UNL     1       8.218  -7.014  28.271  1.00  0.00     0.015 A 
HETATM   27  C30 UNL     1       8.048  -5.446  30.364  1.00  0.00     0.163 A 
HETATM   28  C16 UNL     1       9.577  -7.323  27.989  1.00  0.00     0.004 A 
HETATM   29  C28 UNL     1       7.464  -7.686  27.334  1.00  0.00     0.077 A 
HETATM   30  C11 UNL     1       9.598  -8.217  26.900  1.00  0.00     0.049 A 
HETATM   31  C15 UNL     1      10.795  -6.960  28.606  1.00  0.00     0.014 A 
HETATM   32  N2  UNL     1       8.281  -8.364  26.464  1.00  0.00    -0.308 N 
HETATM   33  C12 UNL     1      10.814  -8.783  26.472  1.00  0.00     0.030 A 
HETATM   34  C13 UNL     1      12.004  -8.408  27.106  1.00  0.00     0.002 A 
HETATM   35  C14 UNL     1      11.998  -7.500  28.154  1.00  0.00     0.001 A 
HETATM   36  N4  UNL     1       6.858  -4.968  31.009  1.00  0.00    -0.353 N 
HETATM   37  H26 UNL     1       6.826  -4.357  31.813  1.00  0.00     0.163 HD
HETATM   38  O5  UNL     1       4.577  -5.119  30.784  1.00  0.00    -0.268 OA
HETATM   39  C23 UNL     1       1.418  -7.095  28.295  1.00  0.00     0.001 A 
HETATM   40  C24 UNL     1       1.322  -7.888  27.159  1.00  0.00     0.002 A 
ENDBRANCH   3  16
TORSDOF 5
ENDMDL
MODEL 6
REMARK minimizedAffinity -9.52573872
REMARK CNNscore 0.588949442
REMARK CNNaffinity 7.5000968
REMARK  5 active torsions:
REMARK  status: ('A' for Active; 'I' for Inactive)
REMARK    1  A    between atoms: O1_2  and  C2_3 
REMARK       I    between atoms: C2_3  and  N1_5 
REMARK    2  A    between atoms: N1_5  and  C4_7 
REMARK    3  A    between atoms: C6_9  and  N3_33 
REMARK    4  A    between atoms: C7_11  and  N2_16 
REMARK    5  A    between atoms: C9_13  and  O4_14 
ROOT
HETATM    1  C4  UNL     1      12.253  -8.573  28.478  1.00  0.00     0.126 C 
HETATM    2  C5  UNL     1      11.360  -8.297  29.692  1.00  0.00     0.082 C 
HETATM    3  C6  UNL     1       9.874  -8.300  29.313  1.00  0.00     0.233 C 
HETATM    4  O3  UNL     1       9.606  -8.694  27.970  1.00  0.00    -0.333 OA
HETATM    5  C7  UNL     1      10.360  -8.057  26.907  1.00  0.00     0.168 C 
HETATM    6  C8  UNL     1      10.423  -9.221  25.891  1.00  0.00     0.074 C 
HETATM    7  C9  UNL     1      11.811  -7.644  27.325  1.00  0.00     0.199 C 
ENDROOT
BRANCH   1   8
HETATM    8  N1  UNL     1      13.710  -8.500  28.735  1.00  0.00    -0.325 N 
HETATM    9  C2  UNL     1      14.170  -9.080  29.911  1.00  0.00     0.362 C 
HETATM   10  O2  UNL     1      13.418  -9.535  30.769  1.00  0.00    -0.238 OA
HETATM   11  C3  UNL     1      14.615  -8.082  27.672  1.00  0.00     0.155 C 
BRANCH   9  12
HETATM   12  O1  UNL     1      15.525  -9.106  30.005  1.00  0.00    -0.309 OA
HETATM   13  C1  UNL     1      16.051 -10.269  30.648  1.00  0.00     0.215 C 
ENDBRANCH   9  12
ENDBRANCH   1   8
BRANCH   7  14
HETATM   14  O4  UNL     1      11.870  -6.297  27.845  1.00  0.00    -0.384 OA
HETATM   15  C10 UNL     1      11.139  -5.362  27.061  1.00  0.00     0.202 C 
ENDBRANCH   7  14
BRANCH   3  16
HETATM   16  N3  UNL     1       9.135  -7.089  29.653  1.00  0.00    -0.316 N 
HETATM   17  C26 UNL     1       9.666  -6.009  30.343  1.00  0.00     0.048 A 
HETATM   18  C21 UNL     1       8.612  -5.114  30.592  1.00  0.00     0.004 A 
HETATM   19  C25 UNL     1      10.980  -5.752  30.777  1.00  0.00     0.030 A 
HETATM   20  C20 UNL     1       7.424  -5.681  30.034  1.00  0.00     0.022 A 
HETATM   21  C22 UNL     1       8.904  -3.923  31.289  1.00  0.00     0.014 A 
HETATM   22  C19 UNL     1       6.059  -5.379  29.915  1.00  0.00     0.054 A 
HETATM   23  C27 UNL     1       7.807  -6.876  29.448  1.00  0.00     0.077 A 
HETATM   24  C18 UNL     1       5.098  -6.188  29.233  1.00  0.00    -0.010 A 
HETATM   25  C29 UNL     1       5.341  -4.205  30.435  1.00  0.00     0.253 A 
HETATM   26  C17 UNL     1       5.456  -7.387  28.595  1.00  0.00     0.015 A 
HETATM   27  C30 UNL     1       3.753  -5.527  29.310  1.00  0.00     0.163 A 
HETATM   28  C16 UNL     1       4.813  -8.367  27.791  1.00  0.00     0.004 A 
HETATM   29  C28 UNL     1       6.777  -7.767  28.690  1.00  0.00     0.077 A 
HETATM   30  C11 UNL     1       5.790  -9.299  27.386  1.00  0.00     0.049 A 
HETATM   31  C15 UNL     1       3.488  -8.512  27.324  1.00  0.00     0.014 A 
HETATM   32  N2  UNL     1       6.981  -8.947  28.020  1.00  0.00    -0.308 N 
HETATM   33  C12 UNL     1       5.456 -10.326  26.483  1.00  0.00     0.030 A 
HETATM   34  C13 UNL     1       4.136 -10.441  26.034  1.00  0.00     0.002 A 
HETATM   35  C14 UNL     1       3.160  -9.553  26.456  1.00  0.00     0.001 A 
HETATM   36  N4  UNL     1       4.022  -4.333  30.061  1.00  0.00    -0.353 N 
HETATM   37  H26 UNL     1       3.340  -3.636  30.327  1.00  0.00     0.163 HD
HETATM   38  O5  UNL     1       5.790  -3.277  31.078  1.00  0.00    -0.268 OA
HETATM   39  C23 UNL     1      10.209  -3.657  31.715  1.00  0.00     0.001 A 
HETATM   40  C24 UNL     1      11.231  -4.563  31.463  1.00  0.00     0.002 A 
ENDBRANCH   3  16
TORSDOF 5
ENDMDL
MODEL 7
REMARK minimizedAffinity -8.9607563
REMARK CNNscore 0.582478821
REMARK CNNaffinity 7.45819998
REMARK  5 active torsions:
REMARK  status: ('A' for Active; 'I' for Inactive)
REMARK    1  A    between atoms: O1_2  and  C2_3 
REMARK       I    between atoms: C2_3  and  N1_5 
REMARK    2  A    between atoms: N1_5  and  C4_7 
REMARK    3  A    between atoms: C6_9  and  N3_33 
REMARK    4  A    between atoms: C7_11  and  N2_16 
REMARK    5  A    between atoms: C9_13  and  O4_14 
ROOT
HETATM    1  C4  UNL     1      11.557  -9.189  27.480  1.00  0.00     0.126 C 
HETATM    2  C5  UNL     1      10.076  -8.812  27.597  1.00  0.00     0.082 C 
HETATM    3  C6  UNL     1       9.780  -7.469  26.918  1.00  0.00     0.233 C 
HETATM    4  O3  UNL     1      10.878  -6.913  26.200  1.00  0.00    -0.333 OA
HETATM    5  C7  UNL     1      12.161  -6.825  26.872  1.00  0.00     0.168 C 
HETATM    6  C8  UNL     1      13.108  -7.008  25.662  1.00  0.00     0.074 C 
HETATM    7  C9  UNL     1      12.406  -7.971  27.910  1.00  0.00     0.199 C 
ENDROOT
BRANCH   1   8
HETATM    8  N1  UNL     1      11.952 -10.429  28.185  1.00  0.00    -0.325 N 
HETATM    9  C2  UNL     1      11.125 -10.854  29.219  1.00  0.00     0.362 C 
HETATM   10  O2  UNL     1      10.172 -10.194  29.625  1.00  0.00    -0.238 OA
HETATM   11  C3  UNL     1      12.997 -11.280  27.631  1.00  0.00     0.155 C 
BRANCH   9  12
HETATM   12  O1  UNL     1      11.466 -12.071  29.717  1.00  0.00    -0.309 OA
HETATM   13  C1  UNL     1      12.077 -12.030  31.008  1.00  0.00     0.215 C 
ENDBRANCH   9  12
ENDBRANCH   1   8
BRANCH   7  14
HETATM   14  O4  UNL     1      11.960  -7.615  29.238  1.00  0.00    -0.384 OA
HETATM   15  C10 UNL     1      12.993  -7.683  30.212  1.00  0.00     0.202 C 
ENDBRANCH   7  14
BRANCH   3  16
HETATM   16  N3  UNL     1       9.153  -6.460  27.766  1.00  0.00    -0.316 N 
HETATM   17  C26 UNL     1       9.833  -5.432  28.401  1.00  0.00     0.048 A 
HETATM   18  C21 UNL     1       8.910  -4.767  29.225  1.00  0.00     0.004 A 
HETATM   19  C25 UNL     1      11.183  -5.039  28.327  1.00  0.00     0.030 A 
HETATM   20  C20 UNL     1       7.648  -5.421  29.073  1.00  0.00     0.022 A 
HETATM   21  C22 UNL     1       9.367  -3.668  29.983  1.00  0.00     0.014 A 
HETATM   22  C19 UNL     1       6.337  -5.326  29.565  1.00  0.00     0.054 A 
HETATM   23  C27 UNL     1       7.847  -6.432  28.148  1.00  0.00     0.077 A 
HETATM   24  C18 UNL     1       5.249  -6.161  29.163  1.00  0.00    -0.010 A 
HETATM   25  C29 UNL     1       5.808  -4.378  30.558  1.00  0.00     0.253 A 
HETATM   26  C17 UNL     1       5.405  -7.172  28.201  1.00  0.00     0.015 A 
HETATM   27  C30 UNL     1       4.010  -5.743  29.899  1.00  0.00     0.163 A 
HETATM   28  C16 UNL     1       4.568  -8.103  27.528  1.00  0.00     0.004 A 
HETATM   29  C28 UNL     1       6.672  -7.346  27.688  1.00  0.00     0.077 A 
HETATM   30  C11 UNL     1       5.360  -8.792  26.588  1.00  0.00     0.049 A 
HETATM   31  C15 UNL     1       3.185  -8.383  27.601  1.00  0.00     0.014 A 
HETATM   32  N2  UNL     1       6.674  -8.359  26.761  1.00  0.00    -0.308 N 
HETATM   33  C12 UNL     1       4.766  -9.705  25.695  1.00  0.00     0.030 A 
HETATM   34  C13 UNL     1       3.393  -9.957  25.788  1.00  0.00     0.002 A 
HETATM   35  C14 UNL     1       2.612  -9.313  26.735  1.00  0.00     0.001 A 
HETATM   36  N4  UNL     1       4.468  -4.655  30.715  1.00  0.00    -0.353 N 
HETATM   37  H26 UNL     1       3.904  -4.126  31.366  1.00  0.00     0.163 HD
HETATM   38  O5  UNL     1       6.407  -3.504  31.152  1.00  0.00    -0.268 OA
HETATM   39  C23 UNL     1      10.705  -3.268  29.907  1.00  0.00     0.001 A 
HETATM   40  C24 UNL     1      11.600  -3.948  29.091  1.00  0.00     0.002 A 
ENDBRANCH   3  16
TORSDOF 5
ENDMDL
MODEL 8
REMARK minimizedAffinity -7.46651793
REMARK CNNscore 0.547115564
REMARK CNNaffinity 6.21555185
REMARK  5 active torsions:
REMARK  status: ('A' for Active; 'I' for Inactive)
REMARK    1  A    between atoms: O1_2  and  C2_3 
REMARK       I    between atoms: C2_3  and  N1_5 
REMARK    2  A    between atoms: N1_5  and  C4_7 
REMARK    3  A    between atoms: C6_9  and  N3_33 
REMARK    4  A    between atoms: C7_11  and  N2_16 
REMARK    5  A    between atoms: C9_13  and  O4_14 
ROOT
HETATM    1  C4  UNL     1       3.143  11.054  35.560  1.00  0.00     0.126 C 
HETATM    2  C5  UNL     1       4.072   9.885  35.904  1.00  0.00     0.082 C 
HETATM    3  C6  UNL     1       3.446   8.955  36.950  1.00  0.00     0.233 C 
HETATM    4  O3  UNL     1       2.096   9.264  37.286  1.00  0.00    -0.333 OA
HETATM    5  C7  UNL     1       1.773  10.637  37.627  1.00  0.00     0.168 C 
HETATM    6  C8  UNL     1       0.320  10.707  37.101  1.00  0.00     0.074 C 
HETATM    7  C9  UNL     1       2.655  11.694  36.879  1.00  0.00     0.199 C 
ENDROOT
BRANCH   1   8
HETATM    8  N1  UNL     1       3.704  12.053  34.622  1.00  0.00    -0.325 N 
HETATM    9  C2  UNL     1       4.873  11.703  33.957  1.00  0.00     0.362 C 
HETATM   10  O2  UNL     1       5.495  10.673  34.200  1.00  0.00    -0.238 OA
HETATM   11  C3  UNL     1       2.910  13.213  34.235  1.00  0.00     0.155 C 
BRANCH   9  12
HETATM   12  O1  UNL     1       5.244  12.603  33.009  1.00  0.00    -0.309 OA
HETATM   13  C1  UNL     1       6.390  13.384  33.353  1.00  0.00     0.215 C 
ENDBRANCH   9  12
ENDBRANCH   1   8
BRANCH   7  14
HETATM   14  O4  UNL     1       3.842  12.044  37.624  1.00  0.00    -0.384 OA
HETATM   15  C10 UNL     1       3.644  13.138  38.511  1.00  0.00     0.202 C 
ENDBRANCH   7  14
BRANCH   3  16
HETATM   16  N3  UNL     1       4.241   8.737  38.154  1.00  0.00    -0.316 N 
HETATM   17  C26 UNL     1       5.470   9.328  38.405  1.00  0.00     0.048 A 
HETATM   18  C21 UNL     1       5.972   8.762  39.589  1.00  0.00     0.004 A 
HETATM   19  C25 UNL     1       6.185  10.304  37.685  1.00  0.00     0.030 A 
HETATM   20  C20 UNL     1       5.012   7.809  40.051  1.00  0.00     0.022 A 
HETATM   21  C22 UNL     1       7.225   9.208  40.058  1.00  0.00     0.014 A 
HETATM   22  C19 UNL     1       4.844   6.897  41.105  1.00  0.00     0.054 A 
HETATM   23  C27 UNL     1       3.961   7.853  39.151  1.00  0.00     0.077 A 
HETATM   24  C18 UNL     1       3.692   6.074  41.299  1.00  0.00    -0.010 A 
HETATM   25  C29 UNL     1       5.774   6.603  42.207  1.00  0.00     0.253 A 
HETATM   26  C17 UNL     1       2.591   6.119  40.428  1.00  0.00     0.015 A 
HETATM   27  C30 UNL     1       3.880   5.249  42.539  1.00  0.00     0.163 A 
HETATM   28  C16 UNL     1       1.300   5.530  40.355  1.00  0.00     0.004 A 
HETATM   29  C28 UNL     1       2.691   6.972  39.351  1.00  0.00     0.077 A 
HETATM   30  C11 UNL     1       0.636   6.084  39.243  1.00  0.00     0.049 A 
HETATM   31  C15 UNL     1       0.615   4.607  41.177  1.00  0.00     0.014 A 
HETATM   32  N2  UNL     1       1.548   6.917  38.594  1.00  0.00    -0.308 N 
HETATM   33  C12 UNL     1      -0.711   5.763  38.990  1.00  0.00     0.030 A 
HETATM   34  C13 UNL     1      -1.365   4.850  39.824  1.00  0.00     0.002 A 
HETATM   35  C14 UNL     1      -0.710   4.270  40.899  1.00  0.00     0.001 A 
HETATM   36  N4  UNL     1       5.176   5.654  43.005  1.00  0.00    -0.353 N 
HETATM   37  H26 UNL     1       5.649   5.293  43.822  1.00  0.00     0.163 HD
HETATM   38  O5  UNL     1       6.870   7.084  42.409  1.00  0.00    -0.268 OA
HETATM   39  C23 UNL     1       7.937  10.183  39.352  1.00  0.00     0.001 A 
HETATM   40  C24 UNL     1       7.422  10.720  38.179  1.00  0.00     0.002 A 
ENDBRANCH   3  16
TORSDOF 5
ENDMDL
MODEL 9
REMARK minimizedAffinity -7.84895515
REMARK CNNscore 0.545099139
REMARK CNNaffinity 5.95277834
REMARK  5 active torsions:
REMARK  status: ('A' for Active; 'I' for Inactive)
REMARK    1  A    between atoms: O1_2  and  C2_3 
REMARK       I    between atoms: C2_3  and  N1_5 
REMARK    2  A    between atoms: N1_5  and  C4_7 
REMARK    3  A    between atoms: C6_9  and  N3_33 
REMARK    4  A    between atoms: C7_11  and  N2_16 
REMARK    5  A    between atoms: C9_13  and  O4_14 
ROOT
HETATM    1  C4  UNL     1       0.013   4.819  41.970  1.00  0.00     0.126 C 
HETATM    2  C5  UNL     1       1.103   4.757  40.894  1.00  0.00     0.082 C 
HETATM    3  C6  UNL     1       2.453   5.249  41.429  1.00  0.00     0.233 C 
HETATM    4  O3  UNL     1       2.472   5.524  42.828  1.00  0.00    -0.333 OA
HETATM    5  C7  UNL     1       1.419   6.358  43.375  1.00  0.00     0.168 C 
HETATM    6  C8  UNL     1       1.300   5.743  44.789  1.00  0.00     0.074 C 
HETATM    7  C9  UNL     1       0.052   6.218  42.624  1.00  0.00     0.199 C 
ENDROOT
BRANCH   1   8
HETATM    8  N1  UNL     1      -1.346   4.446  41.515  1.00  0.00    -0.325 N 
HETATM    9  C2  UNL     1      -2.201   3.906  42.468  1.00  0.00     0.362 C 
HETATM   10  O2  UNL     1      -1.839   3.631  43.609  1.00  0.00    -0.238 OA
HETATM   11  C3  UNL     1      -1.821   4.884  40.208  1.00  0.00     0.155 C 
BRANCH   9  12
HETATM   12  O1  UNL     1      -3.470   3.729  42.015  1.00  0.00    -0.309 OA
HETATM   13  C1  UNL     1      -4.483   4.237  42.885  1.00  0.00     0.215 C 
ENDBRANCH   9  12
ENDBRANCH   1   8
BRANCH   7  14
HETATM   14  O4  UNL     1      -0.084   7.173  41.548  1.00  0.00    -0.384 OA
HETATM   15  C10 UNL     1       0.325   8.486  41.911  1.00  0.00     0.202 C 
ENDBRANCH   7  14
BRANCH   3  16
HETATM   16  N3  UNL     1       3.068   6.341  40.681  1.00  0.00    -0.316 N 
HETATM   17  C26 UNL     1       2.573   6.858  39.493  1.00  0.00     0.048 A 
HETATM   18  C21 UNL     1       3.513   7.789  39.020  1.00  0.00     0.004 A 
HETATM   19  C25 UNL     1       1.385   6.577  38.792  1.00  0.00     0.030 A 
HETATM   20  C20 UNL     1       4.594   7.823  39.954  1.00  0.00     0.022 A 
HETATM   21  C22 UNL     1       3.231   8.460  37.811  1.00  0.00     0.014 A 
HETATM   22  C19 UNL     1       5.827   8.470  40.127  1.00  0.00     0.054 A 
HETATM   23  C27 UNL     1       4.257   6.938  40.964  1.00  0.00     0.077 A 
HETATM   24  C18 UNL     1       6.696   8.289  41.248  1.00  0.00    -0.010 A 
HETATM   25  C29 UNL     1       6.471   9.447  39.236  1.00  0.00     0.253 A 
HETATM   26  C17 UNL     1       6.371   7.428  42.309  1.00  0.00     0.015 A 
HETATM   27  C30 UNL     1       7.906   9.161  41.078  1.00  0.00     0.163 A 
HETATM   28  C16 UNL     1       6.929   7.074  43.566  1.00  0.00     0.004 A 
HETATM   29  C28 UNL     1       5.185   6.735  42.200  1.00  0.00     0.077 A 
HETATM   30  C11 UNL     1       6.031   6.196  44.204  1.00  0.00     0.049 A 
HETATM   31  C15 UNL     1       8.104   7.470  44.245  1.00  0.00     0.014 A 
HETATM   32  N2  UNL     1       4.996   5.942  43.304  1.00  0.00    -0.308 N 
HETATM   33  C12 UNL     1       6.276   5.766  45.522  1.00  0.00     0.030 A 
HETATM   34  C13 UNL     1       7.445   6.179  46.170  1.00  0.00     0.002 A 
HETATM   35  C14 UNL     1       8.354   7.012  45.538  1.00  0.00     0.001 A 
HETATM   36  N4  UNL     1       7.660   9.817  39.824  1.00  0.00    -0.353 N 
HETATM   37  H26 UNL     1       8.277  10.477  39.372  1.00  0.00     0.163 HD
HETATM   38  O5  UNL     1       6.066   9.872  38.173  1.00  0.00    -0.268 OA
HETATM   39  C23 UNL     1       2.049   8.191  37.114  1.00  0.00     0.001 A 
HETATM   40  C24 UNL     1       1.141   7.260  37.599  1.00  0.00     0.002 A 
ENDBRANCH   3  16
TORSDOF 5
ENDMDL
