MODEL 1
REMARK minimizedAffinity -6.79031801
REMARK CNNscore 0.757903993
REMARK CNNaffinity 5.03216743
REMARK  6 active torsions:
REMARK  status: ('A' for Active; 'I' for Inactive)
REMARK    1  A    between atoms: C2_2  and  C3_3 
REMARK       I    between atoms: C3_3  and  N1_5 
REMARK    2  A    between atoms: N1_5  and  C4_6 
REMARK    3  A    between atoms: C9_15  and  N4_16 
REMARK    4  A    between atoms: N4_16  and  C10_17 
REMARK    5  A    between atoms: C13_20  and  O2_21 
REMARK    6  A    between atoms: O2_21  and  C14_22 
ROOT
HETATM    1  C4  UNL     1      19.700  51.211   8.183  1.00  0.00     0.036 A 
HETATM    2  C5  UNL     1      20.576  50.195   7.811  1.00  0.00     0.032 A 
HETATM    3  C6  UNL     1      20.297  49.391   6.701  1.00  0.00     0.033 A 
HETATM    4  C7  UNL     1      19.154  49.567   5.936  1.00  0.00     0.047 A 
HETATM    5  N2  UNL     1      18.959  48.759   4.892  1.00  0.00    -0.352 N 
ATOM      6  H2  UNL     1      19.620  48.020   4.655  1.00  0.00     0.166 HD
HETATM    7  C8  UNL     1      17.851  48.967   4.174  1.00  0.00     0.182 A 
HETATM    8  N3  UNL     1      16.923  49.898   4.408  1.00  0.00    -0.338 N 
ATOM      9  H3  UNL     1      16.103  49.995   3.808  1.00  0.00     0.168 HD
HETATM   10  C9  UNL     1      17.118  50.704   5.469  1.00  0.00     0.119 A 
HETATM   11  C22 UNL     1      18.259  50.585   6.291  1.00  0.00     0.037 A 
HETATM   12  C23 UNL     1      18.551  51.407   7.416  1.00  0.00     0.047 A 
ENDROOT
BRANCH  10  13
HETATM   13  N4  UNL     1      16.158  51.707   5.770  1.00  0.00    -0.342 N 
HETATM   14  H8  UNL     1      15.262  51.271   5.961  1.00  0.00     0.167 HD
BRANCH  13  15
HETATM   15  C10 UNL     1      16.001  52.994   5.209  1.00  0.00     0.033 A 
HETATM   16  C11 UNL     1      14.720  53.567   5.184  1.00  0.00     0.032 A 
HETATM   17  C12 UNL     1      14.516  54.861   4.692  1.00  0.00     0.039 A 
HETATM   18  C13 UNL     1      15.595  55.604   4.227  1.00  0.00     0.076 A 
HETATM   19  C20 UNL     1      16.884  55.077   4.300  1.00  0.00     0.039 A 
HETATM   20  C21 UNL     1      17.081  53.782   4.793  1.00  0.00     0.032 A 
BRANCH  18  21
HETATM   21  O2  UNL     1      15.335  56.882   3.787  1.00  0.00    -0.311 OA
BRANCH  21  22
HETATM   22  C14 UNL     1      14.615  57.016   2.620  1.00  0.00     0.076 A 
HETATM   23  C15 UNL     1      15.106  56.351   1.497  1.00  0.00     0.037 A 
HETATM   24  C16 UNL     1      14.446  56.471   0.273  1.00  0.00     0.003 A 
HETATM   25  C17 UNL     1      13.306  57.270   0.173  1.00  0.00     0.000 A 
HETATM   26  C18 UNL     1      12.829  57.953   1.292  1.00  0.00     0.003 A 
HETATM   27  C19 UNL     1      13.487  57.834   2.517  1.00  0.00     0.037 A 
ENDBRANCH  21  22
ENDBRANCH  18  21
ENDBRANCH  13  15
ENDBRANCH  10  13
BRANCH   1  28
HETATM   28  N1  UNL     1      20.034  51.977   9.317  1.00  0.00    -0.324 N 
HETATM   29  C3  UNL     1      19.663  53.273   9.590  1.00  0.00     0.244 C 
HETATM   30  O1  UNL     1      18.999  54.023   8.886  1.00  0.00    -0.268 OA
HETATM   31  H4  UNL     1      20.633  51.523   9.994  1.00  0.00     0.169 HD
BRANCH  29  32
HETATM   32  C2  UNL     1      20.190  53.801  10.881  1.00  0.00     0.064 C 
HETATM   33  C1  UNL     1      20.337  53.087  12.006  1.00  0.00     0.017 C 
ENDBRANCH  29  32
ENDBRANCH   1  28
TORSDOF 6
ENDMDL
MODEL 2
REMARK minimizedAffinity -6.50101089
REMARK CNNscore 0.74222225
REMARK CNNaffinity 6.01678514
REMARK  6 active torsions:
REMARK  status: ('A' for Active; 'I' for Inactive)
REMARK    1  A    between atoms: C2_2  and  C3_3 
REMARK       I    between atoms: C3_3  and  N1_5 
REMARK    2  A    between atoms: N1_5  and  C4_6 
REMARK    3  A    between atoms: C9_15  and  N4_16 
REMARK    4  A    between atoms: N4_16  and  C10_17 
REMARK    5  A    between atoms: C13_20  and  O2_21 
REMARK    6  A    between atoms: O2_21  and  C14_22 
ROOT
HETATM    1  C4  UNL     1      10.704  50.535  -2.510  1.00  0.00     0.036 A 
HETATM    2  C5  UNL     1       9.989  50.353  -3.692  1.00  0.00     0.032 A 
HETATM    3  C6  UNL     1      10.322  51.081  -4.839  1.00  0.00     0.033 A 
HETATM    4  C7  UNL     1      11.360  52.001  -4.849  1.00  0.00     0.047 A 
HETATM    5  N2  UNL     1      11.616  52.655  -5.984  1.00  0.00    -0.352 N 
ATOM      6  H2  UNL     1      11.065  52.501  -6.828  1.00  0.00     0.166 HD
HETATM    7  C8  UNL     1      12.630  53.525  -5.955  1.00  0.00     0.182 A 
HETATM    8  N3  UNL     1      13.402  53.803  -4.903  1.00  0.00    -0.338 N 
ATOM      9  H3  UNL     1      14.162  54.481  -4.964  1.00  0.00     0.168 HD
HETATM   10  C9  UNL     1      13.133  53.149  -3.757  1.00  0.00     0.119 A 
HETATM   11  C22 UNL     1      12.093  52.198  -3.672  1.00  0.00     0.037 A 
HETATM   12  C23 UNL     1      11.757  51.449  -2.509  1.00  0.00     0.047 A 
ENDROOT
BRANCH  10  13
HETATM   13  N4  UNL     1      13.917  53.412  -2.602  1.00  0.00    -0.342 N 
HETATM   14  H8  UNL     1      14.045  52.554  -2.076  1.00  0.00     0.167 HD
BRANCH  13  15
HETATM   15  C10 UNL     1      13.913  54.543  -1.756  1.00  0.00     0.033 A 
HETATM   16  C11 UNL     1      12.681  55.045  -1.304  1.00  0.00     0.032 A 
HETATM   17  C12 UNL     1      12.620  56.127  -0.420  1.00  0.00     0.039 A 
HETATM   18  C13 UNL     1      13.795  56.718   0.034  1.00  0.00     0.076 A 
HETATM   19  C20 UNL     1      15.029  56.198  -0.354  1.00  0.00     0.039 A 
HETATM   20  C21 UNL     1      15.082  55.115  -1.239  1.00  0.00     0.032 A 
BRANCH  18  21
HETATM   21  O2  UNL     1      13.670  57.758   0.927  1.00  0.00    -0.311 OA
BRANCH  21  22
HETATM   22  C14 UNL     1      13.771  57.457   2.267  1.00  0.00     0.076 A 
HETATM   23  C15 UNL     1      13.767  58.531   3.156  1.00  0.00     0.037 A 
HETATM   24  C16 UNL     1      13.901  58.302   4.526  1.00  0.00     0.003 A 
HETATM   25  C17 UNL     1      14.056  56.999   5.002  1.00  0.00     0.000 A 
HETATM   26  C18 UNL     1      14.082  55.927   4.109  1.00  0.00     0.003 A 
HETATM   27  C19 UNL     1      13.948  56.154   2.739  1.00  0.00     0.037 A 
ENDBRANCH  21  22
ENDBRANCH  18  21
ENDBRANCH  13  15
ENDBRANCH  10  13
BRANCH   1  28
HETATM   28  N1  UNL     1      10.309  49.779  -1.389  1.00  0.00    -0.324 N 
HETATM   29  C3  UNL     1       9.897  48.466  -1.368  1.00  0.00     0.244 C 
HETATM   30  O1  UNL     1       9.761  47.712  -2.323  1.00  0.00    -0.268 OA
HETATM   31  H4  UNL     1      10.311  50.269  -0.504  1.00  0.00     0.169 HD
BRANCH  29  32
HETATM   32  C2  UNL     1       9.541  47.959  -0.012  1.00  0.00     0.064 C 
HETATM   33  C1  UNL     1       9.435  46.667   0.327  1.00  0.00     0.017 C 
ENDBRANCH  29  32
ENDBRANCH   1  28
TORSDOF 6
ENDMDL
MODEL 3
REMARK minimizedAffinity -6.37490511
REMARK CNNscore 0.698544323
REMARK CNNaffinity 5.68038416
REMARK  6 active torsions:
REMARK  status: ('A' for Active; 'I' for Inactive)
REMARK    1  A    between atoms: C2_2  and  C3_3 
REMARK       I    between atoms: C3_3  and  N1_5 
REMARK    2  A    between atoms: N1_5  and  C4_6 
REMARK    3  A    between atoms: C9_15  and  N4_16 
REMARK    4  A    between atoms: N4_16  and  C10_17 
REMARK    5  A    between atoms: C13_20  and  O2_21 
REMARK    6  A    between atoms: O2_21  and  C14_22 
ROOT
HETATM    1  C4  UNL     1      12.525  53.126  -2.534  1.00  0.00     0.036 A 
HETATM    2  C5  UNL     1      13.858  52.753  -2.382  1.00  0.00     0.032 A 
HETATM    3  C6  UNL     1      14.797  53.667  -1.893  1.00  0.00     0.033 A 
HETATM    4  C7  UNL     1      14.447  54.964  -1.546  1.00  0.00     0.047 A 
HETATM    5  N2  UNL     1      15.401  55.776  -1.087  1.00  0.00    -0.352 N 
ATOM      6  H2  UNL     1      16.370  55.469  -0.996  1.00  0.00     0.166 HD
HETATM    7  C8  UNL     1      15.022  57.014  -0.753  1.00  0.00     0.182 A 
HETATM    8  N3  UNL     1      13.788  57.511  -0.843  1.00  0.00    -0.338 N 
ATOM      9  H3  UNL     1      13.578  58.470  -0.564  1.00  0.00     0.168 HD
HETATM   10  C9  UNL     1      12.830  56.692  -1.317  1.00  0.00     0.119 A 
HETATM   11  C22 UNL     1      13.111  55.359  -1.689  1.00  0.00     0.037 A 
HETATM   12  C23 UNL     1      12.157  54.424  -2.178  1.00  0.00     0.047 A 
ENDROOT
BRANCH  10  13
HETATM   13  N4  UNL     1      11.499  57.172  -1.443  1.00  0.00    -0.342 N 
HETATM   14  H8  UNL     1      10.873  56.579  -0.908  1.00  0.00     0.167 HD
BRANCH  13  15
HETATM   15  C10 UNL     1      10.851  57.732  -2.566  1.00  0.00     0.033 A 
HETATM   16  C11 UNL     1      11.430  58.847  -3.194  1.00  0.00     0.032 A 
HETATM   17  C12 UNL     1      10.862  59.407  -4.343  1.00  0.00     0.039 A 
HETATM   18  C13 UNL     1       9.709  58.851  -4.888  1.00  0.00     0.076 A 
HETATM   19  C20 UNL     1       9.152  57.708  -4.316  1.00  0.00     0.039 A 
HETATM   20  C21 UNL     1       9.726  57.153  -3.167  1.00  0.00     0.032 A 
BRANCH  18  21
HETATM   21  O2  UNL     1       9.217  59.427  -6.037  1.00  0.00    -0.311 OA
BRANCH  21  22
HETATM   22  C14 UNL     1       8.656  60.680  -5.928  1.00  0.00     0.076 A 
HETATM   23  C15 UNL     1       9.465  61.765  -6.262  1.00  0.00     0.037 A 
HETATM   24  C16 UNL     1       8.971  63.065  -6.141  1.00  0.00     0.003 A 
HETATM   25  C17 UNL     1       7.674  63.276  -5.672  1.00  0.00     0.000 A 
HETATM   26  C18 UNL     1       6.873  62.190  -5.317  1.00  0.00     0.003 A 
HETATM   27  C19 UNL     1       7.365  60.890  -5.437  1.00  0.00     0.037 A 
ENDBRANCH  21  22
ENDBRANCH  18  21
ENDBRANCH  13  15
ENDBRANCH  10  13
BRANCH   1  28
HETATM   28  N1  UNL     1      11.633  52.161  -3.042  1.00  0.00    -0.324 N 
HETATM   29  C3  UNL     1      11.316  50.942  -2.488  1.00  0.00     0.244 C 
HETATM   30  O1  UNL     1      11.773  50.445  -1.467  1.00  0.00    -0.268 OA
HETATM   31  H4  UNL     1      11.195  52.387  -3.925  1.00  0.00     0.169 HD
BRANCH  29  32
HETATM   32  C2  UNL     1      10.335  50.147  -3.282  1.00  0.00     0.064 C 
HETATM   33  C1  UNL     1       9.859  48.942  -2.939  1.00  0.00     0.017 C 
ENDBRANCH  29  32
ENDBRANCH   1  28
TORSDOF 6
ENDMDL
MODEL 4
REMARK minimizedAffinity -6.51688385
REMARK CNNscore 0.681763947
REMARK CNNaffinity 5.30837202
REMARK  6 active torsions:
REMARK  status: ('A' for Active; 'I' for Inactive)
REMARK    1  A    between atoms: C2_2  and  C3_3 
REMARK       I    between atoms: C3_3  and  N1_5 
REMARK    2  A    between atoms: N1_5  and  C4_6 
REMARK    3  A    between atoms: C9_15  and  N4_16 
REMARK    4  A    between atoms: N4_16  and  C10_17 
REMARK    5  A    between atoms: C13_20  and  O2_21 
REMARK    6  A    between atoms: O2_21  and  C14_22 
ROOT
HETATM    1  C4  UNL     1      19.973  50.074   8.067  1.00  0.00     0.036 A 
HETATM    2  C5  UNL     1      19.829  48.689   8.100  1.00  0.00     0.032 A 
HETATM    3  C6  UNL     1      18.977  48.045   7.196  1.00  0.00     0.033 A 
HETATM    4  C7  UNL     1      18.249  48.746   6.246  1.00  0.00     0.047 A 
HETATM    5  N2  UNL     1      17.458  48.059   5.420  1.00  0.00    -0.352 N 
ATOM      6  H2  UNL     1      17.373  47.045   5.479  1.00  0.00     0.166 HD
HETATM    7  C8  UNL     1      16.782  48.770   4.512  1.00  0.00     0.182 A 
HETATM    8  N3  UNL     1      16.819  50.095   4.360  1.00  0.00    -0.338 N 
ATOM      9  H3  UNL     1      16.273  50.564   3.637  1.00  0.00     0.168 HD
HETATM   10  C9  UNL     1      17.610  50.785   5.203  1.00  0.00     0.119 A 
HETATM   11  C22 UNL     1      18.381  50.140   6.194  1.00  0.00     0.037 A 
HETATM   12  C23 UNL     1      19.255  50.791   7.109  1.00  0.00     0.047 A 
ENDROOT
BRANCH  10  13
HETATM   13  N4  UNL     1      17.681  52.200   5.094  1.00  0.00    -0.342 N 
HETATM   14  H8  UNL     1      18.479  52.541   5.619  1.00  0.00     0.167 HD
BRANCH  13  15
HETATM   15  C10 UNL     1      16.636  53.150   5.061  1.00  0.00     0.033 A 
HETATM   16  C11 UNL     1      16.898  54.425   4.536  1.00  0.00     0.032 A 
HETATM   17  C12 UNL     1      15.887  55.386   4.427  1.00  0.00     0.039 A 
HETATM   18  C13 UNL     1      14.593  55.079   4.836  1.00  0.00     0.076 A 
HETATM   19  C20 UNL     1      14.298  53.799   5.303  1.00  0.00     0.039 A 
HETATM   20  C21 UNL     1      15.315  52.843   5.409  1.00  0.00     0.032 A 
BRANCH  18  21
HETATM   21  O2  UNL     1      13.636  56.055   4.673  1.00  0.00    -0.311 OA
BRANCH  21  22
HETATM   22  C14 UNL     1      13.745  56.871   3.570  1.00  0.00     0.076 A 
HETATM   23  C15 UNL     1      13.655  56.259   2.321  1.00  0.00     0.037 A 
HETATM   24  C16 UNL     1      13.791  57.022   1.159  1.00  0.00     0.003 A 
HETATM   25  C17 UNL     1      14.033  58.393   1.252  1.00  0.00     0.000 A 
HETATM   26  C18 UNL     1      14.145  59.001   2.503  1.00  0.00     0.003 A 
HETATM   27  C19 UNL     1      14.009  58.240   3.665  1.00  0.00     0.037 A 
ENDBRANCH  21  22
ENDBRANCH  18  21
ENDBRANCH  13  15
ENDBRANCH  10  13
BRANCH   1  28
HETATM   28  N1  UNL     1      20.837  50.661   9.012  1.00  0.00    -0.324 N 
HETATM   29  C3  UNL     1      21.118  50.211  10.282  1.00  0.00     0.244 C 
HETATM   30  O1  UNL     1      20.644  49.234  10.848  1.00  0.00    -0.268 OA
HETATM   31  H4  UNL     1      21.284  51.523   8.726  1.00  0.00     0.169 HD
BRANCH  29  32
HETATM   32  C2  UNL     1      22.077  51.067  11.036  1.00  0.00     0.064 C 
HETATM   33  C1  UNL     1      21.738  51.998  11.938  1.00  0.00     0.017 C 
ENDBRANCH  29  32
ENDBRANCH   1  28
TORSDOF 6
ENDMDL
MODEL 5
REMARK minimizedAffinity -6.15982437
REMARK CNNscore 0.636001229
REMARK CNNaffinity 5.75832605
REMARK  6 active torsions:
REMARK  status: ('A' for Active; 'I' for Inactive)
REMARK    1  A    between atoms: C2_2  and  C3_3 
REMARK       I    between atoms: C3_3  and  N1_5 
REMARK    2  A    between atoms: N1_5  and  C4_6 
REMARK    3  A    between atoms: C9_15  and  N4_16 
REMARK    4  A    between atoms: N4_16  and  C10_17 
REMARK    5  A    between atoms: C13_20  and  O2_21 
REMARK    6  A    between atoms: O2_21  and  C14_22 
ROOT
HETATM    1  C4  UNL     1      12.728  65.825   5.557  1.00  0.00     0.036 A 
HETATM    2  C5  UNL     1      13.686  66.793   5.263  1.00  0.00     0.032 A 
HETATM    3  C6  UNL     1      14.584  66.600   4.208  1.00  0.00     0.033 A 
HETATM    4  C7  UNL     1      14.561  65.456   3.424  1.00  0.00     0.047 A 
HETATM    5  N2  UNL     1      15.452  65.347   2.436  1.00  0.00    -0.352 N 
ATOM      6  H2  UNL     1      16.144  66.074   2.254  1.00  0.00     0.166 HD
HETATM    7  C8  UNL     1      15.390  64.235   1.696  1.00  0.00     0.182 A 
HETATM    8  N3  UNL     1      14.531  63.227   1.858  1.00  0.00    -0.338 N 
ATOM      9  H3  UNL     1      14.547  62.410   1.247  1.00  0.00     0.168 HD
HETATM   10  C9  UNL     1      13.642  63.336   2.864  1.00  0.00     0.119 A 
HETATM   11  C22 UNL     1      13.605  64.472   3.702  1.00  0.00     0.037 A 
HETATM   12  C23 UNL     1      12.687  64.675   4.770  1.00  0.00     0.047 A 
ENDROOT
BRANCH  10  13
HETATM   13  N4  UNL     1      12.709  62.288   3.088  1.00  0.00    -0.342 N 
HETATM   14  H8  UNL     1      12.139  62.509   3.898  1.00  0.00     0.167 HD
BRANCH  13  15
HETATM   15  C10 UNL     1      12.874  60.894   2.934  1.00  0.00     0.033 A 
HETATM   16  C11 UNL     1      12.873  60.353   1.638  1.00  0.00     0.032 A 
HETATM   17  C12 UNL     1      13.088  58.988   1.423  1.00  0.00     0.039 A 
HETATM   18  C13 UNL     1      13.319  58.144   2.504  1.00  0.00     0.076 A 
HETATM   19  C20 UNL     1      13.385  58.670   3.793  1.00  0.00     0.039 A 
HETATM   20  C21 UNL     1      13.169  60.037   4.001  1.00  0.00     0.032 A 
BRANCH  18  21
HETATM   21  O2  UNL     1      13.556  56.817   2.225  1.00  0.00    -0.311 OA
BRANCH  21  22
HETATM   22  C14 UNL     1      14.266  56.091   3.155  1.00  0.00     0.076 A 
HETATM   23  C15 UNL     1      15.656  56.137   3.065  1.00  0.00     0.037 A 
HETATM   24  C16 UNL     1      16.437  55.396   3.954  1.00  0.00     0.003 A 
HETATM   25  C17 UNL     1      15.824  54.600   4.921  1.00  0.00     0.000 A 
HETATM   26  C18 UNL     1      14.432  54.537   4.997  1.00  0.00     0.003 A 
HETATM   27  C19 UNL     1      13.650  55.276   4.109  1.00  0.00     0.037 A 
ENDBRANCH  21  22
ENDBRANCH  18  21
ENDBRANCH  13  15
ENDBRANCH  10  13
BRANCH   1  28
HETATM   28  N1  UNL     1      11.862  66.076   6.640  1.00  0.00    -0.324 N 
HETATM   29  C3  UNL     1      11.417  67.299   7.088  1.00  0.00     0.244 C 
HETATM   30  O1  UNL     1      11.714  68.405   6.656  1.00  0.00    -0.268 OA
HETATM   31  H4  UNL     1      11.553  65.263   7.155  1.00  0.00     0.169 HD
BRANCH  29  32
HETATM   32  C2  UNL     1      10.507  67.223   8.267  1.00  0.00     0.064 C 
HETATM   33  C1  UNL     1       9.693  68.203   8.680  1.00  0.00     0.017 C 
ENDBRANCH  29  32
ENDBRANCH   1  28
TORSDOF 6
ENDMDL
MODEL 6
REMARK minimizedAffinity -6.13855314
REMARK CNNscore 0.619921565
REMARK CNNaffinity 5.81082201
REMARK  6 active torsions:
REMARK  status: ('A' for Active; 'I' for Inactive)
REMARK    1  A    between atoms: C2_2  and  C3_3 
REMARK       I    between atoms: C3_3  and  N1_5 
REMARK    2  A    between atoms: N1_5  and  C4_6 
REMARK    3  A    between atoms: C9_15  and  N4_16 
REMARK    4  A    between atoms: N4_16  and  C10_17 
REMARK    5  A    between atoms: C13_20  and  O2_21 
REMARK    6  A    between atoms: O2_21  and  C14_22 
ROOT
HETATM    1  C4  UNL     1      12.168  55.075  -1.642  1.00  0.00     0.036 A 
HETATM    2  C5  UNL     1      11.320  55.915  -2.361  1.00  0.00     0.032 A 
HETATM    3  C6  UNL     1      11.368  57.300  -2.169  1.00  0.00     0.033 A 
HETATM    4  C7  UNL     1      12.246  57.887  -1.270  1.00  0.00     0.047 A 
HETATM    5  N2  UNL     1      12.230  59.215  -1.144  1.00  0.00    -0.352 N 
ATOM      6  H2  UNL     1      11.589  59.797  -1.683  1.00  0.00     0.166 HD
HETATM    7  C8  UNL     1      13.098  59.743  -0.276  1.00  0.00     0.182 A 
HETATM    8  N3  UNL     1      13.968  59.068   0.478  1.00  0.00    -0.338 N 
ATOM      9  H3  UNL     1      14.602  59.548   1.118  1.00  0.00     0.168 HD
HETATM   10  C9  UNL     1      13.972  57.727   0.357  1.00  0.00     0.119 A 
HETATM   11  C22 UNL     1      13.109  57.060  -0.538  1.00  0.00     0.037 A 
HETATM   12  C23 UNL     1      13.064  55.652  -0.742  1.00  0.00     0.047 A 
ENDROOT
BRANCH  10  13
HETATM   13  N4  UNL     1      14.872  56.957   1.143  1.00  0.00    -0.342 N 
HETATM   14  H8  UNL     1      15.081  56.088   0.664  1.00  0.00     0.167 HD
BRANCH  13  15
HETATM   15  C10 UNL     1      14.931  56.805   2.546  1.00  0.00     0.033 A 
HETATM   16  C11 UNL     1      15.830  57.601   3.274  1.00  0.00     0.032 A 
HETATM   17  C12 UNL     1      15.891  57.533   4.670  1.00  0.00     0.039 A 
HETATM   18  C13 UNL     1      15.043  56.672   5.359  1.00  0.00     0.076 A 
HETATM   19  C20 UNL     1      14.101  55.918   4.661  1.00  0.00     0.039 A 
HETATM   20  C21 UNL     1      14.046  55.992   3.264  1.00  0.00     0.032 A 
BRANCH  18  21
HETATM   21  O2  UNL     1      15.128  56.674   6.733  1.00  0.00    -0.311 OA
BRANCH  21  22
HETATM   22  C14 UNL     1      14.874  57.862   7.382  1.00  0.00     0.076 A 
HETATM   23  C15 UNL     1      15.817  58.283   8.319  1.00  0.00     0.037 A 
HETATM   24  C16 UNL     1      15.606  59.460   9.039  1.00  0.00     0.003 A 
HETATM   25  C17 UNL     1      14.444  60.204   8.830  1.00  0.00     0.000 A 
HETATM   26  C18 UNL     1      13.491  59.770   7.908  1.00  0.00     0.003 A 
HETATM   27  C19 UNL     1      13.700  58.594   7.188  1.00  0.00     0.037 A 
ENDBRANCH  21  22
ENDBRANCH  18  21
ENDBRANCH  13  15
ENDBRANCH  10  13
BRANCH   1  28
HETATM   28  N1  UNL     1      12.061  53.689  -1.874  1.00  0.00    -0.324 N 
HETATM   29  C3  UNL     1      13.078  52.810  -2.168  1.00  0.00     0.244 C 
HETATM   30  O1  UNL     1      14.266  53.066  -2.319  1.00  0.00    -0.268 OA
HETATM   31  H4  UNL     1      11.125  53.308  -1.840  1.00  0.00     0.169 HD
BRANCH  29  32
HETATM   32  C2  UNL     1      12.630  51.401  -2.363  1.00  0.00     0.064 C 
HETATM   33  C1  UNL     1      13.318  50.313  -1.994  1.00  0.00     0.017 C 
ENDBRANCH  29  32
ENDBRANCH   1  28
TORSDOF 6
ENDMDL
MODEL 7
REMARK minimizedAffinity -7.29321146
REMARK CNNscore 0.603319049
REMARK CNNaffinity 5.14185572
REMARK  6 active torsions:
REMARK  status: ('A' for Active; 'I' for Inactive)
REMARK    1  A    between atoms: C2_2  and  C3_3 
REMARK       I    between atoms: C3_3  and  N1_5 
REMARK    2  A    between atoms: N1_5  and  C4_6 
REMARK    3  A    between atoms: C9_15  and  N4_16 
REMARK    4  A    between atoms: N4_16  and  C10_17 
REMARK    5  A    between atoms: C13_20  and  O2_21 
REMARK    6  A    between atoms: O2_21  and  C14_22 
ROOT
HETATM    1  C4  UNL     1      17.365  48.050   4.833  1.00  0.00     0.036 A 
HETATM    2  C5  UNL     1      18.046  47.411   5.866  1.00  0.00     0.032 A 
HETATM    3  C6  UNL     1      18.679  48.158   6.865  1.00  0.00     0.033 A 
HETATM    4  C7  UNL     1      18.658  49.545   6.869  1.00  0.00     0.047 A 
HETATM    5  N2  UNL     1      19.286  50.186   7.857  1.00  0.00    -0.352 N 
ATOM      6  H2  UNL     1      19.780  49.683   8.593  1.00  0.00     0.166 HD
HETATM    7  C8  UNL     1      19.233  51.521   7.831  1.00  0.00     0.182 A 
HETATM    8  N3  UNL     1      18.621  52.268   6.910  1.00  0.00    -0.338 N 
ATOM      9  H3  UNL     1      18.624  53.287   6.963  1.00  0.00     0.168 HD
HETATM   10  C9  UNL     1      17.999  51.618   5.909  1.00  0.00     0.119 A 
HETATM   11  C22 UNL     1      17.977  50.208   5.840  1.00  0.00     0.037 A 
HETATM   12  C23 UNL     1      17.327  49.445   4.830  1.00  0.00     0.047 A 
ENDROOT
BRANCH  10  13
HETATM   13  N4  UNL     1      17.338  52.364   4.895  1.00  0.00    -0.342 N 
HETATM   14  H8  UNL     1      17.952  52.464   4.094  1.00  0.00     0.167 HD
BRANCH  13  15
HETATM   15  C10 UNL     1      16.464  53.465   5.020  1.00  0.00     0.033 A 
HETATM   16  C11 UNL     1      16.984  54.761   4.874  1.00  0.00     0.032 A 
HETATM   17  C12 UNL     1      16.154  55.886   4.932  1.00  0.00     0.039 A 
HETATM   18  C13 UNL     1      14.786  55.728   5.128  1.00  0.00     0.076 A 
HETATM   19  C20 UNL     1      14.240  54.449   5.214  1.00  0.00     0.039 A 
HETATM   20  C21 UNL     1      15.076  53.328   5.155  1.00  0.00     0.032 A 
BRANCH  18  21
HETATM   21  O2  UNL     1      14.019  56.871   5.143  1.00  0.00    -0.311 OA
BRANCH  21  22
HETATM   22  C14 UNL     1      13.776  57.487   3.935  1.00  0.00     0.076 A 
HETATM   23  C15 UNL     1      13.582  58.868   3.960  1.00  0.00     0.037 A 
HETATM   24  C16 UNL     1      13.297  59.552   2.777  1.00  0.00     0.003 A 
HETATM   25  C17 UNL     1      13.192  58.851   1.575  1.00  0.00     0.000 A 
HETATM   26  C18 UNL     1      13.365  57.466   1.556  1.00  0.00     0.003 A 
HETATM   27  C19 UNL     1      13.649  56.780   2.737  1.00  0.00     0.037 A 
ENDBRANCH  21  22
ENDBRANCH  18  21
ENDBRANCH  13  15
ENDBRANCH  10  13
BRANCH   1  28
HETATM   28  N1  UNL     1      16.760  47.239   3.853  1.00  0.00    -0.324 N 
HETATM   29  C3  UNL     1      15.570  46.554   3.953  1.00  0.00     0.244 C 
HETATM   30  O1  UNL     1      14.826  46.490   4.923  1.00  0.00    -0.268 OA
HETATM   31  H4  UNL     1      17.273  47.135   2.988  1.00  0.00     0.169 HD
BRANCH  29  32
HETATM   32  C2  UNL     1      15.208  45.778   2.733  1.00  0.00     0.064 C 
HETATM   33  C1  UNL     1      15.217  46.256   1.481  1.00  0.00     0.017 C 
ENDBRANCH  29  32
ENDBRANCH   1  28
TORSDOF 6
ENDMDL
MODEL 8
REMARK minimizedAffinity -6.85129595
REMARK CNNscore 0.599601388
REMARK CNNaffinity 5.41599464
REMARK  6 active torsions:
REMARK  status: ('A' for Active; 'I' for Inactive)
REMARK    1  A    between atoms: C2_2  and  C3_3 
REMARK       I    between atoms: C3_3  and  N1_5 
REMARK    2  A    between atoms: N1_5  and  C4_6 
REMARK    3  A    between atoms: C9_15  and  N4_16 
REMARK    4  A    between atoms: N4_16  and  C10_17 
REMARK    5  A    between atoms: C13_20  and  O2_21 
REMARK    6  A    between atoms: O2_21  and  C14_22 
ROOT
HETATM    1  C4  UNL     1       9.047  59.294  -5.947  1.00  0.00     0.036 A 
HETATM    2  C5  UNL     1       9.042  58.853  -7.269  1.00  0.00     0.032 A 
HETATM    3  C6  UNL     1       9.330  57.518  -7.570  1.00  0.00     0.033 A 
HETATM    4  C7  UNL     1       9.630  56.591  -6.583  1.00  0.00     0.047 A 
HETATM    5  N2  UNL     1       9.894  55.336  -6.951  1.00  0.00    -0.352 N 
ATOM      6  H2  UNL     1       9.887  55.052  -7.931  1.00  0.00     0.166 HD
HETATM    7  C8  UNL     1      10.167  54.471  -5.970  1.00  0.00     0.182 A 
HETATM    8  N3  UNL     1      10.209  54.746  -4.665  1.00  0.00    -0.338 N 
ATOM      9  H3  UNL     1      10.424  54.025  -3.976  1.00  0.00     0.168 HD
HETATM   10  C9  UNL     1       9.954  56.016  -4.299  1.00  0.00     0.119 A 
HETATM   11  C22 UNL     1       9.639  57.013  -5.247  1.00  0.00     0.037 A 
HETATM   12  C23 UNL     1       9.337  58.370  -4.943  1.00  0.00     0.047 A 
ENDROOT
BRANCH  10  13
HETATM   13  N4  UNL     1       9.993  56.367  -2.922  1.00  0.00    -0.342 N 
HETATM   14  H8  UNL     1       9.209  56.974  -2.705  1.00  0.00     0.167 HD
BRANCH  13  15
HETATM   15  C10 UNL     1      11.107  56.643  -2.100  1.00  0.00     0.033 A 
HETATM   16  C11 UNL     1      11.539  57.974  -1.972  1.00  0.00     0.032 A 
HETATM   17  C12 UNL     1      12.601  58.312  -1.127  1.00  0.00     0.039 A 
HETATM   18  C13 UNL     1      13.243  57.322  -0.389  1.00  0.00     0.076 A 
HETATM   19  C20 UNL     1      12.792  56.005  -0.456  1.00  0.00     0.039 A 
HETATM   20  C21 UNL     1      11.728  55.674  -1.303  1.00  0.00     0.032 A 
BRANCH  18  21
HETATM   21  O2  UNL     1      14.259  57.723   0.448  1.00  0.00    -0.311 OA
BRANCH  21  22
HETATM   22  C14 UNL     1      14.275  57.199   1.721  1.00  0.00     0.076 A 
HETATM   23  C15 UNL     1      13.327  57.691   2.618  1.00  0.00     0.037 A 
HETATM   24  C16 UNL     1      13.309  57.230   3.935  1.00  0.00     0.003 A 
HETATM   25  C17 UNL     1      14.249  56.288   4.356  1.00  0.00     0.000 A 
HETATM   26  C18 UNL     1      15.210  55.813   3.464  1.00  0.00     0.003 A 
HETATM   27  C19 UNL     1      15.231  56.273   2.147  1.00  0.00     0.037 A 
ENDBRANCH  21  22
ENDBRANCH  18  21
ENDBRANCH  13  15
ENDBRANCH  10  13
BRANCH   1  28
HETATM   28  N1  UNL     1       8.760  60.653  -5.713  1.00  0.00    -0.324 N 
HETATM   29  C3  UNL     1       7.591  61.322  -5.998  1.00  0.00     0.244 C 
HETATM   30  O1  UNL     1       6.589  60.874  -6.540  1.00  0.00    -0.268 OA
HETATM   31  H4  UNL     1       9.510  61.199  -5.310  1.00  0.00     0.169 HD
BRANCH  29  32
HETATM   32  C2  UNL     1       7.609  62.767  -5.630  1.00  0.00     0.064 C 
HETATM   33  C1  UNL     1       6.652  63.400  -4.939  1.00  0.00     0.017 C 
ENDBRANCH  29  32
ENDBRANCH   1  28
TORSDOF 6
ENDMDL
MODEL 9
REMARK minimizedAffinity -7.11683655
REMARK CNNscore 0.596608758
REMARK CNNaffinity 4.85149527
REMARK  6 active torsions:
REMARK  status: ('A' for Active; 'I' for Inactive)
REMARK    1  A    between atoms: C2_2  and  C3_3 
REMARK       I    between atoms: C3_3  and  N1_5 
REMARK    2  A    between atoms: N1_5  and  C4_6 
REMARK    3  A    between atoms: C9_15  and  N4_16 
REMARK    4  A    between atoms: N4_16  and  C10_17 
REMARK    5  A    between atoms: C13_20  and  O2_21 
REMARK    6  A    between atoms: O2_21  and  C14_22 
ROOT
HETATM    1  C4  UNL     1      17.805  48.020   4.359  1.00  0.00     0.036 A 
HETATM    2  C5  UNL     1      19.035  47.664   4.908  1.00  0.00     0.032 A 
HETATM    3  C6  UNL     1      19.698  48.534   5.780  1.00  0.00     0.033 A 
HETATM    4  C7  UNL     1      19.170  49.768   6.129  1.00  0.00     0.047 A 
HETATM    5  N2  UNL     1      19.864  50.540   6.967  1.00  0.00    -0.352 N 
ATOM      6  H2  UNL     1      20.765  50.249   7.343  1.00  0.00     0.166 HD
HETATM    7  C8  UNL     1      19.316  51.717   7.287  1.00  0.00     0.182 A 
HETATM    8  N3  UNL     1      18.150  52.191   6.843  1.00  0.00    -0.338 N 
ATOM      9  H3  UNL     1      17.799  53.102   7.138  1.00  0.00     0.168 HD
HETATM   10  C9  UNL     1      17.459  51.413   5.989  1.00  0.00     0.119 A 
HETATM   11  C22 UNL     1      17.933  50.145   5.590  1.00  0.00     0.037 A 
HETATM   12  C23 UNL     1      17.257  49.254   4.709  1.00  0.00     0.047 A 
ENDROOT
BRANCH  10  13
HETATM   13  N4  UNL     1      16.215  51.872   5.477  1.00  0.00    -0.342 N 
HETATM   14  H8  UNL     1      15.852  51.196   4.813  1.00  0.00     0.167 HD
BRANCH  13  15
HETATM   15  C10 UNL     1      15.809  53.185   5.155  1.00  0.00     0.033 A 
HETATM   16  C11 UNL     1      16.766  54.087   4.662  1.00  0.00     0.032 A 
HETATM   17  C12 UNL     1      16.409  55.383   4.275  1.00  0.00     0.039 A 
HETATM   18  C13 UNL     1      15.082  55.793   4.366  1.00  0.00     0.076 A 
HETATM   19  C20 UNL     1      14.106  54.894   4.795  1.00  0.00     0.039 A 
HETATM   20  C21 UNL     1      14.471  53.599   5.181  1.00  0.00     0.032 A 
BRANCH  18  21
HETATM   21  O2  UNL     1      14.789  57.067   3.939  1.00  0.00    -0.311 OA
BRANCH  21  22
HETATM   22  C14 UNL     1      14.215  57.925   4.851  1.00  0.00     0.076 A 
HETATM   23  C15 UNL     1      13.355  58.899   4.345  1.00  0.00     0.037 A 
HETATM   24  C16 UNL     1      12.766  59.824   5.209  1.00  0.00     0.003 A 
HETATM   25  C17 UNL     1      13.050  59.781   6.574  1.00  0.00     0.000 A 
HETATM   26  C18 UNL     1      13.928  58.819   7.076  1.00  0.00     0.003 A 
HETATM   27  C19 UNL     1      14.519  57.894   6.214  1.00  0.00     0.037 A 
ENDBRANCH  21  22
ENDBRANCH  18  21
ENDBRANCH  13  15
ENDBRANCH  10  13
BRANCH   1  28
HETATM   28  N1  UNL     1      17.196  47.104   3.479  1.00  0.00    -0.324 N 
HETATM   29  C3  UNL     1      15.987  46.467   3.641  1.00  0.00     0.244 C 
HETATM   30  O1  UNL     1      15.224  46.546   4.595  1.00  0.00    -0.268 OA
HETATM   31  H4  UNL     1      17.722  46.877   2.646  1.00  0.00     0.169 HD
BRANCH  29  32
HETATM   32  C2  UNL     1      15.626  45.548   2.523  1.00  0.00     0.064 C 
HETATM   33  C1  UNL     1      16.412  44.579   2.035  1.00  0.00     0.017 C 
ENDBRANCH  29  32
ENDBRANCH   1  28
TORSDOF 6
ENDMDL
