MODEL 1
REMARK minimizedAffinity -10.0780706
REMARK  3 active torsions:
REMARK  status: ('A' for Active; 'I' for Inactive)
REMARK    1  A    between atoms: C3_5  and  C4_6 
REMARK    2  A    between atoms: C13_19  and  N3_20 
REMARK    3  A    between atoms: N3_20  and  C14_21 
ROOT
HETATM    1  C1  UNL     1       5.452  -3.640  30.541  1.00  0.00     0.161 C 
HETATM    2  N1  UNL     1       6.739  -4.269  30.780  1.00  0.00    -0.303 N 
HETATM    3  C2  UNL     1       7.631  -3.698  31.674  1.00  0.00     0.260 A 
HETATM    4  O1  UNL     1       7.402  -2.664  32.300  1.00  0.00    -0.267 OA
HETATM    5  C3  UNL     1       8.944  -4.401  31.875  1.00  0.00     0.047 A 
HETATM    6  C10 UNL     1       9.225  -5.531  31.207  1.00  0.00     0.034 A 
HETATM    7  C11 UNL     1       8.247  -6.079  30.284  1.00  0.00     0.026 A 
HETATM    8  C12 UNL     1       8.452  -7.230  29.560  1.00  0.00     0.121 A 
HETATM    9  N2  UNL     1       7.549  -7.741  28.703  1.00  0.00    -0.201 N 
ATOM     10  H2  UNL     1       7.738  -8.599  28.184  1.00  0.00     0.183 HD
HETATM   11  C13 UNL     1       6.393  -7.082  28.557  1.00  0.00     0.684 A 
HETATM   12  N5  UNL     1       6.103  -5.951  29.218  1.00  0.00    -0.175 N 
ATOM     13  H5  UNL     1       5.212  -5.475  29.082  1.00  0.00     0.186 HD
HETATM   14  C19 UNL     1       7.029  -5.464  30.072  1.00  0.00     0.137 A 
ENDROOT
BRANCH  11  15
HETATM   15  N3  UNL     1       5.399  -7.532  27.694  1.00  0.00    -0.190 N 
HETATM   16  H9  UNL     1       5.822  -7.874  26.845  1.00  0.00     0.184 HD
BRANCH  15  17
HETATM   17  C14 UNL     1       4.007  -7.591  27.787  1.00  0.00     0.064 A 
HETATM   18  C15 UNL     1       3.345  -8.750  27.361  1.00  0.00     0.033 A 
HETATM   19  C16 UNL     1       1.956  -8.849  27.436  1.00  0.00     0.019 A 
HETATM   20  C17 UNL     1       1.250  -7.775  27.944  1.00  0.00     0.088 A 
HETATM   21  N4  UNL     1       1.833  -6.637  28.369  1.00  0.00    -0.373 N 
HETATM   22  C18 UNL     1       3.190  -6.575  28.280  1.00  0.00     0.117 A 
ATOM     23  H4  UNL     1       1.286  -5.860  28.738  1.00  0.00     0.164 HD
ENDBRANCH  15  17
ENDBRANCH  11  15
BRANCH   5  24
HETATM   24  C4  UNL     1       9.934  -3.839  32.815  1.00  0.00     0.023 A 
HETATM   25  C5  UNL     1      10.946  -2.972  32.366  1.00  0.00     0.046 A 
HETATM   26 CL1  UNL     1      11.069  -2.492  30.707  1.00  0.00    -0.083 Cl
HETATM   27  C6  UNL     1      11.893  -2.453  33.257  1.00  0.00     0.025 A 
HETATM   28  C7  UNL     1      11.845  -2.792  34.607  1.00  0.00     0.003 A 
HETATM   29  C8  UNL     1      10.849  -3.649  35.069  1.00  0.00     0.025 A 
HETATM   30  C9  UNL     1       9.901  -4.171  34.182  1.00  0.00     0.046 A 
HETATM   31 CL2  UNL     1       8.690  -5.221  34.840  1.00  0.00    -0.083 Cl
ENDBRANCH   5  24
TORSDOF 3
ENDMDL
MODEL 2
REMARK minimizedAffinity -9.99510002
REMARK  3 active torsions:
REMARK  status: ('A' for Active; 'I' for Inactive)
REMARK    1  A    between atoms: C3_5  and  C4_6 
REMARK    2  A    between atoms: C13_19  and  N3_20 
REMARK    3  A    between atoms: N3_20  and  C14_21 
ROOT
HETATM    1  C1  UNL     1       8.298  -7.046  29.516  1.00  0.00     0.161 C 
HETATM    2  N1  UNL     1       8.111  -5.865  30.343  1.00  0.00    -0.303 N 
HETATM    3  C2  UNL     1       9.125  -5.448  31.190  1.00  0.00     0.260 A 
HETATM    4  O1  UNL     1      10.207  -6.024  31.294  1.00  0.00    -0.267 OA
HETATM    5  C3  UNL     1       8.864  -4.220  32.016  1.00  0.00     0.047 A 
HETATM    6  C10 UNL     1       7.693  -3.569  31.926  1.00  0.00     0.034 A 
HETATM    7  C11 UNL     1       6.671  -4.059  31.018  1.00  0.00     0.026 A 
HETATM    8  C12 UNL     1       5.445  -3.455  30.863  1.00  0.00     0.121 A 
HETATM    9  N2  UNL     1       4.494  -3.905  30.023  1.00  0.00    -0.201 N 
ATOM     10  H2  UNL     1       3.597  -3.428  29.936  1.00  0.00     0.183 HD
HETATM   11  C13 UNL     1       4.771  -5.002  29.307  1.00  0.00     0.684 A 
HETATM   12  N5  UNL     1       5.937  -5.659  29.391  1.00  0.00    -0.175 N 
ATOM     13  H5  UNL     1       6.113  -6.492  28.830  1.00  0.00     0.186 HD
HETATM   14  C19 UNL     1       6.871  -5.183  30.242  1.00  0.00     0.137 A 
ENDROOT
BRANCH  11  15
HETATM   15  N3  UNL     1       3.852  -5.542  28.413  1.00  0.00    -0.190 N 
HETATM   16  H9  UNL     1       3.351  -4.795  27.954  1.00  0.00     0.184 HD
BRANCH  15  17
HETATM   17  C14 UNL     1       3.517  -6.851  28.060  1.00  0.00     0.064 A 
HETATM   18  C15 UNL     1       2.168  -7.228  28.043  1.00  0.00     0.033 A 
HETATM   19  C16 UNL     1       1.792  -8.525  27.696  1.00  0.00     0.019 A 
HETATM   20  C17 UNL     1       2.786  -9.429  27.367  1.00  0.00     0.088 A 
HETATM   21  N4  UNL     1       4.097  -9.121  27.367  1.00  0.00    -0.373 N 
HETATM   22  C18 UNL     1       4.428  -7.847  27.711  1.00  0.00     0.117 A 
ATOM     23  H4  UNL     1       4.809  -9.810  27.120  1.00  0.00     0.164 HD
ENDBRANCH  15  17
ENDBRANCH  11  15
BRANCH   5  24
HETATM   24  C4  UNL     1       9.908  -3.727  32.936  1.00  0.00     0.023 A 
HETATM   25  C5  UNL     1      10.939  -2.888  32.477  1.00  0.00     0.046 A 
HETATM   26 CL1  UNL     1      11.024  -2.363  30.828  1.00  0.00    -0.083 Cl
HETATM   27  C6  UNL     1      11.936  -2.435  33.347  1.00  0.00     0.025 A 
HETATM   28  C7  UNL     1      11.921  -2.812  34.688  1.00  0.00     0.003 A 
HETATM   29  C8  UNL     1      10.908  -3.642  35.161  1.00  0.00     0.025 A 
HETATM   30  C9  UNL     1       9.908  -4.099  34.294  1.00  0.00     0.046 A 
HETATM   31 CL2  UNL     1       8.679  -5.119  34.964  1.00  0.00    -0.083 Cl
ENDBRANCH   5  24
TORSDOF 3
ENDMDL
MODEL 3
REMARK minimizedAffinity -9.93860817
REMARK  3 active torsions:
REMARK  status: ('A' for Active; 'I' for Inactive)
REMARK    1  A    between atoms: C3_5  and  C4_6 
REMARK    2  A    between atoms: C13_19  and  N3_20 
REMARK    3  A    between atoms: N3_20  and  C14_21 
ROOT
HETATM    1  C1  UNL     1       8.255  -7.194  29.465  1.00  0.00     0.161 C 
HETATM    2  N1  UNL     1       8.059  -5.999  30.268  1.00  0.00    -0.303 N 
HETATM    3  C2  UNL     1       9.074  -5.551  31.099  1.00  0.00     0.260 A 
HETATM    4  O1  UNL     1      10.164  -6.110  31.206  1.00  0.00    -0.267 OA
HETATM    5  C3  UNL     1       8.804  -4.309  31.901  1.00  0.00     0.047 A 
HETATM    6  C10 UNL     1       7.624  -3.676  31.807  1.00  0.00     0.034 A 
HETATM    7  C11 UNL     1       6.601  -4.197  30.918  1.00  0.00     0.026 A 
HETATM    8  C12 UNL     1       5.366  -3.612  30.760  1.00  0.00     0.121 A 
HETATM    9  N2  UNL     1       4.415  -4.092  29.938  1.00  0.00    -0.201 N 
ATOM     10  H2  UNL     1       3.511  -3.629  29.848  1.00  0.00     0.183 HD
HETATM   11  C13 UNL     1       4.700  -5.200  29.242  1.00  0.00     0.684 A 
HETATM   12  N5  UNL     1       5.875  -5.840  29.330  1.00  0.00    -0.175 N 
ATOM     13  H5  UNL     1       6.057  -6.683  28.786  1.00  0.00     0.186 HD
HETATM   14  C19 UNL     1       6.810  -5.335  30.163  1.00  0.00     0.137 A 
ENDROOT
BRANCH  11  15
HETATM   15  N3  UNL     1       3.781  -5.770  28.368  1.00  0.00    -0.190 N 
HETATM   16  H9  UNL     1       3.198  -5.047  27.975  1.00  0.00     0.184 HD
BRANCH  15  17
HETATM   17  C14 UNL     1       3.535  -7.084  27.962  1.00  0.00     0.064 A 
HETATM   18  C15 UNL     1       2.218  -7.560  27.960  1.00  0.00     0.033 A 
HETATM   19  C16 UNL     1       1.930  -8.866  27.562  1.00  0.00     0.019 A 
HETATM   20  C17 UNL     1       2.978  -9.676  27.167  1.00  0.00     0.088 A 
HETATM   21  N4  UNL     1       4.263  -9.270  27.149  1.00  0.00    -0.373 N 
HETATM   22  C18 UNL     1       4.507  -7.991  27.544  1.00  0.00     0.117 A 
ATOM     23  H4  UNL     1       5.017  -9.892  26.853  1.00  0.00     0.164 HD
ENDBRANCH  15  17
ENDBRANCH  11  15
BRANCH   5  24
HETATM   24  C4  UNL     1       9.848  -3.784  32.802  1.00  0.00     0.023 A 
HETATM   25  C5  UNL     1       9.890  -4.161  34.157  1.00  0.00     0.046 A 
HETATM   26 CL1  UNL     1       8.750  -5.277  34.831  1.00  0.00    -0.083 Cl
HETATM   27  C6  UNL     1      10.872  -3.650  35.014  1.00  0.00     0.025 A 
HETATM   28  C7  UNL     1      11.824  -2.755  34.533  1.00  0.00     0.003 A 
HETATM   29  C8  UNL     1      11.799  -2.371  33.194  1.00  0.00     0.025 A 
HETATM   30  C9  UNL     1      10.818  -2.879  32.334  1.00  0.00     0.046 A 
HETATM   31 CL2  UNL     1      10.863  -2.359  30.683  1.00  0.00    -0.083 Cl
ENDBRANCH   5  24
TORSDOF 3
ENDMDL
MODEL 4
REMARK minimizedAffinity -9.77634907
REMARK  3 active torsions:
REMARK  status: ('A' for Active; 'I' for Inactive)
REMARK    1  A    between atoms: C3_5  and  C4_6 
REMARK    2  A    between atoms: C13_19  and  N3_20 
REMARK    3  A    between atoms: N3_20  and  C14_21 
ROOT
HETATM    1  C1  UNL     1       5.348  -3.470  30.571  1.00  0.00     0.161 C 
HETATM    2  N1  UNL     1       6.618  -4.147  30.769  1.00  0.00    -0.303 N 
HETATM    3  C2  UNL     1       7.554  -3.617  31.644  1.00  0.00     0.260 A 
HETATM    4  O1  UNL     1       7.378  -2.582  32.285  1.00  0.00    -0.267 OA
HETATM    5  C3  UNL     1       8.846  -4.367  31.800  1.00  0.00     0.047 A 
HETATM    6  C10 UNL     1       9.068  -5.500  31.114  1.00  0.00     0.034 A 
HETATM    7  C11 UNL     1       8.047  -6.002  30.213  1.00  0.00     0.026 A 
HETATM    8  C12 UNL     1       8.191  -7.152  29.473  1.00  0.00     0.121 A 
HETATM    9  N2  UNL     1       7.248  -7.622  28.636  1.00  0.00    -0.201 N 
ATOM     10  H2  UNL     1       7.392  -8.480  28.103  1.00  0.00     0.183 HD
HETATM   11  C13 UNL     1       6.112  -6.921  28.528  1.00  0.00     0.684 A 
HETATM   12  N5  UNL     1       5.881  -5.788  29.208  1.00  0.00    -0.175 N 
ATOM     13  H5  UNL     1       5.004  -5.280  29.101  1.00  0.00     0.186 HD
HETATM   14  C19 UNL     1       6.846  -5.343  30.040  1.00  0.00     0.137 A 
ENDROOT
BRANCH  11  15
HETATM   15  N3  UNL     1       5.080  -7.327  27.688  1.00  0.00    -0.190 N 
HETATM   16  H9  UNL     1       4.674  -6.518  27.241  1.00  0.00     0.184 HD
BRANCH  15  17
HETATM   17  C14 UNL     1       4.537  -8.574  27.374  1.00  0.00     0.064 A 
HETATM   18  C15 UNL     1       3.151  -8.755  27.460  1.00  0.00     0.033 A 
HETATM   19  C16 UNL     1       2.569  -9.985  27.155  1.00  0.00     0.019 A 
HETATM   20  C17 UNL     1       3.397 -11.021  26.763  1.00  0.00     0.088 A 
HETATM   21  N4  UNL     1       4.735 -10.904  26.663  1.00  0.00    -0.373 N 
HETATM   22  C18 UNL     1       5.268  -9.690  26.968  1.00  0.00     0.117 A 
ATOM     23  H4  UNL     1       5.321 -11.687  26.372  1.00  0.00     0.164 HD
ENDBRANCH  15  17
ENDBRANCH  11  15
BRANCH   5  24
HETATM   24  C4  UNL     1       9.880  -3.851  32.719  1.00  0.00     0.023 A 
HETATM   25  C5  UNL     1       9.888  -4.217  34.077  1.00  0.00     0.046 A 
HETATM   26 CL1  UNL     1       8.717  -5.310  34.736  1.00  0.00    -0.083 Cl
HETATM   27  C6  UNL     1      10.860  -3.715  34.950  1.00  0.00     0.025 A 
HETATM   28  C7  UNL     1      11.836  -2.838  34.482  1.00  0.00     0.003 A 
HETATM   29  C8  UNL     1      11.844  -2.465  33.140  1.00  0.00     0.025 A 
HETATM   30  C9  UNL     1      10.873  -2.965  32.264  1.00  0.00     0.046 A 
HETATM   31 CL2  UNL     1      10.960  -2.459  30.610  1.00  0.00    -0.083 Cl
ENDBRANCH   5  24
TORSDOF 3
ENDMDL
MODEL 5
REMARK minimizedAffinity -8.94325829
REMARK  3 active torsions:
REMARK  status: ('A' for Active; 'I' for Inactive)
REMARK    1  A    between atoms: C3_5  and  C4_6 
REMARK    2  A    between atoms: C13_19  and  N3_20 
REMARK    3  A    between atoms: N3_20  and  C14_21 
ROOT
HETATM    1  C1  UNL     1       9.296  -7.627  29.296  1.00  0.00     0.161 C 
HETATM    2  N1  UNL     1       8.852  -6.487  30.080  1.00  0.00    -0.303 N 
HETATM    3  C2  UNL     1       9.711  -5.905  30.999  1.00  0.00     0.260 A 
HETATM    4  O1  UNL     1      10.859  -6.297  31.203  1.00  0.00    -0.267 OA
HETATM    5  C3  UNL     1       9.187  -4.731  31.776  1.00  0.00     0.047 A 
HETATM    6  C10 UNL     1       7.938  -4.279  31.578  1.00  0.00     0.034 A 
HETATM    7  C11 UNL     1       7.088  -4.934  30.599  1.00  0.00     0.026 A 
HETATM    8  C12 UNL     1       5.799  -4.538  30.333  1.00  0.00     0.121 A 
HETATM    9  N2  UNL     1       5.007  -5.142  29.428  1.00  0.00    -0.201 N 
ATOM     10  H2  UNL     1       4.054  -4.818  29.258  1.00  0.00     0.183 HD
HETATM   11  C13 UNL     1       5.515  -6.184  28.758  1.00  0.00     0.684 A 
HETATM   12  N5  UNL     1       6.761  -6.643  28.950  1.00  0.00    -0.175 N 
ATOM     13  H5  UNL     1       7.115  -7.440  28.422  1.00  0.00     0.186 HD
HETATM   14  C19 UNL     1       7.531  -6.016  29.865  1.00  0.00     0.137 A 
ENDROOT
BRANCH  11  15
HETATM   15  N3  UNL     1       4.773  -6.872  27.804  1.00  0.00    -0.190 N 
HETATM   16  H9  UNL     1       3.899  -6.393  27.649  1.00  0.00     0.184 HD
BRANCH  15  17
HETATM   17  C14 UNL     1       5.007  -8.035  27.067  1.00  0.00     0.064 A 
HETATM   18  C15 UNL     1       4.294  -9.198  27.387  1.00  0.00     0.033 A 
HETATM   19  C16 UNL     1       4.498 -10.380  26.676  1.00  0.00     0.019 A 
HETATM   20  C17 UNL     1       5.420 -10.374  25.646  1.00  0.00     0.088 A 
HETATM   21  N4  UNL     1       6.133  -9.286  25.295  1.00  0.00    -0.373 N 
HETATM   22  C18 UNL     1       5.908  -8.150  26.010  1.00  0.00     0.117 A 
ATOM     23  H4  UNL     1       6.808  -9.311  24.530  1.00  0.00     0.164 HD
ENDBRANCH  15  17
ENDBRANCH  11  15
BRANCH   5  24
HETATM   24  C4  UNL     1      10.057  -4.069  32.769  1.00  0.00     0.023 A 
HETATM   25  C5  UNL     1       9.916  -4.334  34.143  1.00  0.00     0.046 A 
HETATM   26 CL1  UNL     1       8.749  -5.465  34.742  1.00  0.00    -0.083 Cl
HETATM   27  C6  UNL     1      10.731  -3.695  35.084  1.00  0.00     0.025 A 
HETATM   28  C7  UNL     1      11.697  -2.781  34.669  1.00  0.00     0.003 A 
HETATM   29  C8  UNL     1      11.850  -2.506  33.312  1.00  0.00     0.025 A 
HETATM   30  C9  UNL     1      11.037  -3.143  32.367  1.00  0.00     0.046 A 
HETATM   31 CL2  UNL     1      11.299  -2.754  30.700  1.00  0.00    -0.083 Cl
ENDBRANCH   5  24
TORSDOF 3
ENDMDL
MODEL 6
REMARK minimizedAffinity -8.36388016
REMARK  3 active torsions:
REMARK  status: ('A' for Active; 'I' for Inactive)
REMARK    1  A    between atoms: C3_5  and  C4_6 
REMARK    2  A    between atoms: C13_19  and  N3_20 
REMARK    3  A    between atoms: N3_20  and  C14_21 
ROOT
HETATM    1  C1  UNL     1       9.369  -5.614  27.165  1.00  0.00     0.161 C 
HETATM    2  N1  UNL     1       8.238  -6.079  27.951  1.00  0.00    -0.303 N 
HETATM    3  C2  UNL     1       7.336  -6.976  27.398  1.00  0.00     0.260 A 
HETATM    4  O1  UNL     1       7.430  -7.420  26.255  1.00  0.00    -0.267 OA
HETATM    5  C3  UNL     1       6.191  -7.415  28.266  1.00  0.00     0.047 A 
HETATM    6  C10 UNL     1       6.061  -6.948  29.518  1.00  0.00     0.034 A 
HETATM    7  C11 UNL     1       7.040  -6.010  30.037  1.00  0.00     0.026 A 
HETATM    8  C12 UNL     1       6.984  -5.483  31.305  1.00  0.00     0.121 A 
HETATM    9  N2  UNL     1       7.889  -4.613  31.791  1.00  0.00    -0.201 N 
ATOM     10  H2  UNL     1       7.813  -4.244  32.739  1.00  0.00     0.183 HD
HETATM   11  C13 UNL     1       8.893  -4.250  30.984  1.00  0.00     0.684 A 
HETATM   12  N5  UNL     1       9.031  -4.710  29.731  1.00  0.00    -0.175 N 
ATOM     13  H5  UNL     1       9.809  -4.411  29.144  1.00  0.00     0.186 HD
HETATM   14  C19 UNL     1       8.107  -5.582  29.273  1.00  0.00     0.137 A 
ENDROOT
BRANCH  11  15
HETATM   15  N3  UNL     1       9.876  -3.357  31.396  1.00  0.00    -0.190 N 
HETATM   16  H9  UNL     1      10.073  -2.707  30.650  1.00  0.00     0.184 HD
BRANCH  15  17
HETATM   17  C14 UNL     1      10.595  -3.207  32.583  1.00  0.00     0.064 A 
HETATM   18  C15 UNL     1      10.176  -3.902  33.725  1.00  0.00     0.033 A 
HETATM   19  C16 UNL     1      10.867  -3.779  34.931  1.00  0.00     0.019 A 
HETATM   20  C17 UNL     1      11.976  -2.955  34.969  1.00  0.00     0.088 A 
HETATM   21  N4  UNL     1      12.423  -2.264  33.903  1.00  0.00    -0.373 N 
HETATM   22  C18 UNL     1      11.725  -2.407  32.743  1.00  0.00     0.117 A 
ATOM     23  H4  UNL     1      13.245  -1.662  33.961  1.00  0.00     0.164 HD
ENDBRANCH  15  17
ENDBRANCH  11  15
BRANCH   5  24
HETATM   24  C4  UNL     1       5.199  -8.369  27.732  1.00  0.00     0.023 A 
HETATM   25  C5  UNL     1       5.588  -9.649  27.299  1.00  0.00     0.046 A 
HETATM   26 CL1  UNL     1       7.231 -10.187  27.397  1.00  0.00    -0.083 Cl
HETATM   27  C6  UNL     1       4.649 -10.547  26.779  1.00  0.00     0.025 A 
HETATM   28  C7  UNL     1       3.309 -10.181  26.681  1.00  0.00     0.003 A 
HETATM   29  C8  UNL     1       2.905  -8.917  27.104  1.00  0.00     0.025 A 
HETATM   30  C9  UNL     1       3.841  -8.015  27.625  1.00  0.00     0.046 A 
HETATM   31 CL2  UNL     1       3.255  -6.469  28.138  1.00  0.00    -0.083 Cl
ENDBRANCH   5  24
TORSDOF 3
ENDMDL
MODEL 7
REMARK minimizedAffinity -8.18921947
REMARK  3 active torsions:
REMARK  status: ('A' for Active; 'I' for Inactive)
REMARK    1  A    between atoms: C3_5  and  C4_6 
REMARK    2  A    between atoms: C13_19  and  N3_20 
REMARK    3  A    between atoms: N3_20  and  C14_21 
ROOT
HETATM    1  C1  UNL     1       8.264  -9.154  28.869  1.00  0.00     0.161 C 
HETATM    2  N1  UNL     1       7.997  -7.762  29.188  1.00  0.00    -0.303 N 
HETATM    3  C2  UNL     1       9.001  -6.973  29.727  1.00  0.00     0.260 A 
HETATM    4  O1  UNL     1      10.138  -7.380  29.960  1.00  0.00    -0.267 OA
HETATM    5  C3  UNL     1       8.656  -5.543  30.033  1.00  0.00     0.047 A 
HETATM    6  C10 UNL     1       7.425  -5.067  29.790  1.00  0.00     0.034 A 
HETATM    7  C11 UNL     1       6.417  -5.947  29.224  1.00  0.00     0.026 A 
HETATM    8  C12 UNL     1       5.133  -5.543  28.944  1.00  0.00     0.121 A 
HETATM    9  N2  UNL     1       4.196  -6.354  28.419  1.00  0.00    -0.201 N 
ATOM     10  H2  UNL     1       3.253  -6.017  28.225  1.00  0.00     0.183 HD
HETATM   11  C13 UNL     1       4.547  -7.620  28.162  1.00  0.00     0.684 A 
HETATM   12  N5  UNL     1       5.775  -8.105  28.402  1.00  0.00    -0.175 N 
ATOM     13  H5  UNL     1       6.007  -9.075  28.194  1.00  0.00     0.186 HD
HETATM   14  C19 UNL     1       6.693  -7.267  28.928  1.00  0.00     0.137 A 
ENDROOT
BRANCH  11  15
HETATM   15  N3  UNL     1       3.648  -8.533  27.620  1.00  0.00    -0.190 N 
HETATM   16  H9  UNL     1       3.818  -9.446  28.015  1.00  0.00     0.184 HD
BRANCH  15  17
HETATM   17  C14 UNL     1       2.616  -8.420  26.686  1.00  0.00     0.064 A 
HETATM   18  C15 UNL     1       2.828  -8.877  25.379  1.00  0.00     0.033 A 
HETATM   19  C16 UNL     1       1.824  -8.782  24.416  1.00  0.00     0.019 A 
HETATM   20  C17 UNL     1       0.613  -8.226  24.786  1.00  0.00     0.088 A 
HETATM   21  N4  UNL     1       0.355  -7.771  26.027  1.00  0.00    -0.373 N 
HETATM   22  C18 UNL     1       1.357  -7.879  26.940  1.00  0.00     0.117 A 
ATOM     23  H4  UNL     1      -0.549  -7.364  26.271  1.00  0.00     0.164 HD
ENDBRANCH  15  17
ENDBRANCH  11  15
BRANCH   5  24
HETATM   24  C4  UNL     1       9.685  -4.654  30.608  1.00  0.00     0.023 A 
HETATM   25  C5  UNL     1       9.789  -4.474  31.999  1.00  0.00     0.046 A 
HETATM   26 CL1  UNL     1       8.747  -5.301  33.109  1.00  0.00    -0.083 Cl
HETATM   27  C6  UNL     1      10.755  -3.619  32.542  1.00  0.00     0.025 A 
HETATM   28  C7  UNL     1      11.630  -2.930  31.706  1.00  0.00     0.003 A 
HETATM   29  C8  UNL     1      11.543  -3.096  30.326  1.00  0.00     0.025 A 
HETATM   30  C9  UNL     1      10.578  -3.950  29.779  1.00  0.00     0.046 A 
HETATM   31 CL2  UNL     1      10.543  -4.108  28.055  1.00  0.00    -0.083 Cl
ENDBRANCH   5  24
TORSDOF 3
ENDMDL
MODEL 8
REMARK minimizedAffinity -7.96658421
REMARK  3 active torsions:
REMARK  status: ('A' for Active; 'I' for Inactive)
REMARK    1  A    between atoms: C3_5  and  C4_6 
REMARK    2  A    between atoms: C13_19  and  N3_20 
REMARK    3  A    between atoms: N3_20  and  C14_21 
ROOT
HETATM    1  C1  UNL     1       9.550 -10.146  29.165  1.00  0.00     0.161 C 
HETATM    2  N1  UNL     1       9.557  -8.708  29.372  1.00  0.00    -0.303 N 
HETATM    3  C2  UNL     1       8.368  -7.997  29.317  1.00  0.00     0.260 A 
HETATM    4  O1  UNL     1       7.274  -8.515  29.099  1.00  0.00    -0.267 OA
HETATM    5  C3  UNL     1       8.447  -6.514  29.540  1.00  0.00     0.047 A 
HETATM    6  C10 UNL     1       9.627  -5.918  29.781  1.00  0.00     0.034 A 
HETATM    7  C11 UNL     1      10.836  -6.720  29.825  1.00  0.00     0.026 A 
HETATM    8  C12 UNL     1      12.084  -6.194  30.064  1.00  0.00     0.121 A 
HETATM    9  N2  UNL     1      13.208  -6.933  30.107  1.00  0.00    -0.201 N 
ATOM     10  H2  UNL     1      14.116  -6.505  30.288  1.00  0.00     0.183 HD
HETATM   11  C13 UNL     1      13.090  -8.250  29.903  1.00  0.00     0.684 A 
HETATM   12  N5  UNL     1      11.917  -8.854  29.661  1.00  0.00    -0.175 N 
ATOM     13  H5  UNL     1      11.864  -9.861  29.509  1.00  0.00     0.186 HD
HETATM   14  C19 UNL     1      10.807  -8.086  29.625  1.00  0.00     0.137 A 
ENDROOT
BRANCH  11  15
HETATM   15  N3  UNL     1      14.195  -9.096  29.926  1.00  0.00    -0.190 N 
HETATM   16  H9  UNL     1      14.742  -8.956  29.090  1.00  0.00     0.184 HD
BRANCH  15  17
HETATM   17  C14 UNL     1      14.653 -10.044  30.843  1.00  0.00     0.064 A 
HETATM   18  C15 UNL     1      15.981  -9.977  31.284  1.00  0.00     0.033 A 
HETATM   19  C16 UNL     1      16.479 -10.906  32.198  1.00  0.00     0.019 A 
HETATM   20  C17 UNL     1      15.627 -11.892  32.658  1.00  0.00     0.088 A 
HETATM   21  N4  UNL     1      14.342 -12.004  32.268  1.00  0.00    -0.373 N 
HETATM   22  C18 UNL     1      13.891 -11.082  31.376  1.00  0.00     0.117 A 
ATOM     23  H4  UNL     1      13.737 -12.744  32.625  1.00  0.00     0.164 HD
ENDBRANCH  15  17
ENDBRANCH  11  15
BRANCH   5  24
HETATM   24  C4  UNL     1       7.213  -5.704  29.494  1.00  0.00     0.023 A 
HETATM   25  C5  UNL     1       6.752  -5.024  30.635  1.00  0.00     0.046 A 
HETATM   26 CL1  UNL     1       7.614  -5.069  32.137  1.00  0.00    -0.083 Cl
HETATM   27  C6  UNL     1       5.574  -4.270  30.594  1.00  0.00     0.025 A 
HETATM   28  C7  UNL     1       4.838  -4.184  29.415  1.00  0.00     0.003 A 
HETATM   29  C8  UNL     1       5.279  -4.851  28.274  1.00  0.00     0.025 A 
HETATM   30  C9  UNL     1       6.457  -5.607  28.311  1.00  0.00     0.046 A 
HETATM   31 CL2  UNL     1       6.941  -6.396  26.848  1.00  0.00    -0.083 Cl
ENDBRANCH   5  24
TORSDOF 3
ENDMDL
MODEL 9
REMARK minimizedAffinity -7.90880156
REMARK  3 active torsions:
REMARK  status: ('A' for Active; 'I' for Inactive)
REMARK    1  A    between atoms: C3_5  and  C4_6 
REMARK    2  A    between atoms: C13_19  and  N3_20 
REMARK    3  A    between atoms: N3_20  and  C14_21 
ROOT
HETATM    1  C1  UNL     1       6.363  -4.903  29.705  1.00  0.00     0.161 C 
HETATM    2  N1  UNL     1       7.676  -5.278  30.200  1.00  0.00    -0.303 N 
HETATM    3  C2  UNL     1       8.229  -4.597  31.274  1.00  0.00     0.260 A 
HETATM    4  O1  UNL     1       7.667  -3.671  31.856  1.00  0.00    -0.267 OA
HETATM    5  C3  UNL     1       9.590  -5.036  31.734  1.00  0.00     0.047 A 
HETATM    6  C10 UNL     1      10.230  -6.043  31.119  1.00  0.00     0.034 A 
HETATM    7  C11 UNL     1       9.596  -6.715  29.998  1.00  0.00     0.026 A 
HETATM    8  C12 UNL     1      10.179  -7.755  29.312  1.00  0.00     0.121 A 
HETATM    9  N2  UNL     1       9.595  -8.380  28.273  1.00  0.00    -0.201 N 
ATOM     10  H2  UNL     1      10.060  -9.149  27.789  1.00  0.00     0.183 HD
HETATM   11  C13 UNL     1       8.382  -7.957  27.898  1.00  0.00     0.684 A 
HETATM   12  N5  UNL     1       7.735  -6.951  28.506  1.00  0.00    -0.175 N 
ATOM     13  H5  UNL     1       6.812  -6.654  28.192  1.00  0.00     0.186 HD
HETATM   14  C19 UNL     1       8.346  -6.343  29.545  1.00  0.00     0.137 A 
ENDROOT
BRANCH  11  15
HETATM   15  N3  UNL     1       7.700  -8.541  26.836  1.00  0.00    -0.190 N 
HETATM   16  H9  UNL     1       6.713  -8.347  26.923  1.00  0.00     0.184 HD
BRANCH  15  17
HETATM   17  C14 UNL     1       8.110  -9.300  25.738  1.00  0.00     0.064 A 
HETATM   18  C15 UNL     1       8.844  -8.681  24.718  1.00  0.00     0.033 A 
HETATM   19  C16 UNL     1       9.272  -9.404  23.605  1.00  0.00     0.019 A 
HETATM   20  C17 UNL     1       8.953 -10.747  23.535  1.00  0.00     0.088 A 
HETATM   21  N4  UNL     1       8.250 -11.393  24.485  1.00  0.00    -0.373 N 
HETATM   22  C18 UNL     1       7.849 -10.657  25.557  1.00  0.00     0.117 A 
ATOM     23  H4  UNL     1       8.028 -12.386  24.405  1.00  0.00     0.164 HD
ENDBRANCH  15  17
ENDBRANCH  11  15
BRANCH   5  24
HETATM   24  C4  UNL     1      10.229  -4.349  32.874  1.00  0.00     0.023 A 
HETATM   25  C5  UNL     1      11.280  -3.437  32.671  1.00  0.00     0.046 A 
HETATM   26 CL1  UNL     1      11.859  -3.046  31.085  1.00  0.00    -0.083 Cl
HETATM   27  C6  UNL     1      11.895  -2.798  33.753  1.00  0.00     0.025 A 
HETATM   28  C7  UNL     1      11.472  -3.060  35.054  1.00  0.00     0.003 A 
HETATM   29  C8  UNL     1      10.432  -3.960  35.274  1.00  0.00     0.025 A 
HETATM   30  C9  UNL     1       9.815  -4.602  34.194  1.00  0.00     0.046 A 
HETATM   31 CL2  UNL     1       8.523  -5.698  34.554  1.00  0.00    -0.083 Cl
ENDBRANCH   5  24
TORSDOF 3
ENDMDL
