MODEL 1
REMARK minimizedAffinity -7.74130535
REMARK CNNscore 0.784199893
REMARK CNNaffinity 6.86238241
REMARK  10 active torsions:
REMARK  status: ('A' for Active; 'I' for Inactive)
REMARK    1  A    between atoms: C1_2  and  C2_3 
REMARK       I    between atoms: C1_2  and  N1_5 
REMARK    2  A    between atoms: C2_3  and  O2_4 
REMARK    3  A    between atoms: C6_9  and  C7_10 
REMARK    4  A    between atoms: C7_10  and  O3_11 
REMARK    5  A    between atoms: O3_11  and  C8_12 
REMARK    6  A    between atoms: C14_22  and  N4_23 
REMARK    7  A    between atoms: N4_23  and  C15_24 
REMARK    8  A    between atoms: C18_27  and  O4_28 
REMARK    9  A    between atoms: O4_28  and  C19_29 
REMARK   10  A    between atoms: C19_29  and  C20_30 
ROOT
HETATM    1  C8  UNL     1      13.362  58.728   3.975  1.00  0.00     0.085 A 
HETATM    2  C9  UNL     1      13.329  59.426   5.185  1.00  0.00     0.038 A 
HETATM    3  C10 UNL     1      13.048  60.785   5.187  1.00  0.00     0.005 A 
HETATM    4  C11 UNL     1      12.788  61.438   3.984  1.00  0.00     0.030 A 
HETATM    5  C12 UNL     1      12.795  60.772   2.768  1.00  0.00     0.049 A 
HETATM    6  N2  UNL     1      12.520  61.492   1.679  1.00  0.00    -0.351 N 
ATOM      7  H2  UNL     1      12.311  62.489   1.735  1.00  0.00     0.166 HD
HETATM    8  C13 UNL     1      12.530  60.844   0.512  1.00  0.00     0.182 A 
HETATM    9  N3  UNL     1      12.800  59.551   0.334  1.00  0.00    -0.338 N 
ATOM     10  H3  UNL     1      12.799  59.130  -0.595  1.00  0.00     0.168 HD
HETATM   11  C14 UNL     1      13.074  58.824   1.434  1.00  0.00     0.122 A 
HETATM   12  C27 UNL     1      13.085  59.397   2.737  1.00  0.00     0.068 A 
ENDROOT
BRANCH  11  13
HETATM   13  N4  UNL     1      13.427  57.458   1.288  1.00  0.00    -0.342 N 
HETATM   14  H17 UNL     1      13.436  57.010   2.202  1.00  0.00     0.167 HD
BRANCH  13  15
HETATM   15  C15 UNL     1      13.305  56.551   0.221  1.00  0.00     0.035 A 
HETATM   16  C16 UNL     1      12.115  56.306  -0.466  1.00  0.00     0.032 A 
HETATM   17  C17 UNL     1      12.064  55.434  -1.565  1.00  0.00     0.041 A 
HETATM   18  C18 UNL     1      13.219  54.800  -2.023  1.00  0.00     0.091 A 
HETATM   19  C25 UNL     1      14.423  55.065  -1.359  1.00  0.00     0.069 A 
HETATM   20 CL1  UNL     1      15.911  54.337  -1.865  1.00  0.00    -0.081 Cl
HETATM   21  C26 UNL     1      14.465  55.931  -0.259  1.00  0.00     0.056 A 
BRANCH  18  22
HETATM   22  O4  UNL     1      13.277  53.935  -3.082  1.00  0.00    -0.344 OA
BRANCH  22  23
HETATM   23  C19 UNL     1      12.119  53.162  -3.418  1.00  0.00     0.232 C 
BRANCH  23  24
HETATM   24  C20 UNL     1      12.068  51.824  -2.715  1.00  0.00     0.033 A 
HETATM   25  C21 UNL     1      13.236  51.218  -2.256  1.00  0.00     0.027 A 
HETATM   26  C22 UNL     1      13.150  49.987  -1.614  1.00  0.00     0.003 A 
HETATM   27  C23 UNL     1      11.906  49.390  -1.452  1.00  0.00     0.017 A 
HETATM   28  C24 UNL     1      10.795  50.050  -1.946  1.00  0.00     0.088 A 
HETATM   29  N5  UNL     1      10.846  51.247  -2.572  1.00  0.00    -0.367 N 
ATOM     30  H5  UNL     1      10.002  51.699  -2.923  1.00  0.00     0.165 HD
ENDBRANCH  23  24
ENDBRANCH  22  23
ENDBRANCH  18  22
ENDBRANCH  13  15
ENDBRANCH  11  13
BRANCH   1  31
HETATM   31  O3  UNL     1      13.592  57.371   3.916  1.00  0.00    -0.348 OA
BRANCH  31  32
HETATM   32  C7  UNL     1      14.746  56.866   4.604  1.00  0.00     0.201 C 
BRANCH  32  33
HETATM   33  C6  UNL     1      15.059  55.404   4.234  1.00  0.00     0.111 C 
HETATM   34  N1  UNL     1      16.466  55.023   4.390  1.00  0.00    -0.344 N 
HETATM   35  C1  UNL     1      17.468  55.639   3.674  1.00  0.00     0.243 C 
HETATM   36  C3  UNL     1      16.602  53.792   5.154  1.00  0.00     0.126 C 
HETATM   37  O1  UNL     1      17.254  56.586   2.911  1.00  0.00    -0.271 OA
HETATM   38  C4  UNL     1      15.205  53.193   5.156  1.00  0.00     0.022 C 
HETATM   39  C5  UNL     1      14.306  54.419   5.142  1.00  0.00     0.029 C 
BRANCH  35  40
HETATM   40  C2  UNL     1      18.898  55.126   3.872  1.00  0.00     0.267 C 
BRANCH  40  41
HETATM   41  O2  UNL     1      19.236  54.128   2.914  1.00  0.00    -0.392 OA
HETATM   42  H3  UNL     1      18.423  53.981   2.386  1.00  0.00     0.210 HD
ENDBRANCH  40  41
ENDBRANCH  35  40
ENDBRANCH  32  33
ENDBRANCH  31  32
ENDBRANCH   1  31
TORSDOF 10
ENDMDL
MODEL 2
REMARK minimizedAffinity -7.09460926
REMARK CNNscore 0.676992357
REMARK CNNaffinity 6.71863031
REMARK  10 active torsions:
REMARK  status: ('A' for Active; 'I' for Inactive)
REMARK    1  A    between atoms: C1_2  and  C2_3 
REMARK       I    between atoms: C1_2  and  N1_5 
REMARK    2  A    between atoms: C2_3  and  O2_4 
REMARK    3  A    between atoms: C6_9  and  C7_10 
REMARK    4  A    between atoms: C7_10  and  O3_11 
REMARK    5  A    between atoms: O3_11  and  C8_12 
REMARK    6  A    between atoms: C14_22  and  N4_23 
REMARK    7  A    between atoms: N4_23  and  C15_24 
REMARK    8  A    between atoms: C18_27  and  O4_28 
REMARK    9  A    between atoms: O4_28  and  C19_29 
REMARK   10  A    between atoms: C19_29  and  C20_30 
ROOT
HETATM    1  C8  UNL     1      10.309  52.969  -5.466  1.00  0.00     0.085 A 
HETATM    2  C9  UNL     1       9.912  52.200  -6.564  1.00  0.00     0.038 A 
HETATM    3  C10 UNL     1       9.438  52.828  -7.706  1.00  0.00     0.005 A 
HETATM    4  C11 UNL     1       9.373  54.219  -7.754  1.00  0.00     0.030 A 
HETATM    5  C12 UNL     1       9.776  55.011  -6.689  1.00  0.00     0.049 A 
HETATM    6  N2  UNL     1       9.685  56.333  -6.847  1.00  0.00    -0.351 N 
ATOM      7  H2  UNL     1       9.336  56.746  -7.712  1.00  0.00     0.166 HD
HETATM    8  C13 UNL     1      10.071  57.089  -5.818  1.00  0.00     0.182 A 
HETATM    9  N3  UNL     1      10.530  56.646  -4.647  1.00  0.00    -0.338 N 
ATOM     10  H3  UNL     1      10.796  57.290  -3.902  1.00  0.00     0.168 HD
HETATM   11  C14 UNL     1      10.625  55.312  -4.490  1.00  0.00     0.122 A 
HETATM   12  C27 UNL     1      10.253  54.401  -5.517  1.00  0.00     0.068 A 
ENDROOT
BRANCH  11  13
HETATM   13  N4  UNL     1      11.049  54.794  -3.240  1.00  0.00    -0.342 N 
HETATM   14  H17 UNL     1      10.892  53.788  -3.219  1.00  0.00     0.167 HD
BRANCH  13  15
HETATM   15  C15 UNL     1      11.996  55.232  -2.297  1.00  0.00     0.035 A 
HETATM   16  C16 UNL     1      11.701  56.073  -1.224  1.00  0.00     0.032 A 
HETATM   17  C17 UNL     1      12.674  56.428  -0.276  1.00  0.00     0.041 A 
HETATM   18  C18 UNL     1      13.972  55.926  -0.368  1.00  0.00     0.091 A 
HETATM   19  C25 UNL     1      14.269  55.055  -1.424  1.00  0.00     0.069 A 
HETATM   20 CL1  UNL     1      15.847  54.368  -1.611  1.00  0.00    -0.081 Cl
HETATM   21  C26 UNL     1      13.294  54.710  -2.369  1.00  0.00     0.056 A 
BRANCH  18  22
HETATM   22  O4  UNL     1      14.991  56.209   0.501  1.00  0.00    -0.344 OA
BRANCH  22  23
HETATM   23  C19 UNL     1      14.691  56.856   1.744  1.00  0.00     0.232 C 
BRANCH  23  24
HETATM   24  C20 UNL     1      14.874  55.957   2.946  1.00  0.00     0.033 A 
HETATM   25  C21 UNL     1      13.779  55.577   3.721  1.00  0.00     0.027 A 
HETATM   26  C22 UNL     1      13.985  54.749   4.820  1.00  0.00     0.003 A 
HETATM   27  C23 UNL     1      15.275  54.327   5.120  1.00  0.00     0.017 A 
HETATM   28  C24 UNL     1      16.309  54.757   4.308  1.00  0.00     0.088 A 
HETATM   29  N5  UNL     1      16.140  55.559   3.234  1.00  0.00    -0.367 N 
ATOM     30  H5  UNL     1      16.932  55.854   2.662  1.00  0.00     0.165 HD
ENDBRANCH  23  24
ENDBRANCH  22  23
ENDBRANCH  18  22
ENDBRANCH  13  15
ENDBRANCH  11  13
BRANCH   1  31
HETATM   31  O3  UNL     1      10.829  52.403  -4.323  1.00  0.00    -0.348 OA
BRANCH  31  32
HETATM   32  C7  UNL     1      10.947  50.972  -4.288  1.00  0.00     0.201 C 
BRANCH  32  33
HETATM   33  C6  UNL     1      10.526  50.379  -2.930  1.00  0.00     0.111 C 
HETATM   34  N1  UNL     1      10.143  48.965  -2.975  1.00  0.00    -0.344 N 
HETATM   35  C1  UNL     1       9.081  48.524  -3.735  1.00  0.00     0.243 C 
HETATM   36  C3  UNL     1      10.831  48.195  -1.949  1.00  0.00     0.126 C 
HETATM   37  O1  UNL     1       8.432  49.275  -4.469  1.00  0.00    -0.271 OA
HETATM   38  C4  UNL     1      11.382  49.243  -0.997  1.00  0.00     0.022 C 
HETATM   39  C5  UNL     1      11.679  50.419  -1.916  1.00  0.00     0.029 C 
BRANCH  35  40
HETATM   40  C2  UNL     1       8.732  47.034  -3.665  1.00  0.00     0.267 C 
BRANCH  40  41
HETATM   41  O2  UNL     1       7.855  46.749  -2.580  1.00  0.00    -0.392 OA
HETATM   42  H3  UNL     1       7.734  47.599  -2.107  1.00  0.00     0.210 HD
ENDBRANCH  40  41
ENDBRANCH  35  40
ENDBRANCH  32  33
ENDBRANCH  31  32
ENDBRANCH   1  31
TORSDOF 10
ENDMDL
MODEL 3
REMARK minimizedAffinity -6.95020103
REMARK CNNscore 0.617082357
REMARK CNNaffinity 6.41434145
REMARK  10 active torsions:
REMARK  status: ('A' for Active; 'I' for Inactive)
REMARK    1  A    between atoms: C1_2  and  C2_3 
REMARK       I    between atoms: C1_2  and  N1_5 
REMARK    2  A    between atoms: C2_3  and  O2_4 
REMARK    3  A    between atoms: C6_9  and  C7_10 
REMARK    4  A    between atoms: C7_10  and  O3_11 
REMARK    5  A    between atoms: O3_11  and  C8_12 
REMARK    6  A    between atoms: C14_22  and  N4_23 
REMARK    7  A    between atoms: N4_23  and  C15_24 
REMARK    8  A    between atoms: C18_27  and  O4_28 
REMARK    9  A    between atoms: O4_28  and  C19_29 
REMARK   10  A    between atoms: C19_29  and  C20_30 
ROOT
HETATM    1  C8  UNL     1      12.277  60.011  -1.807  1.00  0.00     0.085 A 
HETATM    2  C9  UNL     1      12.112  60.557  -3.083  1.00  0.00     0.038 A 
HETATM    3  C10 UNL     1      12.507  61.865  -3.327  1.00  0.00     0.005 A 
HETATM    4  C11 UNL     1      13.075  62.617  -2.301  1.00  0.00     0.030 A 
HETATM    5  C12 UNL     1      13.269  62.100  -1.029  1.00  0.00     0.049 A 
HETATM    6  N2  UNL     1      13.834  62.904  -0.126  1.00  0.00    -0.351 N 
ATOM      7  H2  UNL     1      14.114  63.856  -0.359  1.00  0.00     0.166 HD
HETATM    8  C13 UNL     1      14.015  62.400   1.096  1.00  0.00     0.182 A 
HETATM    9  N3  UNL     1      13.675  61.175   1.499  1.00  0.00    -0.338 N 
ATOM     10  H3  UNL     1      13.837  60.866   2.458  1.00  0.00     0.168 HD
HETATM   11  C14 UNL     1      13.109  60.364   0.586  1.00  0.00     0.122 A 
HETATM   12  C27 UNL     1      12.871  60.781  -0.753  1.00  0.00     0.068 A 
ENDROOT
BRANCH  11  13
HETATM   13  N4  UNL     1      12.674  59.074   0.985  1.00  0.00    -0.342 N 
HETATM   14  H17 UNL     1      12.223  58.609   0.199  1.00  0.00     0.167 HD
BRANCH  13  15
HETATM   15  C15 UNL     1      13.115  58.185   1.982  1.00  0.00     0.035 A 
HETATM   16  C16 UNL     1      13.560  56.886   1.732  1.00  0.00     0.032 A 
HETATM   17  C17 UNL     1      14.047  56.064   2.760  1.00  0.00     0.041 A 
HETATM   18  C18 UNL     1      14.125  56.535   4.071  1.00  0.00     0.091 A 
HETATM   19  C25 UNL     1      13.710  57.848   4.325  1.00  0.00     0.069 A 
HETATM   20 CL1  UNL     1      13.785  58.526   5.916  1.00  0.00    -0.081 Cl
HETATM   21  C26 UNL     1      13.219  58.661   3.295  1.00  0.00     0.056 A 
BRANCH  18  22
HETATM   22  O4  UNL     1      14.583  55.816   5.141  1.00  0.00    -0.344 OA
BRANCH  22  23
HETATM   23  C19 UNL     1      14.489  54.387   5.116  1.00  0.00     0.232 C 
BRANCH  23  24
HETATM   24  C20 UNL     1      15.834  53.697   5.090  1.00  0.00     0.033 A 
HETATM   25  C21 UNL     1      16.976  54.384   4.679  1.00  0.00     0.027 A 
HETATM   26  C22 UNL     1      18.197  53.718   4.668  1.00  0.00     0.003 A 
HETATM   27  C23 UNL     1      18.247  52.386   5.060  1.00  0.00     0.017 A 
HETATM   28  C24 UNL     1      17.068  51.771   5.444  1.00  0.00     0.088 A 
HETATM   29  N5  UNL     1      15.868  52.393   5.467  1.00  0.00    -0.367 N 
ATOM     30  H5  UNL     1      15.022  51.902   5.755  1.00  0.00     0.165 HD
ENDBRANCH  23  24
ENDBRANCH  22  23
ENDBRANCH  18  22
ENDBRANCH  13  15
ENDBRANCH  11  13
BRANCH   1  31
HETATM   31  O3  UNL     1      11.945  58.706  -1.519  1.00  0.00    -0.348 OA
BRANCH  31  32
HETATM   32  C7  UNL     1      10.825  58.139  -2.217  1.00  0.00     0.201 C 
BRANCH  32  33
HETATM   33  C6  UNL     1      10.802  56.600  -2.142  1.00  0.00     0.111 C 
HETATM   34  N1  UNL     1      11.049  55.923  -3.418  1.00  0.00    -0.344 N 
HETATM   35  C1  UNL     1      10.217  56.093  -4.503  1.00  0.00     0.243 C 
HETATM   36  C3  UNL     1      12.076  54.900  -3.288  1.00  0.00     0.126 C 
HETATM   37  O1  UNL     1       9.256  56.868  -4.488  1.00  0.00    -0.271 OA
HETATM   38  C4  UNL     1      12.206  54.687  -1.788  1.00  0.00     0.022 C 
HETATM   39  C5  UNL     1      11.907  56.065  -1.218  1.00  0.00     0.029 C 
BRANCH  35  40
HETATM   40  C2  UNL     1      10.535  55.295  -5.771  1.00  0.00     0.267 C 
BRANCH  40  41
HETATM   41  O2  UNL     1      11.424  56.003  -6.629  1.00  0.00    -0.392 OA
HETATM   42  H3  UNL     1      11.571  56.871  -6.200  1.00  0.00     0.210 HD
ENDBRANCH  40  41
ENDBRANCH  35  40
ENDBRANCH  32  33
ENDBRANCH  31  32
ENDBRANCH   1  31
TORSDOF 10
ENDMDL
MODEL 4
REMARK minimizedAffinity -6.93144321
REMARK CNNscore 0.55773592
REMARK CNNaffinity 6.35270119
REMARK  10 active torsions:
REMARK  status: ('A' for Active; 'I' for Inactive)
REMARK    1  A    between atoms: C1_2  and  C2_3 
REMARK       I    between atoms: C1_2  and  N1_5 
REMARK    2  A    between atoms: C2_3  and  O2_4 
REMARK    3  A    between atoms: C6_9  and  C7_10 
REMARK    4  A    between atoms: C7_10  and  O3_11 
REMARK    5  A    between atoms: O3_11  and  C8_12 
REMARK    6  A    between atoms: C14_22  and  N4_23 
REMARK    7  A    between atoms: N4_23  and  C15_24 
REMARK    8  A    between atoms: C18_27  and  O4_28 
REMARK    9  A    between atoms: O4_28  and  C19_29 
REMARK   10  A    between atoms: C19_29  and  C20_30 
ROOT
HETATM    1  C8  UNL     1       9.841  50.827  -4.216  1.00  0.00     0.085 A 
HETATM    2  C9  UNL     1       8.819  49.949  -4.587  1.00  0.00     0.038 A 
HETATM    3  C10 UNL     1       7.921  50.320  -5.577  1.00  0.00     0.005 A 
HETATM    4  C11 UNL     1       8.053  51.559  -6.201  1.00  0.00     0.030 A 
HETATM    5  C12 UNL     1       9.066  52.446  -5.868  1.00  0.00     0.049 A 
HETATM    6  N2  UNL     1       9.107  53.600  -6.538  1.00  0.00    -0.351 N 
ATOM      7  H2  UNL     1       8.426  53.821  -7.264  1.00  0.00     0.166 HD
HETATM    8  C13 UNL     1      10.083  54.449  -6.211  1.00  0.00     0.182 A 
HETATM    9  N3  UNL     1      11.011  54.256  -5.273  1.00  0.00    -0.338 N 
ATOM     10  H3  UNL     1      11.720  54.961  -5.074  1.00  0.00     0.168 HD
HETATM   11  C14 UNL     1      10.970  53.090  -4.601  1.00  0.00     0.122 A 
HETATM   12  C27 UNL     1       9.984  52.099  -4.863  1.00  0.00     0.068 A 
ENDROOT
BRANCH  11  13
HETATM   13  N4  UNL     1      11.899  52.867  -3.552  1.00  0.00    -0.342 N 
HETATM   14  H17 UNL     1      12.314  51.943  -3.658  1.00  0.00     0.167 HD
BRANCH  13  15
HETATM   15  C15 UNL     1      12.664  53.736  -2.755  1.00  0.00     0.035 A 
HETATM   16  C16 UNL     1      12.121  54.687  -1.890  1.00  0.00     0.032 A 
HETATM   17  C17 UNL     1      12.933  55.486  -1.069  1.00  0.00     0.041 A 
HETATM   18  C18 UNL     1      14.319  55.334  -1.077  1.00  0.00     0.091 A 
HETATM   19  C25 UNL     1      14.870  54.360  -1.919  1.00  0.00     0.069 A 
HETATM   20 CL1  UNL     1      16.579  54.087  -1.984  1.00  0.00    -0.081 Cl
HETATM   21  C26 UNL     1      14.055  53.570  -2.739  1.00  0.00     0.056 A 
BRANCH  18  22
HETATM   22  O4  UNL     1      15.196  56.061  -0.318  1.00  0.00    -0.344 OA
BRANCH  22  23
HETATM   23  C19 UNL     1      14.688  56.915   0.713  1.00  0.00     0.232 C 
BRANCH  23  24
HETATM   24  C20 UNL     1      14.678  56.266   2.079  1.00  0.00     0.033 A 
HETATM   25  C21 UNL     1      13.482  56.091   2.773  1.00  0.00     0.027 A 
HETATM   26  C22 UNL     1      13.512  55.490   4.028  1.00  0.00     0.003 A 
HETATM   27  C23 UNL     1      14.731  55.085   4.558  1.00  0.00     0.017 A 
HETATM   28  C24 UNL     1      15.875  55.304   3.811  1.00  0.00     0.088 A 
HETATM   29  N5  UNL     1      15.877  55.883   2.590  1.00  0.00    -0.367 N 
ATOM     30  H5  UNL     1      16.745  56.028   2.073  1.00  0.00     0.165 HD
ENDBRANCH  23  24
ENDBRANCH  22  23
ENDBRANCH  18  22
ENDBRANCH  13  15
ENDBRANCH  11  13
BRANCH   1  31
HETATM   31  O3  UNL     1      10.787  50.495  -3.271  1.00  0.00    -0.348 OA
BRANCH  31  32
HETATM   32  C7  UNL     1      10.316  50.093  -1.976  1.00  0.00     0.201 C 
BRANCH  32  33
HETATM   33  C6  UNL     1      11.053  48.852  -1.440  1.00  0.00     0.111 C 
HETATM   34  N1  UNL     1      10.664  47.589  -2.075  1.00  0.00    -0.344 N 
HETATM   35  C1  UNL     1       9.373  47.112  -2.010  1.00  0.00     0.243 C 
HETATM   36  C3  UNL     1      11.827  46.834  -2.515  1.00  0.00     0.126 C 
HETATM   37  O1  UNL     1       8.458  47.742  -1.472  1.00  0.00    -0.271 OA
HETATM   38  C4  UNL     1      12.995  47.486  -1.792  1.00  0.00     0.022 C 
HETATM   39  C5  UNL     1      12.566  48.942  -1.692  1.00  0.00     0.029 C 
BRANCH  35  40
HETATM   40  C2  UNL     1       9.087  45.754  -2.660  1.00  0.00     0.267 C 
BRANCH  40  41
HETATM   41  O2  UNL     1       8.605  45.901  -3.992  1.00  0.00    -0.392 OA
HETATM   42  H3  UNL     1       8.528  46.866  -4.142  1.00  0.00     0.210 HD
ENDBRANCH  40  41
ENDBRANCH  35  40
ENDBRANCH  32  33
ENDBRANCH  31  32
ENDBRANCH   1  31
TORSDOF 10
ENDMDL
MODEL 5
REMARK minimizedAffinity -7.19936085
REMARK CNNscore 0.476456046
REMARK CNNaffinity 6.04537916
REMARK  10 active torsions:
REMARK  status: ('A' for Active; 'I' for Inactive)
REMARK    1  A    between atoms: C1_2  and  C2_3 
REMARK       I    between atoms: C1_2  and  N1_5 
REMARK    2  A    between atoms: C2_3  and  O2_4 
REMARK    3  A    between atoms: C6_9  and  C7_10 
REMARK    4  A    between atoms: C7_10  and  O3_11 
REMARK    5  A    between atoms: O3_11  and  C8_12 
REMARK    6  A    between atoms: C14_22  and  N4_23 
REMARK    7  A    between atoms: N4_23  and  C15_24 
REMARK    8  A    between atoms: C18_27  and  O4_28 
REMARK    9  A    between atoms: O4_28  and  C19_29 
REMARK   10  A    between atoms: C19_29  and  C20_30 
ROOT
HETATM    1  C8  UNL     1      12.982  58.716  -0.324  1.00  0.00     0.085 A 
HETATM    2  C9  UNL     1      12.578  59.487  -1.417  1.00  0.00     0.038 A 
HETATM    3  C10 UNL     1      12.194  60.807  -1.222  1.00  0.00     0.005 A 
HETATM    4  C11 UNL     1      12.228  61.354   0.059  1.00  0.00     0.030 A 
HETATM    5  C12 UNL     1      12.641  60.620   1.162  1.00  0.00     0.049 A 
HETATM    6  N2  UNL     1      12.647  61.247   2.340  1.00  0.00    -0.351 N 
ATOM      7  H2  UNL     1      12.363  62.223   2.429  1.00  0.00     0.166 HD
HETATM    8  C13 UNL     1      13.043  60.535   3.397  1.00  0.00     0.182 A 
HETATM    9  N3  UNL     1      13.423  59.257   3.385  1.00  0.00    -0.338 N 
ATOM     10  H3  UNL     1      13.703  58.777   4.241  1.00  0.00     0.168 HD
HETATM   11  C14 UNL     1      13.420  58.627   2.195  1.00  0.00     0.122 A 
HETATM   12  C27 UNL     1      13.027  59.280   0.994  1.00  0.00     0.068 A 
ENDROOT
BRANCH  11  13
HETATM   13  N4  UNL     1      13.756  57.250   2.143  1.00  0.00    -0.342 N 
HETATM   14  H17 UNL     1      13.911  56.975   1.175  1.00  0.00     0.167 HD
BRANCH  13  15
HETATM   15  C15 UNL     1      14.345  56.376   3.075  1.00  0.00     0.035 A 
HETATM   16  C16 UNL     1      13.627  55.495   3.884  1.00  0.00     0.032 A 
HETATM   17  C17 UNL     1      14.271  54.600   4.752  1.00  0.00     0.041 A 
HETATM   18  C18 UNL     1      15.664  54.548   4.814  1.00  0.00     0.091 A 
HETATM   19  C25 UNL     1      16.393  55.407   3.982  1.00  0.00     0.069 A 
HETATM   20 CL1  UNL     1      18.124  55.403   3.976  1.00  0.00    -0.081 Cl
HETATM   21  C26 UNL     1      15.743  56.301   3.122  1.00  0.00     0.056 A 
BRANCH  18  22
HETATM   22  O4  UNL     1      16.387  53.714   5.624  1.00  0.00    -0.344 OA
BRANCH  22  23
HETATM   23  C19 UNL     1      16.634  52.369   5.200  1.00  0.00     0.232 C 
BRANCH  23  24
HETATM   24  C20 UNL     1      17.611  51.632   6.088  1.00  0.00     0.033 A 
HETATM   25  C21 UNL     1      17.821  50.262   5.929  1.00  0.00     0.027 A 
HETATM   26  C22 UNL     1      18.728  49.617   6.764  1.00  0.00     0.003 A 
HETATM   27  C23 UNL     1      19.396  50.351   7.737  1.00  0.00     0.017 A 
HETATM   28  C24 UNL     1      19.124  51.704   7.838  1.00  0.00     0.088 A 
HETATM   29  N5  UNL     1      18.251  52.358   7.041  1.00  0.00    -0.367 N 
ATOM     30  H5  UNL     1      18.079  53.358   7.151  1.00  0.00     0.165 HD
ENDBRANCH  23  24
ENDBRANCH  22  23
ENDBRANCH  18  22
ENDBRANCH  13  15
ENDBRANCH  11  13
BRANCH   1  31
HETATM   31  O3  UNL     1      13.415  57.415  -0.463  1.00  0.00    -0.348 OA
BRANCH  31  32
HETATM   32  C7  UNL     1      13.480  56.879  -1.794  1.00  0.00     0.201 C 
BRANCH  32  33
HETATM   33  C6  UNL     1      13.021  55.410  -1.860  1.00  0.00     0.111 C 
HETATM   34  N1  UNL     1      12.412  55.019  -3.135  1.00  0.00    -0.344 N 
HETATM   35  C1  UNL     1      11.264  55.618  -3.605  1.00  0.00     0.243 C 
HETATM   36  C3  UNL     1      13.004  53.795  -3.653  1.00  0.00     0.126 C 
HETATM   37  O1  UNL     1      10.718  56.559  -3.021  1.00  0.00    -0.271 OA
HETATM   38  C4  UNL     1      13.755  53.208  -2.469  1.00  0.00     0.022 C 
HETATM   39  C5  UNL     1      14.204  54.443  -1.702  1.00  0.00     0.029 C 
BRANCH  35  40
HETATM   40  C2  UNL     1      10.680  55.094  -4.921  1.00  0.00     0.267 C 
BRANCH  40  41
HETATM   41  O2  UNL     1       9.732  54.056  -4.699  1.00  0.00    -0.392 OA
HETATM   42  H3  UNL     1       9.731  53.900  -3.732  1.00  0.00     0.210 HD
ENDBRANCH  40  41
ENDBRANCH  35  40
ENDBRANCH  32  33
ENDBRANCH  31  32
ENDBRANCH   1  31
TORSDOF 10
ENDMDL
MODEL 6
REMARK minimizedAffinity -6.55856657
REMARK CNNscore 0.452003121
REMARK CNNaffinity 5.7037425
REMARK  10 active torsions:
REMARK  status: ('A' for Active; 'I' for Inactive)
REMARK    1  A    between atoms: C1_2  and  C2_3 
REMARK       I    between atoms: C1_2  and  N1_5 
REMARK    2  A    between atoms: C2_3  and  O2_4 
REMARK    3  A    between atoms: C6_9  and  C7_10 
REMARK    4  A    between atoms: C7_10  and  O3_11 
REMARK    5  A    between atoms: O3_11  and  C8_12 
REMARK    6  A    between atoms: C14_22  and  N4_23 
REMARK    7  A    between atoms: N4_23  and  C15_24 
REMARK    8  A    between atoms: C18_27  and  O4_28 
REMARK    9  A    between atoms: O4_28  and  C19_29 
REMARK   10  A    between atoms: C19_29  and  C20_30 
ROOT
HETATM    1  C8  UNL     1      19.097  50.252   7.387  1.00  0.00     0.085 A 
HETATM    2  C9  UNL     1      19.850  49.323   8.111  1.00  0.00     0.038 A 
HETATM    3  C10 UNL     1      19.750  47.973   7.808  1.00  0.00     0.005 A 
HETATM    4  C11 UNL     1      18.910  47.556   6.778  1.00  0.00     0.030 A 
HETATM    5  C12 UNL     1      18.164  48.454   6.028  1.00  0.00     0.049 A 
HETATM    6  N2  UNL     1      17.403  47.948   5.056  1.00  0.00    -0.351 N 
ATOM      7  H2  UNL     1      17.371  46.945   4.868  1.00  0.00     0.166 HD
HETATM    8  C13 UNL     1      16.686  48.816   4.341  1.00  0.00     0.182 A 
HETATM    9  N3  UNL     1      16.652  50.138   4.515  1.00  0.00    -0.338 N 
ATOM     10  H3  UNL     1      16.067  50.736   3.931  1.00  0.00     0.168 HD
HETATM   11  C14 UNL     1      17.423  50.648   5.494  1.00  0.00     0.122 A 
HETATM   12  C27 UNL     1      18.240  49.827   6.319  1.00  0.00     0.068 A 
ENDROOT
BRANCH  11  13
HETATM   13  N4  UNL     1      17.373  52.041   5.756  1.00  0.00    -0.342 N 
HETATM   14  H17 UNL     1      18.275  52.352   6.110  1.00  0.00     0.167 HD
BRANCH  13  15
HETATM   15  C15 UNL     1      16.589  53.083   5.229  1.00  0.00     0.035 A 
HETATM   16  C16 UNL     1      15.202  53.163   5.363  1.00  0.00     0.032 A 
HETATM   17  C17 UNL     1      14.477  54.260   4.870  1.00  0.00     0.041 A 
HETATM   18  C18 UNL     1      15.131  55.323   4.248  1.00  0.00     0.091 A 
HETATM   19  C25 UNL     1      16.526  55.265   4.138  1.00  0.00     0.069 A 
HETATM   20 CL1  UNL     1      17.426  56.545   3.397  1.00  0.00    -0.081 Cl
HETATM   21  C26 UNL     1      17.242  54.165   4.627  1.00  0.00     0.056 A 
BRANCH  18  22
HETATM   22  O4  UNL     1      14.519  56.435   3.736  1.00  0.00    -0.344 OA
BRANCH  22  23
HETATM   23  C19 UNL     1      14.033  56.407   2.389  1.00  0.00     0.232 C 
BRANCH  23  24
HETATM   24  C20 UNL     1      13.642  57.771   1.865  1.00  0.00     0.033 A 
HETATM   25  C21 UNL     1      13.514  58.855   2.733  1.00  0.00     0.027 A 
HETATM   26  C22 UNL     1      13.152  60.095   2.215  1.00  0.00     0.003 A 
HETATM   27  C23 UNL     1      12.922  60.220   0.850  1.00  0.00     0.017 A 
HETATM   28  C24 UNL     1      13.059  59.094   0.057  1.00  0.00     0.088 A 
HETATM   29  N5  UNL     1      13.411  57.878   0.531  1.00  0.00    -0.367 N 
ATOM     30  H5  UNL     1      13.499  57.073  -0.089  1.00  0.00     0.165 HD
ENDBRANCH  23  24
ENDBRANCH  22  23
ENDBRANCH  18  22
ENDBRANCH  13  15
ENDBRANCH  11  13
BRANCH   1  31
HETATM   31  O3  UNL     1      19.189  51.608   7.614  1.00  0.00    -0.348 OA
BRANCH  31  32
HETATM   32  C7  UNL     1      19.232  52.049   8.980  1.00  0.00     0.201 C 
BRANCH  32  33
HETATM   33  C6  UNL     1      20.369  53.056   9.238  1.00  0.00     0.111 C 
HETATM   34  N1  UNL     1      19.927  54.355   9.754  1.00  0.00    -0.344 N 
HETATM   35  C1  UNL     1      19.083  55.172   9.035  1.00  0.00     0.243 C 
HETATM   36  C3  UNL     1      20.685  54.744  10.933  1.00  0.00     0.126 C 
HETATM   37  O1  UNL     1      18.598  54.837   7.950  1.00  0.00    -0.271 OA
HETATM   38  C4  UNL     1      21.891  53.819  10.929  1.00  0.00     0.022 C 
HETATM   39  C5  UNL     1      21.342  52.543  10.311  1.00  0.00     0.029 C 
BRANCH  35  40
HETATM   40  C2  UNL     1      18.728  56.533   9.642  1.00  0.00     0.267 C 
BRANCH  40  41
HETATM   41  O2  UNL     1      17.482  56.495  10.328  1.00  0.00    -0.392 OA
HETATM   42  H3  UNL     1      17.131  55.590  10.190  1.00  0.00     0.210 HD
ENDBRANCH  40  41
ENDBRANCH  35  40
ENDBRANCH  32  33
ENDBRANCH  31  32
ENDBRANCH   1  31
TORSDOF 10
ENDMDL
MODEL 7
REMARK minimizedAffinity -6.73038912
REMARK CNNscore 0.406139672
REMARK CNNaffinity 5.9567275
REMARK  10 active torsions:
REMARK  status: ('A' for Active; 'I' for Inactive)
REMARK    1  A    between atoms: C1_2  and  C2_3 
REMARK       I    between atoms: C1_2  and  N1_5 
REMARK    2  A    between atoms: C2_3  and  O2_4 
REMARK    3  A    between atoms: C6_9  and  C7_10 
REMARK    4  A    between atoms: C7_10  and  O3_11 
REMARK    5  A    between atoms: O3_11  and  C8_12 
REMARK    6  A    between atoms: C14_22  and  N4_23 
REMARK    7  A    between atoms: N4_23  and  C15_24 
REMARK    8  A    between atoms: C18_27  and  O4_28 
REMARK    9  A    between atoms: O4_28  and  C19_29 
REMARK   10  A    between atoms: C19_29  and  C20_30 
ROOT
HETATM    1  C8  UNL     1      13.190  60.362   2.731  1.00  0.00     0.085 A 
HETATM    2  C9  UNL     1      12.743  61.416   3.534  1.00  0.00     0.038 A 
HETATM    3  C10 UNL     1      12.620  61.231   4.904  1.00  0.00     0.005 A 
HETATM    4  C11 UNL     1      12.954  60.002   5.468  1.00  0.00     0.030 A 
HETATM    5  C12 UNL     1      13.417  58.942   4.702  1.00  0.00     0.049 A 
HETATM    6  N2  UNL     1      13.720  57.814   5.348  1.00  0.00    -0.351 N 
ATOM      7  H2  UNL     1      13.619  57.732   6.359  1.00  0.00     0.166 HD
HETATM    8  C13 UNL     1      14.162  56.798   4.604  1.00  0.00     0.182 A 
HETATM    9  N3  UNL     1      14.318  56.803   3.280  1.00  0.00    -0.338 N 
ATOM     10  H3  UNL     1      14.652  55.979   2.781  1.00  0.00     0.168 HD
HETATM   11  C14 UNL     1      14.015  57.943   2.631  1.00  0.00     0.122 A 
HETATM   12  C27 UNL     1      13.543  59.099   3.312  1.00  0.00     0.068 A 
ENDROOT
BRANCH  11  13
HETATM   13  N4  UNL     1      14.107  57.976   1.216  1.00  0.00    -0.342 N 
HETATM   14  H17 UNL     1      14.909  58.539   0.941  1.00  0.00     0.167 HD
BRANCH  13  15
HETATM   15  C15 UNL     1      13.672  57.093   0.211  1.00  0.00     0.035 A 
HETATM   16  C16 UNL     1      14.445  56.050  -0.302  1.00  0.00     0.032 A 
HETATM   17  C17 UNL     1      13.937  55.160  -1.261  1.00  0.00     0.041 A 
HETATM   18  C18 UNL     1      12.623  55.277  -1.715  1.00  0.00     0.091 A 
HETATM   19  C25 UNL     1      11.831  56.301  -1.181  1.00  0.00     0.069 A 
HETATM   20 CL1  UNL     1      10.184  56.515  -1.670  1.00  0.00    -0.081 Cl
HETATM   21  C26 UNL     1      12.346  57.189  -0.229  1.00  0.00     0.056 A 
BRANCH  18  22
HETATM   22  O4  UNL     1      12.034  54.463  -2.644  1.00  0.00    -0.344 OA
BRANCH  22  23
HETATM   23  C19 UNL     1      12.792  53.392  -3.217  1.00  0.00     0.232 C 
BRANCH  23  24
HETATM   24  C20 UNL     1      12.464  52.041  -2.623  1.00  0.00     0.033 A 
HETATM   25  C21 UNL     1      13.478  51.207  -2.152  1.00  0.00     0.027 A 
HETATM   26  C22 UNL     1      13.139  49.971  -1.612  1.00  0.00     0.003 A 
HETATM   27  C23 UNL     1      11.802  49.596  -1.561  1.00  0.00     0.017 A 
HETATM   28  C24 UNL     1      10.856  50.475  -2.059  1.00  0.00     0.088 A 
HETATM   29  N5  UNL     1      11.155  51.682  -2.587  1.00  0.00    -0.367 N 
ATOM     30  H5  UNL     1      10.426  52.300  -2.945  1.00  0.00     0.165 HD
ENDBRANCH  23  24
ENDBRANCH  22  23
ENDBRANCH  18  22
ENDBRANCH  13  15
ENDBRANCH  11  13
BRANCH   1  31
HETATM   31  O3  UNL     1      13.373  60.501   1.373  1.00  0.00    -0.348 OA
BRANCH  31  32
HETATM   32  C7  UNL     1      13.029  61.765   0.785  1.00  0.00     0.201 C 
BRANCH  32  33
HETATM   33  C6  UNL     1      13.887  62.092  -0.451  1.00  0.00     0.111 C 
HETATM   34  N1  UNL     1      14.590  63.377  -0.384  1.00  0.00    -0.344 N 
HETATM   35  C1  UNL     1      13.911  64.570  -0.278  1.00  0.00     0.243 C 
HETATM   36  C3  UNL     1      16.002  63.228  -0.705  1.00  0.00     0.126 C 
HETATM   37  O1  UNL     1      12.682  64.629  -0.170  1.00  0.00    -0.271 OA
HETATM   38  C4  UNL     1      16.099  61.857  -1.355  1.00  0.00     0.022 C 
HETATM   39  C5  UNL     1      15.013  61.063  -0.644  1.00  0.00     0.029 C 
BRANCH  35  40
HETATM   40  C2  UNL     1      14.741  65.858  -0.272  1.00  0.00     0.267 C 
BRANCH  40  41
HETATM   41  O2  UNL     1      15.018  66.312  -1.593  1.00  0.00    -0.392 OA
HETATM   42  H3  UNL     1      14.638  65.635  -2.191  1.00  0.00     0.210 HD
ENDBRANCH  40  41
ENDBRANCH  35  40
ENDBRANCH  32  33
ENDBRANCH  31  32
ENDBRANCH   1  31
TORSDOF 10
ENDMDL
MODEL 8
REMARK minimizedAffinity -6.54301071
REMARK CNNscore 0.352153242
REMARK CNNaffinity 6.3399291
REMARK  10 active torsions:
REMARK  status: ('A' for Active; 'I' for Inactive)
REMARK    1  A    between atoms: C1_2  and  C2_3 
REMARK       I    between atoms: C1_2  and  N1_5 
REMARK    2  A    between atoms: C2_3  and  O2_4 
REMARK    3  A    between atoms: C6_9  and  C7_10 
REMARK    4  A    between atoms: C7_10  and  O3_11 
REMARK    5  A    between atoms: O3_11  and  C8_12 
REMARK    6  A    between atoms: C14_22  and  N4_23 
REMARK    7  A    between atoms: N4_23  and  C15_24 
REMARK    8  A    between atoms: C18_27  and  O4_28 
REMARK    9  A    between atoms: O4_28  and  C19_29 
REMARK   10  A    between atoms: C19_29  and  C20_30 
ROOT
HETATM    1  C8  UNL     1      13.142  60.095   2.635  1.00  0.00     0.085 A 
HETATM    2  C9  UNL     1      12.798  61.169   3.460  1.00  0.00     0.038 A 
HETATM    3  C10 UNL     1      12.774  60.998   4.837  1.00  0.00     0.005 A 
HETATM    4  C11 UNL     1      13.107  59.761   5.385  1.00  0.00     0.030 A 
HETATM    5  C12 UNL     1      13.470  58.680   4.596  1.00  0.00     0.049 A 
HETATM    6  N2  UNL     1      13.782  57.546   5.226  1.00  0.00    -0.351 N 
ATOM      7  H2  UNL     1      13.757  57.475   6.243  1.00  0.00     0.166 HD
HETATM    8  C13 UNL     1      14.128  56.509   4.460  1.00  0.00     0.182 A 
HETATM    9  N3  UNL     1      14.181  56.500   3.128  1.00  0.00    -0.338 N 
ATOM     10  H3  UNL     1      14.445  55.661   2.612  1.00  0.00     0.168 HD
HETATM   11  C14 UNL     1      13.869  57.646   2.494  1.00  0.00     0.122 A 
HETATM   12  C27 UNL     1      13.493  58.823   3.198  1.00  0.00     0.068 A 
ENDROOT
BRANCH  11  13
HETATM   13  N4  UNL     1      13.852  57.666   1.075  1.00  0.00    -0.342 N 
HETATM   14  H17 UNL     1      14.414  58.446   0.740  1.00  0.00     0.167 HD
BRANCH  13  15
HETATM   15  C15 UNL     1      13.653  56.664   0.110  1.00  0.00     0.035 A 
HETATM   16  C16 UNL     1      12.417  56.362  -0.463  1.00  0.00     0.032 A 
HETATM   17  C17 UNL     1      12.288  55.392  -1.469  1.00  0.00     0.041 A 
HETATM   18  C18 UNL     1      13.407  54.712  -1.949  1.00  0.00     0.091 A 
HETATM   19  C25 UNL     1      14.656  55.031  -1.402  1.00  0.00     0.069 A 
HETATM   20 CL1  UNL     1      16.104  54.252  -1.944  1.00  0.00    -0.081 Cl
HETATM   21  C26 UNL     1      14.776  55.996  -0.394  1.00  0.00     0.056 A 
BRANCH  18  22
HETATM   22  O4  UNL     1      13.389  53.752  -2.924  1.00  0.00    -0.344 OA
BRANCH  22  23
HETATM   23  C19 UNL     1      12.164  53.066  -3.208  1.00  0.00     0.232 C 
BRANCH  23  24
HETATM   24  C20 UNL     1      12.079  51.701  -2.562  1.00  0.00     0.033 A 
HETATM   25  C21 UNL     1      13.233  51.041  -2.141  1.00  0.00     0.027 A 
HETATM   26  C22 UNL     1      13.116  49.786  -1.552  1.00  0.00     0.003 A 
HETATM   27  C23 UNL     1      11.856  49.220  -1.404  1.00  0.00     0.017 A 
HETATM   28  C24 UNL     1      10.760  49.934  -1.858  1.00  0.00     0.088 A 
HETATM   29  N5  UNL     1      10.842  51.154  -2.432  1.00  0.00    -0.367 N 
ATOM     30  H5  UNL     1      10.008  51.646  -2.755  1.00  0.00     0.165 HD
ENDBRANCH  23  24
ENDBRANCH  22  23
ENDBRANCH  18  22
ENDBRANCH  13  15
ENDBRANCH  11  13
BRANCH   1  31
HETATM   31  O3  UNL     1      13.224  60.217   1.265  1.00  0.00    -0.348 OA
BRANCH  31  32
HETATM   32  C7  UNL     1      12.696  61.415   0.676  1.00  0.00     0.201 C 
BRANCH  32  33
HETATM   33  C6  UNL     1      13.781  62.255  -0.024  1.00  0.00     0.111 C 
HETATM   34  N1  UNL     1      13.305  63.031  -1.173  1.00  0.00    -0.344 N 
HETATM   35  C1  UNL     1      12.761  62.424  -2.284  1.00  0.00     0.243 C 
HETATM   36  C3  UNL     1      13.722  64.423  -1.085  1.00  0.00     0.126 C 
HETATM   37  O1  UNL     1      12.583  61.205  -2.354  1.00  0.00    -0.271 OA
HETATM   38  C4  UNL     1      14.810  64.424  -0.023  1.00  0.00     0.022 C 
HETATM   39  C5  UNL     1      14.369  63.315   0.921  1.00  0.00     0.029 C 
BRANCH  35  40
HETATM   40  C2  UNL     1      12.347  63.325  -3.452  1.00  0.00     0.267 C 
BRANCH  40  41
HETATM   41  O2  UNL     1      13.454  63.643  -4.289  1.00  0.00    -0.392 OA
HETATM   42  H3  UNL     1      14.235  63.232  -3.863  1.00  0.00     0.210 HD
ENDBRANCH  40  41
ENDBRANCH  35  40
ENDBRANCH  32  33
ENDBRANCH  31  32
ENDBRANCH   1  31
TORSDOF 10
ENDMDL
MODEL 9
REMARK minimizedAffinity -6.59341335
REMARK CNNscore 0.322916806
REMARK CNNaffinity 5.92221832
REMARK  10 active torsions:
REMARK  status: ('A' for Active; 'I' for Inactive)
REMARK    1  A    between atoms: C1_2  and  C2_3 
REMARK       I    between atoms: C1_2  and  N1_5 
REMARK    2  A    between atoms: C2_3  and  O2_4 
REMARK    3  A    between atoms: C6_9  and  C7_10 
REMARK    4  A    between atoms: C7_10  and  O3_11 
REMARK    5  A    between atoms: O3_11  and  C8_12 
REMARK    6  A    between atoms: C14_22  and  N4_23 
REMARK    7  A    between atoms: N4_23  and  C15_24 
REMARK    8  A    between atoms: C18_27  and  O4_28 
REMARK    9  A    between atoms: O4_28  and  C19_29 
REMARK   10  A    between atoms: C19_29  and  C20_30 
ROOT
HETATM    1  C8  UNL     1      10.000  50.646  -4.016  1.00  0.00     0.085 A 
HETATM    2  C9  UNL     1       9.132  49.622  -4.407  1.00  0.00     0.038 A 
HETATM    3  C10 UNL     1       8.554  49.655  -5.668  1.00  0.00     0.005 A 
HETATM    4  C11 UNL     1       8.853  50.701  -6.537  1.00  0.00     0.030 A 
HETATM    5  C12 UNL     1       9.723  51.723  -6.187  1.00  0.00     0.049 A 
HETATM    6  N2  UNL     1       9.949  52.669  -7.102  1.00  0.00    -0.351 N 
ATOM      7  H2  UNL     1       9.504  52.642  -8.020  1.00  0.00     0.166 HD
HETATM    8  C13 UNL     1      10.785  53.650  -6.758  1.00  0.00     0.182 A 
HETATM    9  N3  UNL     1      11.406  53.777  -5.584  1.00  0.00    -0.338 N 
ATOM     10  H3  UNL     1      12.024  54.565  -5.393  1.00  0.00     0.168 HD
HETATM   11  C14 UNL     1      11.180  52.821  -4.664  1.00  0.00     0.122 A 
HETATM   12  C27 UNL     1      10.316  51.719  -4.913  1.00  0.00     0.068 A 
ENDROOT
BRANCH  11  13
HETATM   13  N4  UNL     1      11.769  52.948  -3.380  1.00  0.00    -0.342 N 
HETATM   14  H17 UNL     1      12.190  52.060  -3.111  1.00  0.00     0.167 HD
BRANCH  13  15
HETATM   15  C15 UNL     1      12.282  54.048  -2.670  1.00  0.00     0.035 A 
HETATM   16  C16 UNL     1      13.474  54.025  -1.945  1.00  0.00     0.032 A 
HETATM   17  C17 UNL     1      13.970  55.173  -1.306  1.00  0.00     0.041 A 
HETATM   18  C18 UNL     1      13.291  56.388  -1.399  1.00  0.00     0.091 A 
HETATM   19  C25 UNL     1      12.110  56.426  -2.151  1.00  0.00     0.069 A 
HETATM   20 CL1  UNL     1      11.207  57.892  -2.338  1.00  0.00    -0.081 Cl
HETATM   21  C26 UNL     1      11.618  55.276  -2.781  1.00  0.00     0.056 A 
BRANCH  18  22
HETATM   22  O4  UNL     1      13.689  57.560  -0.816  1.00  0.00    -0.344 OA
BRANCH  22  23
HETATM   23  C19 UNL     1      12.984  58.043   0.334  1.00  0.00     0.232 C 
BRANCH  23  24
HETATM   24  C20 UNL     1      13.660  57.695   1.641  1.00  0.00     0.033 A 
HETATM   25  C21 UNL     1      13.802  56.365   2.035  1.00  0.00     0.027 A 
HETATM   26  C22 UNL     1      14.429  56.082   3.244  1.00  0.00     0.003 A 
HETATM   27  C23 UNL     1      14.891  57.130   4.030  1.00  0.00     0.017 A 
HETATM   28  C24 UNL     1      14.703  58.423   3.575  1.00  0.00     0.088 A 
HETATM   29  N5  UNL     1      14.099  58.729   2.405  1.00  0.00    -0.367 N 
ATOM     30  H5  UNL     1      13.979  59.697   2.107  1.00  0.00     0.165 HD
ENDBRANCH  23  24
ENDBRANCH  22  23
ENDBRANCH  18  22
ENDBRANCH  13  15
ENDBRANCH  11  13
BRANCH   1  31
HETATM   31  O3  UNL     1      10.636  50.643  -2.795  1.00  0.00    -0.348 OA
BRANCH  31  32
HETATM   32  C7  UNL     1      10.289  49.600  -1.870  1.00  0.00     0.201 C 
BRANCH  32  33
HETATM   33  C6  UNL     1      11.522  49.000  -1.169  1.00  0.00     0.111 C 
HETATM   34  N1  UNL     1      11.734  47.572  -1.424  1.00  0.00    -0.344 N 
HETATM   35  C1  UNL     1      10.804  46.623  -1.061  1.00  0.00     0.243 C 
HETATM   36  C3  UNL     1      13.104  47.304  -1.838  1.00  0.00     0.126 C 
HETATM   37  O1  UNL     1       9.715  46.919  -0.560  1.00  0.00    -0.271 OA
HETATM   38  C4  UNL     1      13.864  48.567  -1.467  1.00  0.00     0.022 C 
HETATM   39  C5  UNL     1      12.822  49.660  -1.653  1.00  0.00     0.029 C 
BRANCH  35  40
HETATM   40  C2  UNL     1      11.151  45.154  -1.324  1.00  0.00     0.267 C 
BRANCH  40  41
HETATM   41  O2  UNL     1      11.008  44.362  -0.150  1.00  0.00    -0.392 OA
HETATM   42  H3  UNL     1      10.764  44.988   0.564  1.00  0.00     0.210 HD
ENDBRANCH  40  41
ENDBRANCH  35  40
ENDBRANCH  32  33
ENDBRANCH  31  32
ENDBRANCH   1  31
TORSDOF 10
ENDMDL
