MODEL 1
REMARK minimizedAffinity -9.4191637
REMARK  7 active torsions:
REMARK  status: ('A' for Active; 'I' for Inactive)
REMARK    1  A    between atoms: N2_5  and  C4_6 
REMARK    2  A    between atoms: C7_9  and  N3_10 
REMARK    3  A    between atoms: N3_10  and  C8_11 
REMARK    4  A    between atoms: C12_17  and  C13_18 
REMARK    5  A    between atoms: C13_18  and  N5_19 
REMARK    6  A    between atoms: N5_19  and  C14_20 
REMARK    7  A    between atoms: N6_26  and  C20_27 
ROOT
HETATM    1  C8  UNL     1       3.600  -5.866  28.996  1.00  0.00     0.684 A 
HETATM    2  N4  UNL     1       2.296  -6.160  28.822  1.00  0.00    -0.201 N 
ATOM      3  H4  UNL     1       1.577  -5.547  29.206  1.00  0.00     0.183 HD
HETATM    4  C9  UNL     1       1.949  -7.270  28.136  1.00  0.00     0.121 A 
HETATM    5  C10 UNL     1       2.937  -8.090  27.612  1.00  0.00     0.027 A 
HETATM    6  C11 UNL     1       2.989  -9.284  26.860  1.00  0.00     0.043 A 
HETATM    7  C12 UNL     1       4.320  -9.598  26.635  1.00  0.00     0.028 A 
HETATM    8  N6  UNL     1       5.082  -8.605  27.235  1.00  0.00    -0.330 N 
HETATM    9  C25 UNL     1       4.240  -7.697  27.846  1.00  0.00     0.135 A 
HETATM   10  N7  UNL     1       4.622  -6.610  28.538  1.00  0.00    -0.175 N 
ATOM     11  H7  UNL     1       5.600  -6.371  28.701  1.00  0.00     0.186 HD
ENDROOT
BRANCH   1  12
HETATM   12  N3  UNL     1       3.996  -4.730  29.701  1.00  0.00    -0.192 N 
HETATM   13  H10 UNL     1       3.173  -4.191  29.927  1.00  0.00     0.184 HD
BRANCH  12  14
HETATM   14  C7  UNL     1       5.183  -4.350  30.333  1.00  0.00     0.049 A 
HETATM   15  C6  UNL     1       5.431  -3.075  30.833  1.00  0.00     0.032 A 
HETATM   16  C5  UNL     1       6.641  -2.764  31.475  1.00  0.00     0.031 A 
HETATM   17  C4  UNL     1       7.657  -3.711  31.661  1.00  0.00     0.030 A 
HETATM   18  C27 UNL     1       7.382  -4.999  31.184  1.00  0.00     0.031 A 
HETATM   19  C26 UNL     1       6.174  -5.314  30.539  1.00  0.00     0.032 A 
BRANCH  17  20
HETATM   20  N2  UNL     1       8.850  -3.404  32.291  1.00  0.00    -0.378 N 
HETATM   21  C3  UNL     1       9.432  -4.307  33.301  1.00  0.00     0.153 C 
HETATM   22  C2  UNL     1      10.979  -4.270  33.271  1.00  0.00     0.291 C 
HETATM   23  N1  UNL     1      11.598  -2.935  33.410  1.00  0.00     0.087 N 
HETATM   24  C1  UNL     1      12.013  -2.671  34.785  1.00  0.00     0.310 C 
HETATM   25  C29 UNL     1      10.690  -1.870  32.932  1.00  0.00     0.291 C 
HETATM   26  C28 UNL     1       9.719  -2.316  31.814  1.00  0.00     0.153 C 
ENDBRANCH  17  20
ENDBRANCH  12  14
ENDBRANCH   1  12
BRANCH   8  27
HETATM   27  C20 UNL     1       6.534  -8.508  27.231  1.00  0.00     0.091 C 
HETATM   28  C21 UNL     1       7.107  -7.290  26.478  1.00  0.00     0.026 C 
HETATM   29  C22 UNL     1       7.967  -6.544  27.493  1.00  0.00     0.002 C 
HETATM   30  C23 UNL     1       8.402  -7.620  28.473  1.00  0.00     0.002 C 
HETATM   31  C24 UNL     1       7.151  -8.468  28.638  1.00  0.00     0.026 C 
ENDBRANCH   8  27
BRANCH   7  32
HETATM   32  C13 UNL     1       4.878 -10.759  25.873  1.00  0.00     0.149 C 
BRANCH  32  33
HETATM   33  N5  UNL     1       4.675 -10.666  24.430  1.00  0.00    -0.287 NA
HETATM   34  H15 UNL     1       5.243  -9.925  24.031  1.00  0.00     0.128 HD
BRANCH  33  35
HETATM   35  C14 UNL     1       3.374 -10.614  23.909  1.00  0.00     0.008 A 
HETATM   36  C15 UNL     1       2.499 -11.706  23.889  1.00  0.00     0.023 A 
HETATM   37  C16 UNL     1       1.233 -11.612  23.299  1.00  0.00     0.002 A 
HETATM   38  C17 UNL     1       0.831 -10.428  22.690  1.00  0.00     0.000 A 
HETATM   39  C18 UNL     1       1.701  -9.345  22.656  1.00  0.00     0.002 A 
HETATM   40  C19 UNL     1       2.965  -9.446  23.246  1.00  0.00     0.023 A 
ENDBRANCH  33  35
ENDBRANCH  32  33
ENDBRANCH   7  32
TORSDOF 7
ENDMDL
MODEL 2
REMARK minimizedAffinity -9.39539909
REMARK  7 active torsions:
REMARK  status: ('A' for Active; 'I' for Inactive)
REMARK    1  A    between atoms: N2_5  and  C4_6 
REMARK    2  A    between atoms: C7_9  and  N3_10 
REMARK    3  A    between atoms: N3_10  and  C8_11 
REMARK    4  A    between atoms: C12_17  and  C13_18 
REMARK    5  A    between atoms: C13_18  and  N5_19 
REMARK    6  A    between atoms: N5_19  and  C14_20 
REMARK    7  A    between atoms: N6_26  and  C20_27 
ROOT
HETATM    1  C8  UNL     1       3.607  -5.757  29.003  1.00  0.00     0.684 A 
HETATM    2  N4  UNL     1       2.297  -6.010  28.811  1.00  0.00    -0.201 N 
ATOM      3  H4  UNL     1       1.593  -5.363  29.164  1.00  0.00     0.183 HD
HETATM    4  C9  UNL     1       1.924  -7.127  28.149  1.00  0.00     0.121 A 
HETATM    5  C10 UNL     1       2.892  -7.994  27.667  1.00  0.00     0.027 A 
HETATM    6  C11 UNL     1       2.917  -9.210  26.948  1.00  0.00     0.043 A 
HETATM    7  C12 UNL     1       4.241  -9.575  26.758  1.00  0.00     0.028 A 
HETATM    8  N6  UNL     1       5.026  -8.593  27.346  1.00  0.00    -0.330 N 
HETATM    9  C25 UNL     1       4.205  -7.640  27.916  1.00  0.00     0.135 A 
HETATM   10  N7  UNL     1       4.611  -6.548  28.585  1.00  0.00    -0.175 N 
ATOM     11  H7  UNL     1       5.593  -6.338  28.761  1.00  0.00     0.186 HD
ENDROOT
BRANCH   1  12
HETATM   12  N3  UNL     1       4.029  -4.616  29.685  1.00  0.00    -0.192 N 
HETATM   13  H10 UNL     1       3.221  -4.043  29.878  1.00  0.00     0.184 HD
BRANCH  12  14
HETATM   14  C7  UNL     1       5.216  -4.261  30.331  1.00  0.00     0.049 A 
HETATM   15  C6  UNL     1       5.466  -3.004  30.875  1.00  0.00     0.032 A 
HETATM   16  C5  UNL     1       6.676  -2.718  31.529  1.00  0.00     0.031 A 
HETATM   17  C4  UNL     1       7.689  -3.673  31.683  1.00  0.00     0.030 A 
HETATM   18  C27 UNL     1       7.412  -4.943  31.163  1.00  0.00     0.031 A 
HETATM   19  C26 UNL     1       6.205  -5.233  30.506  1.00  0.00     0.032 A 
BRANCH  17  20
HETATM   20  N2  UNL     1       8.882  -3.390  32.325  1.00  0.00    -0.378 N 
HETATM   21  C3  UNL     1       9.312  -4.161  33.506  1.00  0.00     0.153 C 
HETATM   22  C2  UNL     1      10.853  -4.294  33.565  1.00  0.00     0.291 C 
HETATM   23  N1  UNL     1      11.616  -3.029  33.517  1.00  0.00     0.087 N 
HETATM   24  C1  UNL     1      12.000  -2.577  34.851  1.00  0.00     0.310 C 
HETATM   25  C29 UNL     1      10.857  -1.972  32.812  1.00  0.00     0.291 C 
HETATM   26  C28 UNL     1       9.890  -2.499  31.728  1.00  0.00     0.153 C 
ENDBRANCH  17  20
ENDBRANCH  12  14
ENDBRANCH   1  12
BRANCH   8  27
HETATM   27  C20 UNL     1       6.480  -8.546  27.369  1.00  0.00     0.091 C 
HETATM   28  C21 UNL     1       7.108  -7.348  26.628  1.00  0.00     0.026 C 
HETATM   29  C22 UNL     1       7.975  -6.633  27.660  1.00  0.00     0.002 C 
HETATM   30  C23 UNL     1       8.354  -7.724  28.646  1.00  0.00     0.002 C 
HETATM   31  C24 UNL     1       7.072  -8.529  28.786  1.00  0.00     0.026 C 
ENDBRANCH   8  27
BRANCH   7  32
HETATM   32  C13 UNL     1       4.773 -10.776  26.038  1.00  0.00     0.149 C 
BRANCH  32  33
HETATM   33  N5  UNL     1       6.210 -10.966  26.200  1.00  0.00    -0.287 NA
HETATM   34  H15 UNL     1       6.622 -10.197  26.718  1.00  0.00     0.128 HD
BRANCH  33  35
HETATM   35  C14 UNL     1       7.004 -11.281  25.087  1.00  0.00     0.008 A 
HETATM   36  C15 UNL     1       8.207 -10.633  24.781  1.00  0.00     0.023 A 
HETATM   37  C16 UNL     1       8.926 -10.948  23.622  1.00  0.00     0.002 A 
HETATM   38  C17 UNL     1       8.438 -11.897  22.730  1.00  0.00     0.000 A 
HETATM   39  C18 UNL     1       7.222 -12.519  22.990  1.00  0.00     0.002 A 
HETATM   40  C19 UNL     1       6.507 -12.199  24.149  1.00  0.00     0.023 A 
ENDBRANCH  33  35
ENDBRANCH  32  33
ENDBRANCH   7  32
TORSDOF 7
ENDMDL
MODEL 3
REMARK minimizedAffinity -9.34274101
REMARK  7 active torsions:
REMARK  status: ('A' for Active; 'I' for Inactive)
REMARK    1  A    between atoms: N2_5  and  C4_6 
REMARK    2  A    between atoms: C7_9  and  N3_10 
REMARK    3  A    between atoms: N3_10  and  C8_11 
REMARK    4  A    between atoms: C12_17  and  C13_18 
REMARK    5  A    between atoms: C13_18  and  N5_19 
REMARK    6  A    between atoms: N5_19  and  C14_20 
REMARK    7  A    between atoms: N6_26  and  C20_27 
ROOT
HETATM    1  C8  UNL     1       3.531  -5.864  29.004  1.00  0.00     0.684 A 
HETATM    2  N4  UNL     1       2.219  -6.030  28.745  1.00  0.00    -0.201 N 
ATOM      3  H4  UNL     1       1.536  -5.365  29.110  1.00  0.00     0.183 HD
HETATM    4  C9  UNL     1       1.813  -7.081  28.000  1.00  0.00     0.121 A 
HETATM    5  C10 UNL     1       2.752  -7.972  27.504  1.00  0.00     0.027 A 
HETATM    6  C11 UNL     1       2.740  -9.142  26.712  1.00  0.00     0.043 A 
HETATM    7  C12 UNL     1       4.049  -9.571  26.552  1.00  0.00     0.028 A 
HETATM    8  N6  UNL     1       4.861  -8.672  27.230  1.00  0.00    -0.330 N 
HETATM    9  C25 UNL     1       4.070  -7.709  27.825  1.00  0.00     0.135 A 
HETATM   10  N7  UNL     1       4.506  -6.685  28.577  1.00  0.00    -0.175 N 
ATOM     11  H7  UNL     1       5.491  -6.543  28.804  1.00  0.00     0.186 HD
ENDROOT
BRANCH   1  12
HETATM   12  N3  UNL     1       3.985  -4.792  29.772  1.00  0.00    -0.192 N 
HETATM   13  H10 UNL     1       3.189  -4.239  30.051  1.00  0.00     0.184 HD
BRANCH  12  14
HETATM   14  C7  UNL     1       5.200  -4.499  30.398  1.00  0.00     0.049 A 
HETATM   15  C6  UNL     1       6.213  -5.429  30.616  1.00  0.00     0.032 A 
HETATM   16  C5  UNL     1       7.419  -5.064  31.236  1.00  0.00     0.031 A 
HETATM   17  C4  UNL     1       7.679  -3.753  31.657  1.00  0.00     0.030 A 
HETATM   18  C27 UNL     1       6.667  -2.820  31.401  1.00  0.00     0.031 A 
HETATM   19  C26 UNL     1       5.458  -3.181  30.784  1.00  0.00     0.032 A 
BRANCH  17  20
HETATM   20  N2  UNL     1       8.867  -3.393  32.271  1.00  0.00    -0.378 N 
HETATM   21  C3  UNL     1       9.484  -4.253  33.297  1.00  0.00     0.153 C 
HETATM   22  C2  UNL     1      11.029  -4.166  33.254  1.00  0.00     0.291 C 
HETATM   23  N1  UNL     1      11.606  -2.809  33.357  1.00  0.00     0.087 N 
HETATM   24  C1  UNL     1      12.021  -2.500  34.723  1.00  0.00     0.310 C 
HETATM   25  C29 UNL     1      10.659  -1.785  32.862  1.00  0.00     0.291 C 
HETATM   26  C28 UNL     1       9.696  -2.289  31.762  1.00  0.00     0.153 C 
ENDBRANCH  17  20
ENDBRANCH  12  14
ENDBRANCH   1  12
BRANCH   8  27
HETATM   27  C20 UNL     1       6.313  -8.710  27.312  1.00  0.00     0.091 C 
HETATM   28  C21 UNL     1       6.900  -8.362  28.695  1.00  0.00     0.026 C 
HETATM   29  C22 UNL     1       7.754  -9.562  29.094  1.00  0.00     0.002 C 
HETATM   30  C23 UNL     1       8.173 -10.177  27.770  1.00  0.00     0.002 C 
HETATM   31  C24 UNL     1       6.915 -10.068  26.922  1.00  0.00     0.026 C 
ENDBRANCH   8  27
BRANCH   7  32
HETATM   32  C13 UNL     1       4.544 -10.755  25.780  1.00  0.00     0.149 C 
BRANCH  32  33
HETATM   33  N5  UNL     1       3.484 -11.666  25.361  1.00  0.00    -0.287 NA
HETATM   34  H15 UNL     1       2.617 -11.164  25.200  1.00  0.00     0.128 HD
BRANCH  33  35
HETATM   35  C14 UNL     1       3.238 -12.837  26.093  1.00  0.00     0.008 A 
HETATM   36  C15 UNL     1       3.773 -14.087  25.765  1.00  0.00     0.023 A 
HETATM   37  C16 UNL     1       3.442 -15.234  26.497  1.00  0.00     0.002 A 
HETATM   38  C17 UNL     1       2.543 -15.155  27.555  1.00  0.00     0.000 A 
HETATM   39  C18 UNL     1       1.962 -13.931  27.869  1.00  0.00     0.002 A 
HETATM   40  C19 UNL     1       2.296 -12.790  27.133  1.00  0.00     0.023 A 
ENDBRANCH  33  35
ENDBRANCH  32  33
ENDBRANCH   7  32
TORSDOF 7
ENDMDL
MODEL 4
REMARK minimizedAffinity -9.22625065
REMARK  7 active torsions:
REMARK  status: ('A' for Active; 'I' for Inactive)
REMARK    1  A    between atoms: N2_5  and  C4_6 
REMARK    2  A    between atoms: C7_9  and  N3_10 
REMARK    3  A    between atoms: N3_10  and  C8_11 
REMARK    4  A    between atoms: C12_17  and  C13_18 
REMARK    5  A    between atoms: C13_18  and  N5_19 
REMARK    6  A    between atoms: N5_19  and  C14_20 
REMARK    7  A    between atoms: N6_26  and  C20_27 
ROOT
HETATM    1  C8  UNL     1       4.613  -6.575  28.490  1.00  0.00     0.684 A 
HETATM    2  N4  UNL     1       3.602  -5.871  29.036  1.00  0.00    -0.201 N 
ATOM      3  H4  UNL     1       2.636  -6.088  28.793  1.00  0.00     0.183 HD
HETATM    4  C9  UNL     1       3.877  -4.876  29.907  1.00  0.00     0.121 A 
HETATM    5  C10 UNL     1       5.195  -4.597  30.236  1.00  0.00     0.027 A 
HETATM    6  C11 UNL     1       5.874  -3.685  31.073  1.00  0.00     0.043 A 
HETATM    7  C12 UNL     1       7.235  -3.929  30.968  1.00  0.00     0.028 A 
HETATM    8  N6  UNL     1       7.395  -4.985  30.081  1.00  0.00    -0.330 N 
HETATM    9  C25 UNL     1       6.154  -5.380  29.621  1.00  0.00     0.135 A 
HETATM   10  N7  UNL     1       5.917  -6.364  28.738  1.00  0.00    -0.175 N 
ATOM     11  H7  UNL     1       6.661  -6.903  28.294  1.00  0.00     0.186 HD
ENDROOT
BRANCH   1  12
HETATM   12  N3  UNL     1       4.366  -7.607  27.584  1.00  0.00    -0.192 N 
HETATM   13  H10 UNL     1       5.223  -7.809  27.089  1.00  0.00     0.184 HD
BRANCH  12  14
HETATM   14  C7  UNL     1       3.320  -8.519  27.421  1.00  0.00     0.049 A 
HETATM   15  C6  UNL     1       3.496  -9.867  27.121  1.00  0.00     0.032 A 
HETATM   16  C5  UNL     1       2.400 -10.736  26.989  1.00  0.00     0.031 A 
HETATM   17  C4  UNL     1       1.078 -10.306  27.161  1.00  0.00     0.030 A 
HETATM   18  C27 UNL     1       0.915  -8.956  27.496  1.00  0.00     0.031 A 
HETATM   19  C26 UNL     1       2.008  -8.083  27.627  1.00  0.00     0.032 A 
BRANCH  17  20
HETATM   20  N2  UNL     1      -0.003 -11.161  27.028  1.00  0.00    -0.378 N 
HETATM   21  C3  UNL     1      -0.755 -11.627  28.208  1.00  0.00     0.153 C 
HETATM   22  C2  UNL     1      -2.253 -11.833  27.879  1.00  0.00     0.291 C 
HETATM   23  N1  UNL     1      -2.550 -12.727  26.740  1.00  0.00     0.087 N 
HETATM   24  C1  UNL     1      -2.868 -14.081  27.183  1.00  0.00     0.310 C 
HETATM   25  C29 UNL     1      -1.432 -12.750  25.771  1.00  0.00     0.291 C 
HETATM   26  C28 UNL     1      -0.610 -11.442  25.717  1.00  0.00     0.153 C 
ENDBRANCH  17  20
ENDBRANCH  12  14
ENDBRANCH   1  12
BRANCH   8  27
HETATM   27  C20 UNL     1       8.653  -5.601  29.687  1.00  0.00     0.091 C 
HETATM   28  C21 UNL     1       8.830  -5.815  28.170  1.00  0.00     0.026 C 
HETATM   29  C22 UNL     1      10.118  -5.087  27.799  1.00  0.00     0.002 C 
HETATM   30  C23 UNL     1      10.932  -5.094  29.082  1.00  0.00     0.002 C 
HETATM   31  C24 UNL     1       9.891  -4.824  30.157  1.00  0.00     0.026 C 
ENDBRANCH   8  27
BRANCH   7  32
HETATM   32  C13 UNL     1       8.355  -3.232  31.677  1.00  0.00     0.149 C 
BRANCH  32  33
HETATM   33  N5  UNL     1       8.571  -3.707  33.040  1.00  0.00    -0.287 NA
HETATM   34  H15 UNL     1       7.807  -3.427  33.646  1.00  0.00     0.128 HD
BRANCH  33  35
HETATM   35  C14 UNL     1       9.801  -3.480  33.673  1.00  0.00     0.008 A 
HETATM   36  C15 UNL     1      10.129  -3.982  34.938  1.00  0.00     0.023 A 
HETATM   37  C16 UNL     1      11.351  -3.671  35.548  1.00  0.00     0.002 A 
HETATM   38  C17 UNL     1      12.255  -2.824  34.915  1.00  0.00     0.000 A 
HETATM   39  C18 UNL     1      11.929  -2.277  33.679  1.00  0.00     0.002 A 
HETATM   40  C19 UNL     1      10.707  -2.590  33.076  1.00  0.00     0.023 A 
ENDBRANCH  33  35
ENDBRANCH  32  33
ENDBRANCH   7  32
TORSDOF 7
ENDMDL
MODEL 5
REMARK minimizedAffinity -9.17539024
REMARK  7 active torsions:
REMARK  status: ('A' for Active; 'I' for Inactive)
REMARK    1  A    between atoms: N2_5  and  C4_6 
REMARK    2  A    between atoms: C7_9  and  N3_10 
REMARK    3  A    between atoms: N3_10  and  C8_11 
REMARK    4  A    between atoms: C12_17  and  C13_18 
REMARK    5  A    between atoms: C13_18  and  N5_19 
REMARK    6  A    between atoms: N5_19  and  C14_20 
REMARK    7  A    between atoms: N6_26  and  C20_27 
ROOT
HETATM    1  C8  UNL     1       3.926  -5.832  28.941  1.00  0.00     0.684 A 
HETATM    2  N4  UNL     1       3.676  -4.833  29.811  1.00  0.00    -0.201 N 
ATOM      3  H4  UNL     1       2.735  -4.447  29.891  1.00  0.00     0.183 HD
HETATM    4  C9  UNL     1       4.678  -4.347  30.575  1.00  0.00     0.121 A 
HETATM    5  C10 UNL     1       5.950  -4.886  30.461  1.00  0.00     0.027 A 
HETATM    6  C11 UNL     1       7.213  -4.675  31.058  1.00  0.00     0.043 A 
HETATM    7  C12 UNL     1       8.110  -5.575  30.506  1.00  0.00     0.028 A 
HETATM    8  N6  UNL     1       7.409  -6.339  29.582  1.00  0.00    -0.330 N 
HETATM    9  C25 UNL     1       6.098  -5.907  29.542  1.00  0.00     0.135 A 
HETATM   10  N7  UNL     1       5.129  -6.403  28.754  1.00  0.00    -0.175 N 
ATOM     11  H7  UNL     1       5.292  -7.146  28.075  1.00  0.00     0.186 HD
ENDROOT
BRANCH   1  12
HETATM   12  N3  UNL     1       2.917  -6.356  28.134  1.00  0.00    -0.192 N 
HETATM   13  H10 UNL     1       2.542  -5.610  27.567  1.00  0.00     0.184 HD
BRANCH  12  14
HETATM   14  C7  UNL     1       2.529  -7.655  27.795  1.00  0.00     0.049 A 
HETATM   15  C6  UNL     1       1.207  -8.091  27.752  1.00  0.00     0.032 A 
HETATM   16  C5  UNL     1       0.884  -9.408  27.384  1.00  0.00     0.031 A 
HETATM   17  C4  UNL     1       1.860 -10.349  27.030  1.00  0.00     0.030 A 
HETATM   18  C27 UNL     1       3.182  -9.889  27.044  1.00  0.00     0.031 A 
HETATM   19  C26 UNL     1       3.511  -8.573  27.414  1.00  0.00     0.032 A 
BRANCH  17  20
HETATM   20  N2  UNL     1       1.542 -11.647  26.671  1.00  0.00    -0.378 N 
HETATM   21  C3  UNL     1       2.064 -12.797  27.431  1.00  0.00     0.153 C 
HETATM   22  C2  UNL     1       1.055 -13.971  27.447  1.00  0.00     0.291 C 
HETATM   23  N1  UNL     1       0.590 -14.444  26.126  1.00  0.00     0.087 N 
HETATM   24  C1  UNL     1       1.339 -15.613  25.674  1.00  0.00     0.310 C 
HETATM   25  C29 UNL     1       0.659 -13.365  25.115  1.00  0.00     0.291 C 
HETATM   26  C28 UNL     1       0.482 -11.941  25.692  1.00  0.00     0.153 C 
ENDBRANCH  17  20
ENDBRANCH  12  14
ENDBRANCH   1  12
BRANCH   8  27
HETATM   27  C20 UNL     1       7.942  -7.428  28.778  1.00  0.00     0.091 C 
HETATM   28  C21 UNL     1       9.469  -7.400  28.565  1.00  0.00     0.026 C 
HETATM   29  C22 UNL     1       9.983  -8.740  29.083  1.00  0.00     0.002 C 
HETATM   30  C23 UNL     1       8.800  -9.678  28.921  1.00  0.00     0.002 C 
HETATM   31  C24 UNL     1       7.615  -8.821  29.337  1.00  0.00     0.026 C 
ENDBRANCH   8  27
BRANCH   7  32
HETATM   32  C13 UNL     1       9.562  -5.747  30.830  1.00  0.00     0.149 C 
BRANCH  32  33
HETATM   33  N5  UNL     1      10.224  -4.510  31.230  1.00  0.00    -0.287 NA
HETATM   34  H15 UNL     1      11.054  -4.344  30.669  1.00  0.00     0.128 HD
BRANCH  33  35
HETATM   35  C14 UNL     1      10.498  -4.269  32.584  1.00  0.00     0.008 A 
HETATM   36  C15 UNL     1       9.615  -4.580  33.624  1.00  0.00     0.023 A 
HETATM   37  C16 UNL     1       9.917  -4.260  34.954  1.00  0.00     0.002 A 
HETATM   38  C17 UNL     1      11.097  -3.594  35.263  1.00  0.00     0.000 A 
HETATM   39  C18 UNL     1      11.968  -3.232  34.241  1.00  0.00     0.002 A 
HETATM   40  C19 UNL     1      11.660  -3.554  32.915  1.00  0.00     0.023 A 
ENDBRANCH  33  35
ENDBRANCH  32  33
ENDBRANCH   7  32
TORSDOF 7
ENDMDL
MODEL 6
REMARK minimizedAffinity -9.15713215
REMARK  7 active torsions:
REMARK  status: ('A' for Active; 'I' for Inactive)
REMARK    1  A    between atoms: N2_5  and  C4_6 
REMARK    2  A    between atoms: C7_9  and  N3_10 
REMARK    3  A    between atoms: N3_10  and  C8_11 
REMARK    4  A    between atoms: C12_17  and  C13_18 
REMARK    5  A    between atoms: C13_18  and  N5_19 
REMARK    6  A    between atoms: N5_19  and  C14_20 
REMARK    7  A    between atoms: N6_26  and  C20_27 
ROOT
HETATM    1  C8  UNL     1       7.045  -9.339  28.132  1.00  0.00     0.684 A 
HETATM    2  N4  UNL     1       8.247  -9.905  28.360  1.00  0.00    -0.201 N 
ATOM      3  H4  UNL     1       8.427 -10.864  28.062  1.00  0.00     0.183 HD
HETATM    4  C9  UNL     1       9.211  -9.195  28.985  1.00  0.00     0.121 A 
HETATM    5  C10 UNL     1       8.956  -7.890  29.377  1.00  0.00     0.027 A 
HETATM    6  C11 UNL     1       9.667  -6.853  30.021  1.00  0.00     0.043 A 
HETATM    7  C12 UNL     1       8.835  -5.748  30.113  1.00  0.00     0.028 A 
HETATM    8  N6  UNL     1       7.626  -6.095  29.525  1.00  0.00    -0.330 N 
HETATM    9  C25 UNL     1       7.693  -7.405  29.094  1.00  0.00     0.135 A 
HETATM   10  N7  UNL     1       6.706  -8.089  28.491  1.00  0.00    -0.175 N 
ATOM     11  H7  UNL     1       5.781  -7.693  28.320  1.00  0.00     0.186 HD
ENDROOT
BRANCH   1  12
HETATM   12  N3  UNL     1       6.025 -10.043  27.493  1.00  0.00    -0.192 N 
HETATM   13  H10 UNL     1       6.029 -10.993  27.836  1.00  0.00     0.184 HD
BRANCH  12  14
HETATM   14  C7  UNL     1       4.922  -9.661  26.724  1.00  0.00     0.049 A 
HETATM   15  C6  UNL     1       5.008  -9.135  25.439  1.00  0.00     0.032 A 
HETATM   16  C5  UNL     1       3.857  -8.788  24.712  1.00  0.00     0.031 A 
HETATM   17  C4  UNL     1       2.565  -8.959  25.228  1.00  0.00     0.030 A 
HETATM   18  C27 UNL     1       2.490  -9.520  26.509  1.00  0.00     0.031 A 
HETATM   19  C26 UNL     1       3.639  -9.867  27.239  1.00  0.00     0.032 A 
BRANCH  17  20
HETATM   20  N2  UNL     1       1.431  -8.614  24.514  1.00  0.00    -0.378 N 
HETATM   21  C3  UNL     1       1.386  -8.742  23.046  1.00  0.00     0.153 C 
HETATM   22  C2  UNL     1      -0.034  -9.107  22.552  1.00  0.00     0.291 C 
HETATM   23  N1  UNL     1      -1.123  -8.206  22.985  1.00  0.00     0.087 N 
HETATM   24  C1  UNL     1      -1.449  -7.218  21.960  1.00  0.00     0.310 C 
HETATM   25  C29 UNL     1      -0.787  -7.534  24.260  1.00  0.00     0.291 C 
HETATM   26  C28 UNL     1       0.146  -8.352  25.183  1.00  0.00     0.153 C 
ENDBRANCH  17  20
ENDBRANCH  12  14
ENDBRANCH   1  12
BRANCH   8  27
HETATM   27  C20 UNL     1       6.461  -5.237  29.369  1.00  0.00     0.091 C 
HETATM   28  C21 UNL     1       5.534  -5.598  28.192  1.00  0.00     0.026 C 
HETATM   29  C22 UNL     1       4.155  -5.822  28.806  1.00  0.00     0.002 C 
HETATM   30  C23 UNL     1       4.166  -4.970  30.063  1.00  0.00     0.002 C 
HETATM   31  C24 UNL     1       5.566  -5.183  30.617  1.00  0.00     0.026 C 
ENDBRANCH   8  27
BRANCH   7  32
HETATM   32  C13 UNL     1       9.144  -4.405  30.699  1.00  0.00     0.149 C 
BRANCH  32  33
HETATM   33  N5  UNL     1       8.947  -4.337  32.143  1.00  0.00    -0.287 NA
HETATM   34  H15 UNL     1       8.063  -3.891  32.367  1.00  0.00     0.128 HD
BRANCH  33  35
HETATM   35  C14 UNL     1       9.965  -3.835  32.966  1.00  0.00     0.008 A 
HETATM   36  C15 UNL     1      10.143  -4.213  34.302  1.00  0.00     0.023 A 
HETATM   37  C16 UNL     1      11.141  -3.632  35.094  1.00  0.00     0.002 A 
HETATM   38  C17 UNL     1      11.960  -2.638  34.571  1.00  0.00     0.000 A 
HETATM   39  C18 UNL     1      11.771  -2.213  33.261  1.00  0.00     0.002 A 
HETATM   40  C19 UNL     1      10.772  -2.797  32.475  1.00  0.00     0.023 A 
ENDBRANCH  33  35
ENDBRANCH  32  33
ENDBRANCH   7  32
TORSDOF 7
ENDMDL
MODEL 7
REMARK minimizedAffinity -9.12772179
REMARK  7 active torsions:
REMARK  status: ('A' for Active; 'I' for Inactive)
REMARK    1  A    between atoms: N2_5  and  C4_6 
REMARK    2  A    between atoms: C7_9  and  N3_10 
REMARK    3  A    between atoms: N3_10  and  C8_11 
REMARK    4  A    between atoms: C12_17  and  C13_18 
REMARK    5  A    between atoms: C13_18  and  N5_19 
REMARK    6  A    between atoms: N5_19  and  C14_20 
REMARK    7  A    between atoms: N6_26  and  C20_27 
ROOT
HETATM    1  C8  UNL     1       4.633  -6.825  28.623  1.00  0.00     0.684 A 
HETATM    2  N4  UNL     1       3.607  -6.033  28.993  1.00  0.00    -0.201 N 
ATOM      3  H4  UNL     1       2.656  -6.255  28.698  1.00  0.00     0.183 HD
HETATM    4  C9  UNL     1       3.846  -4.945  29.757  1.00  0.00     0.121 A 
HETATM    5  C10 UNL     1       5.143  -4.660  30.158  1.00  0.00     0.027 A 
HETATM    6  C11 UNL     1       5.784  -3.668  30.932  1.00  0.00     0.043 A 
HETATM    7  C12 UNL     1       7.139  -3.957  30.971  1.00  0.00     0.028 A 
HETATM    8  N6  UNL     1       7.332  -5.119  30.236  1.00  0.00    -0.330 N 
HETATM    9  C25 UNL     1       6.119  -5.536  29.725  1.00  0.00     0.135 A 
HETATM   10  N7  UNL     1       5.920  -6.617  28.951  1.00  0.00    -0.175 N 
ATOM     11  H7  UNL     1       6.678  -7.225  28.641  1.00  0.00     0.186 HD
ENDROOT
BRANCH   1  12
HETATM   12  N3  UNL     1       4.424  -7.954  27.832  1.00  0.00    -0.192 N 
HETATM   13  H10 UNL     1       4.830  -8.751  28.300  1.00  0.00     0.184 HD
BRANCH  12  14
HETATM   14  C7  UNL     1       3.603  -8.226  26.734  1.00  0.00     0.049 A 
HETATM   15  C6  UNL     1       2.214  -8.138  26.754  1.00  0.00     0.032 A 
HETATM   16  C5  UNL     1       1.447  -8.407  25.608  1.00  0.00     0.031 A 
HETATM   17  C4  UNL     1       2.029  -8.764  24.384  1.00  0.00     0.030 A 
HETATM   18  C27 UNL     1       3.428  -8.816  24.367  1.00  0.00     0.031 A 
HETATM   19  C26 UNL     1       4.198  -8.550  25.512  1.00  0.00     0.032 A 
BRANCH  17  20
HETATM   20  N2  UNL     1       1.274  -9.032  23.255  1.00  0.00    -0.378 N 
HETATM   21  C3  UNL     1      -0.056  -8.423  23.066  1.00  0.00     0.153 C 
HETATM   22  C2  UNL     1      -0.348  -8.156  21.570  1.00  0.00     0.291 C 
HETATM   23  N1  UNL     1      -0.223  -9.320  20.667  1.00  0.00     0.087 N 
HETATM   24  C1  UNL     1      -1.518  -9.941  20.402  1.00  0.00     0.310 C 
HETATM   25  C29 UNL     1       0.727 -10.317  21.207  1.00  0.00     0.291 C 
HETATM   26  C28 UNL     1       1.848  -9.716  22.086  1.00  0.00     0.153 C 
ENDBRANCH  17  20
ENDBRANCH  12  14
ENDBRANCH   1  12
BRANCH   8  27
HETATM   27  C20 UNL     1       8.596  -5.810  30.026  1.00  0.00     0.091 C 
HETATM   28  C21 UNL     1       8.472  -7.295  29.627  1.00  0.00     0.026 C 
HETATM   29  C22 UNL     1       9.221  -7.430  28.305  1.00  0.00     0.002 C 
HETATM   30  C23 UNL     1      10.251  -6.316  28.346  1.00  0.00     0.002 C 
HETATM   31  C24 UNL     1       9.485  -5.154  28.959  1.00  0.00     0.026 C 
ENDBRANCH   8  27
BRANCH   7  32
HETATM   32  C13 UNL     1       8.223  -3.206  31.681  1.00  0.00     0.149 C 
BRANCH  32  33
HETATM   33  N5  UNL     1       8.520  -3.725  33.012  1.00  0.00    -0.287 NA
HETATM   34  H15 UNL     1       7.771  -3.507  33.662  1.00  0.00     0.128 HD
BRANCH  33  35
HETATM   35  C14 UNL     1       9.765  -3.464  33.603  1.00  0.00     0.008 A 
HETATM   36  C15 UNL     1      10.148  -3.952  34.858  1.00  0.00     0.023 A 
HETATM   37  C16 UNL     1      11.381  -3.608  35.425  1.00  0.00     0.002 A 
HETATM   38  C17 UNL     1      12.241  -2.742  34.760  1.00  0.00     0.000 A 
HETATM   39  C18 UNL     1      11.861  -2.208  33.534  1.00  0.00     0.002 A 
HETATM   40  C19 UNL     1      10.628  -2.555  32.973  1.00  0.00     0.023 A 
ENDBRANCH  33  35
ENDBRANCH  32  33
ENDBRANCH   7  32
TORSDOF 7
ENDMDL
MODEL 8
REMARK minimizedAffinity -9.0962677
REMARK  7 active torsions:
REMARK  status: ('A' for Active; 'I' for Inactive)
REMARK    1  A    between atoms: N2_5  and  C4_6 
REMARK    2  A    between atoms: C7_9  and  N3_10 
REMARK    3  A    between atoms: N3_10  and  C8_11 
REMARK    4  A    between atoms: C12_17  and  C13_18 
REMARK    5  A    between atoms: C13_18  and  N5_19 
REMARK    6  A    between atoms: N5_19  and  C14_20 
REMARK    7  A    between atoms: N6_26  and  C20_27 
ROOT
HETATM    1  C8  UNL     1       5.953  -9.437  27.360  1.00  0.00     0.684 A 
HETATM    2  N4  UNL     1       6.972 -10.310  27.484  1.00  0.00    -0.201 N 
ATOM      3  H4  UNL     1       6.902 -11.242  27.075  1.00  0.00     0.183 HD
HETATM    4  C9  UNL     1       8.087  -9.943  28.153  1.00  0.00     0.121 A 
HETATM    5  C10 UNL     1       8.173  -8.671  28.697  1.00  0.00     0.027 A 
HETATM    6  C11 UNL     1       9.126  -7.929  29.429  1.00  0.00     0.043 A 
HETATM    7  C12 UNL     1       8.602  -6.668  29.670  1.00  0.00     0.028 A 
HETATM    8  N6  UNL     1       7.343  -6.629  29.087  1.00  0.00    -0.330 N 
HETATM    9  C25 UNL     1       7.074  -7.854  28.510  1.00  0.00     0.135 A 
HETATM   10  N7  UNL     1       5.944  -8.192  27.867  1.00  0.00    -0.175 N 
ATOM     11  H7  UNL     1       5.149  -7.559  27.771  1.00  0.00     0.186 HD
ENDROOT
BRANCH   1  12
HETATM   12  N3  UNL     1       4.786  -9.782  26.679  1.00  0.00    -0.192 N 
HETATM   13  H10 UNL     1       5.034 -10.378  25.903  1.00  0.00     0.184 HD
BRANCH  12  14
HETATM   14  C7  UNL     1       3.426  -9.687  26.984  1.00  0.00     0.049 A 
HETATM   15  C6  UNL     1       2.793  -8.513  27.384  1.00  0.00     0.032 A 
HETATM   16  C5  UNL     1       1.415  -8.482  27.658  1.00  0.00     0.031 A 
HETATM   17  C4  UNL     1       0.601  -9.615  27.537  1.00  0.00     0.030 A 
HETATM   18  C27 UNL     1       1.242 -10.782  27.102  1.00  0.00     0.031 A 
HETATM   19  C26 UNL     1       2.620 -10.818  26.828  1.00  0.00     0.032 A 
BRANCH  17  20
HETATM   20  N2  UNL     1      -0.756  -9.586  27.810  1.00  0.00    -0.378 N 
HETATM   21  C3  UNL     1      -1.575  -8.408  27.470  1.00  0.00     0.153 C 
HETATM   22  C2  UNL     1      -3.017  -8.814  27.083  1.00  0.00     0.291 C 
HETATM   23  N1  UNL     1      -3.748  -9.635  28.072  1.00  0.00     0.087 N 
HETATM   24  C1  UNL     1      -4.625  -8.821  28.909  1.00  0.00     0.310 C 
HETATM   25  C29 UNL     1      -2.815 -10.419  28.911  1.00  0.00     0.291 C 
HETATM   26  C28 UNL     1      -1.491 -10.797  28.208  1.00  0.00     0.153 C 
ENDBRANCH  17  20
ENDBRANCH  12  14
ENDBRANCH   1  12
BRANCH   8  27
HETATM   27  C20 UNL     1       6.434  -5.492  29.066  1.00  0.00     0.091 C 
HETATM   28  C21 UNL     1       5.036  -5.782  28.483  1.00  0.00     0.026 C 
HETATM   29  C22 UNL     1       4.045  -5.394  29.576  1.00  0.00     0.002 C 
HETATM   30  C23 UNL     1       4.776  -4.335  30.381  1.00  0.00     0.002 C 
HETATM   31  C24 UNL     1       6.199  -4.868  30.449  1.00  0.00     0.026 C 
ENDBRANCH   8  27
BRANCH   7  32
HETATM   32  C13 UNL     1       9.244  -5.524  30.392  1.00  0.00     0.149 C 
BRANCH  32  33
HETATM   33  N5  UNL     1      10.190  -5.939  31.424  1.00  0.00    -0.287 NA
HETATM   34  H15 UNL     1       9.997  -6.887  31.732  1.00  0.00     0.128 HD
BRANCH  33  35
HETATM   35  C14 UNL     1      10.429  -5.110  32.529  1.00  0.00     0.008 A 
HETATM   36  C15 UNL     1      11.614  -4.390  32.719  1.00  0.00     0.023 A 
HETATM   37  C16 UNL     1      11.822  -3.625  33.874  1.00  0.00     0.002 A 
HETATM   38  C17 UNL     1      10.858  -3.593  34.875  1.00  0.00     0.000 A 
HETATM   39  C18 UNL     1       9.693  -4.338  34.729  1.00  0.00     0.002 A 
HETATM   40  C19 UNL     1       9.492  -5.101  33.574  1.00  0.00     0.023 A 
ENDBRANCH  33  35
ENDBRANCH  32  33
ENDBRANCH   7  32
TORSDOF 7
ENDMDL
MODEL 9
REMARK minimizedAffinity -8.9474926
REMARK  7 active torsions:
REMARK  status: ('A' for Active; 'I' for Inactive)
REMARK    1  A    between atoms: N2_5  and  C4_6 
REMARK    2  A    between atoms: C7_9  and  N3_10 
REMARK    3  A    between atoms: N3_10  and  C8_11 
REMARK    4  A    between atoms: C12_17  and  C13_18 
REMARK    5  A    between atoms: C13_18  and  N5_19 
REMARK    6  A    between atoms: N5_19  and  C14_20 
REMARK    7  A    between atoms: N6_26  and  C20_27 
ROOT
HETATM    1  C8  UNL     1       3.758  -7.789  27.713  1.00  0.00     0.684 A 
HETATM    2  N4  UNL     1       2.939  -6.842  28.211  1.00  0.00    -0.201 N 
ATOM      3  H4  UNL     1       1.950  -6.836  27.962  1.00  0.00     0.183 HD
HETATM    4  C9  UNL     1       3.437  -5.901  29.042  1.00  0.00     0.121 A 
HETATM    5  C10 UNL     1       4.781  -5.925  29.379  1.00  0.00     0.027 A 
HETATM    6  C11 UNL     1       5.652  -5.160  30.187  1.00  0.00     0.043 A 
HETATM    7  C12 UNL     1       6.917  -5.723  30.115  1.00  0.00     0.028 A 
HETATM    8  N6  UNL     1       6.828  -6.827  29.279  1.00  0.00    -0.330 N 
HETATM    9  C25 UNL     1       5.531  -6.939  28.816  1.00  0.00     0.135 A 
HETATM   10  N7  UNL     1       5.074  -7.880  27.973  1.00  0.00    -0.175 N 
ATOM     11  H7  UNL     1       5.672  -8.600  27.566  1.00  0.00     0.186 HD
ENDROOT
BRANCH   1  12
HETATM   12  N3  UNL     1       3.280  -8.775  26.850  1.00  0.00    -0.192 N 
HETATM   13  H10 UNL     1       3.365  -9.670  27.309  1.00  0.00     0.184 HD
BRANCH  12  14
HETATM   14  C7  UNL     1       2.526  -8.745  25.673  1.00  0.00     0.049 A 
HETATM   15  C6  UNL     1       1.165  -8.459  25.622  1.00  0.00     0.032 A 
HETATM   16  C5  UNL     1       0.470  -8.427  24.401  1.00  0.00     0.031 A 
HETATM   17  C4  UNL     1       1.100  -8.667  23.173  1.00  0.00     0.030 A 
HETATM   18  C27 UNL     1       2.476  -8.921  23.235  1.00  0.00     0.031 A 
HETATM   19  C26 UNL     1       3.175  -8.956  24.453  1.00  0.00     0.032 A 
BRANCH  17  20
HETATM   20  N2  UNL     1       0.416  -8.639  21.971  1.00  0.00    -0.378 N 
HETATM   21  C3  UNL     1       1.003  -8.007  20.775  1.00  0.00     0.153 C 
HETATM   22  C2  UNL     1       0.564  -8.731  19.479  1.00  0.00     0.291 C 
HETATM   23  N1  UNL     1      -0.894  -8.871  19.277  1.00  0.00     0.087 N 
HETATM   24  C1  UNL     1      -1.422  -7.828  18.403  1.00  0.00     0.310 C 
HETATM   25  C29 UNL     1      -1.615  -8.878  20.569  1.00  0.00     0.291 C 
HETATM   26  C28 UNL     1      -0.797  -9.444  21.751  1.00  0.00     0.153 C 
ENDBRANCH  17  20
ENDBRANCH  12  14
ENDBRANCH   1  12
BRANCH   8  27
HETATM   27  C20 UNL     1       7.906  -7.741  28.933  1.00  0.00     0.091 C 
HETATM   28  C21 UNL     1       7.616  -9.231  29.204  1.00  0.00     0.026 C 
HETATM   29  C22 UNL     1       7.809  -9.939  27.867  1.00  0.00     0.002 C 
HETATM   30  C23 UNL     1       8.798  -9.060  27.121  1.00  0.00     0.002 C 
HETATM   31  C24 UNL     1       8.339  -7.651  27.462  1.00  0.00     0.026 C 
ENDBRANCH   8  27
BRANCH   7  32
HETATM   32  C13 UNL     1       8.166  -5.278  30.811  1.00  0.00     0.149 C 
BRANCH  32  33
HETATM   33  N5  UNL     1       7.949  -4.204  31.775  1.00  0.00    -0.287 NA
HETATM   34  H15 UNL     1       7.353  -3.481  31.384  1.00  0.00     0.128 HD
BRANCH  33  35
HETATM   35  C14 UNL     1       9.041  -3.627  32.438  1.00  0.00     0.008 A 
HETATM   36  C15 UNL     1       9.566  -2.368  32.122  1.00  0.00     0.023 A 
HETATM   37  C16 UNL     1      10.699  -1.869  32.777  1.00  0.00     0.002 A 
HETATM   38  C17 UNL     1      11.346  -2.635  33.740  1.00  0.00     0.000 A 
HETATM   39  C18 UNL     1      10.870  -3.907  34.036  1.00  0.00     0.002 A 
HETATM   40  C19 UNL     1       9.739  -4.401  33.378  1.00  0.00     0.023 A 
ENDBRANCH  33  35
ENDBRANCH  32  33
ENDBRANCH   7  32
TORSDOF 7
ENDMDL
