MODEL 1
REMARK minimizedAffinity -10.3071499
REMARK  4 active torsions:
REMARK  status: ('A' for Active; 'I' for Inactive)
REMARK    1  A    between atoms: C3_3  and  C4_4 
REMARK       I    between atoms: C4_4  and  N1_6 
REMARK    2  A    between atoms: N1_6  and  C5_7 
REMARK    3  A    between atoms: C9_11  and  C10_12 
REMARK    4  A    between atoms: C13_17  and  C14_18 
ROOT
HETATM    1  C1  UNL     1      -9.820   9.951  15.682  1.00  0.00     0.112 C 
HETATM    2  C2  UNL     1      -8.932   8.848  15.314  1.00  0.00    -0.101 C 
HETATM    3  C3  UNL     1      -8.211   7.937  15.007  1.00  0.00    -0.006 C 
ENDROOT
BRANCH   3   4
HETATM    4  C4  UNL     1      -7.331   6.846  14.633  1.00  0.00     0.300 C 
HETATM    5  O1  UNL     1      -6.201   6.834  15.092  1.00  0.00    -0.258 OA
HETATM    6  N1  UNL     1      -7.918   5.939  13.780  1.00  0.00    -0.316 N 
HETATM    7  H4  UNL     1      -8.874   6.144  13.520  1.00  0.00     0.170 HD
BRANCH   6   8
HETATM    8  C5  UNL     1      -7.356   4.766  13.240  1.00  0.00     0.036 A 
HETATM    9  C6  UNL     1      -8.217   3.678  13.058  1.00  0.00     0.029 A 
HETATM   10  C7  UNL     1      -7.739   2.478  12.538  1.00  0.00     0.003 A 
HETATM   11  C8  UNL     1      -6.393   2.355  12.196  1.00  0.00     0.015 A 
HETATM   12  C9  UNL     1      -5.493   3.425  12.362  1.00  0.00     0.010 A 
HETATM   13  C25 UNL     1      -6.007   4.630  12.890  1.00  0.00     0.044 A 
BRANCH  12  14
HETATM   14  C10 UNL     1      -4.066   3.286  12.001  1.00  0.00     0.116 A 
HETATM   15  N2  UNL     1      -3.634   2.083  11.579  1.00  0.00    -0.352 N 
HETATM   16  C11 UNL     1      -2.332   1.984  11.257  1.00  0.00     0.092 A 
ATOM     17  H2  UNL     1      -4.264   1.284  11.509  1.00  0.00     0.166 HD
HETATM   18  C12 UNL     1      -1.450   3.033  11.335  1.00  0.00     0.049 A 
HETATM   19  C13 UNL     1      -1.984   4.225  11.770  1.00  0.00     0.062 A 
HETATM   20  N6  UNL     1      -3.281   4.377  12.112  1.00  0.00    -0.340 N 
ATOM     21  H6  UNL     1      -3.649   5.271  12.438  1.00  0.00     0.167 HD
BRANCH  19  22
HETATM   22  C14 UNL     1      -1.190   5.444  11.899  1.00  0.00     0.060 A 
HETATM   23  C15 UNL     1      -1.438   6.660  12.518  1.00  0.00     0.051 A 
HETATM   24  C16 UNL     1      -0.307   7.494  12.325  1.00  0.00     0.057 A 
HETATM   25  C17 UNL     1       0.615   6.759  11.602  1.00  0.00     0.036 A 
HETATM   26  C24 UNL     1      -0.061   8.869  12.734  1.00  0.00     0.253 C 
HETATM   27  N3  UNL     1       0.067   5.536  11.335  1.00  0.00    -0.356 N 
HETATM   28  C18 UNL     1       1.961   7.281  11.146  1.00  0.00     0.022 C 
HETATM   29  H11 UNL     1       0.484   4.782  10.803  1.00  0.00     0.166 HD
HETATM   30  C19 UNL     1       3.066   6.197  11.225  1.00  0.00     0.047 C 
HETATM   31  C22 UNL     1       1.840   7.848   9.706  1.00  0.00     0.047 C 
HETATM   32  C23 UNL     1       2.313   8.454  12.128  1.00  0.00     0.138 C 
HETATM   33  C20 UNL     1       4.112   6.395  10.133  1.00  0.00     0.270 C 
HETATM   34  N4  UNL     1       3.540   6.260   8.794  1.00  0.00     0.083 N 
HETATM   35  C21 UNL     1       2.185   6.794   8.658  1.00  0.00     0.270 C 
HETATM   36  H16 UNL     1       4.161   6.701   8.115  1.00  0.00     0.315 HD
HETATM   37  N5  UNL     1       1.194   9.350  12.409  1.00  0.00    -0.356 N 
HETATM   38  H23 UNL     1       1.380  10.258  12.815  1.00  0.00     0.162 HD
HETATM   39  O2  UNL     1      -0.888   9.569  13.307  1.00  0.00    -0.268 OA
ENDBRANCH  19  22
ENDBRANCH  12  14
ENDBRANCH   6   8
ENDBRANCH   3   4
TORSDOF 4
ENDMDL
MODEL 2
REMARK minimizedAffinity -9.65184498
REMARK  4 active torsions:
REMARK  status: ('A' for Active; 'I' for Inactive)
REMARK    1  A    between atoms: C3_3  and  C4_4 
REMARK       I    between atoms: C4_4  and  N1_6 
REMARK    2  A    between atoms: N1_6  and  C5_7 
REMARK    3  A    between atoms: C9_11  and  C10_12 
REMARK    4  A    between atoms: C13_17  and  C14_18 
ROOT
HETATM    1  C1  UNL     1       1.191   4.758  11.112  1.00  0.00     0.112 C 
HETATM    2  C2  UNL     1      -0.120   4.759  11.759  1.00  0.00    -0.101 C 
HETATM    3  C3  UNL     1      -1.194   4.766  12.299  1.00  0.00    -0.006 C 
ENDROOT
BRANCH   3   4
HETATM    4  C4  UNL     1      -2.496   4.777  12.940  1.00  0.00     0.300 C 
HETATM    5  O1  UNL     1      -2.607   5.354  14.009  1.00  0.00    -0.258 OA
HETATM    6  N1  UNL     1      -3.462   4.107  12.225  1.00  0.00    -0.316 N 
HETATM    7  H4  UNL     1      -3.151   3.694  11.356  1.00  0.00     0.170 HD
BRANCH   6   8
HETATM    8  C5  UNL     1      -4.823   3.940  12.550  1.00  0.00     0.036 A 
HETATM    9  C6  UNL     1      -5.472   2.829  12.000  1.00  0.00     0.029 A 
HETATM   10  C7  UNL     1      -6.819   2.596  12.264  1.00  0.00     0.003 A 
HETATM   11  C8  UNL     1      -7.530   3.474  13.081  1.00  0.00     0.015 A 
HETATM   12  C9  UNL     1      -6.915   4.602  13.656  1.00  0.00     0.010 A 
HETATM   13  C25 UNL     1      -5.547   4.811  13.372  1.00  0.00     0.044 A 
BRANCH  12  14
HETATM   14  C10 UNL     1      -7.676   5.530  14.520  1.00  0.00     0.116 A 
HETATM   15  N2  UNL     1      -7.138   5.877  15.704  1.00  0.00    -0.352 N 
HETATM   16  C11 UNL     1      -7.850   6.722  16.471  1.00  0.00     0.092 A 
ATOM     17  H2  UNL     1      -6.233   5.515  16.005  1.00  0.00     0.166 HD
HETATM   18  C12 UNL     1      -9.069   7.235  16.102  1.00  0.00     0.049 A 
HETATM   19  C13 UNL     1      -9.536   6.828  14.873  1.00  0.00     0.062 A 
HETATM   20  N6  UNL     1      -8.864   5.977  14.068  1.00  0.00    -0.340 N 
ATOM     21  H6  UNL     1      -9.237   5.688  13.163  1.00  0.00     0.167 HD
BRANCH  19  22
HETATM   22  C14 UNL     1     -10.808   7.287  14.322  1.00  0.00     0.060 A 
HETATM   23  C15 UNL     1     -11.123   8.246  13.371  1.00  0.00     0.051 A 
HETATM   24  C16 UNL     1     -12.534   8.277  13.223  1.00  0.00     0.057 A 
HETATM   25  C17 UNL     1     -13.048   7.321  14.081  1.00  0.00     0.036 A 
HETATM   26  C24 UNL     1     -13.382   9.116  12.391  1.00  0.00     0.253 C 
HETATM   27  N3  UNL     1     -12.004   6.746  14.749  1.00  0.00    -0.356 N 
HETATM   28  C18 UNL     1     -14.524   7.040  14.267  1.00  0.00     0.022 C 
HETATM   29  H11 UNL     1     -12.056   6.029  15.463  1.00  0.00     0.166 HD
HETATM   30  C19 UNL     1     -14.811   5.530  14.462  1.00  0.00     0.047 C 
HETATM   31  C22 UNL     1     -15.066   7.868  15.462  1.00  0.00     0.047 C 
HETATM   32  C23 UNL     1     -15.216   7.535  12.947  1.00  0.00     0.138 C 
HETATM   33  C20 UNL     1     -16.017   5.310  15.370  1.00  0.00     0.270 C 
HETATM   34  N4  UNL     1     -15.791   5.832  16.717  1.00  0.00     0.083 N 
HETATM   35  C21 UNL     1     -15.016   7.073  16.763  1.00  0.00     0.270 C 
HETATM   36  H16 UNL     1     -16.689   5.962  17.185  1.00  0.00     0.315 HD
HETATM   37  N5  UNL     1     -14.733   8.828  12.471  1.00  0.00    -0.356 N 
HETATM   38  H23 UNL     1     -15.281   9.339  11.791  1.00  0.00     0.162 HD
HETATM   39  O2  UNL     1     -12.960  10.022  11.681  1.00  0.00    -0.268 OA
ENDBRANCH  19  22
ENDBRANCH  12  14
ENDBRANCH   6   8
ENDBRANCH   3   4
TORSDOF 4
ENDMDL
MODEL 3
REMARK minimizedAffinity -9.58732319
REMARK  4 active torsions:
REMARK  status: ('A' for Active; 'I' for Inactive)
REMARK    1  A    between atoms: C3_3  and  C4_4 
REMARK       I    between atoms: C4_4  and  N1_6 
REMARK    2  A    between atoms: N1_6  and  C5_7 
REMARK    3  A    between atoms: C9_11  and  C10_12 
REMARK    4  A    between atoms: C13_17  and  C14_18 
ROOT
HETATM    1  C1  UNL     1     -11.059   7.629  13.808  1.00  0.00     0.112 C 
HETATM    2  C2  UNL     1      -9.901   6.737  13.795  1.00  0.00    -0.101 C 
HETATM    3  C3  UNL     1      -8.942   6.012  13.785  1.00  0.00    -0.006 C 
ENDROOT
BRANCH   3   4
HETATM    4  C4  UNL     1      -7.790   5.129  13.780  1.00  0.00     0.300 C 
HETATM    5  O1  UNL     1      -7.134   5.034  14.804  1.00  0.00    -0.258 OA
HETATM    6  N1  UNL     1      -7.591   4.497  12.574  1.00  0.00    -0.316 N 
HETATM    7  H4  UNL     1      -8.259   4.725  11.849  1.00  0.00     0.170 HD
BRANCH   6   8
HETATM    8  C5  UNL     1      -6.584   3.573  12.235  1.00  0.00     0.036 A 
HETATM    9  C6  UNL     1      -7.000   2.279  11.901  1.00  0.00     0.029 A 
HETATM   10  C7  UNL     1      -6.067   1.302  11.562  1.00  0.00     0.003 A 
HETATM   11  C8  UNL     1      -4.708   1.611  11.556  1.00  0.00     0.015 A 
HETATM   12  C9  UNL     1      -4.246   2.900  11.884  1.00  0.00     0.010 A 
HETATM   13  C25 UNL     1      -5.216   3.870  12.221  1.00  0.00     0.044 A 
BRANCH  12  14
HETATM   14  C10 UNL     1      -2.803   3.220  11.877  1.00  0.00     0.116 A 
HETATM   15  N2  UNL     1      -1.948   2.276  11.441  1.00  0.00    -0.352 N 
HETATM   16  C11 UNL     1      -0.640   2.592  11.445  1.00  0.00     0.092 A 
ATOM     17  H2  UNL     1      -2.276   1.365  11.121  1.00  0.00     0.166 HD
HETATM   18  C12 UNL     1      -0.156   3.807  11.863  1.00  0.00     0.049 A 
HETATM   19  C13 UNL     1      -1.105   4.709  12.287  1.00  0.00     0.062 A 
HETATM   20  N6  UNL     1      -2.428   4.440  12.308  1.00  0.00    -0.340 N 
ATOM     21  H6  UNL     1      -3.110   5.127  12.633  1.00  0.00     0.167 HD
BRANCH  19  22
HETATM   22  C14 UNL     1      -0.765   6.051  12.751  1.00  0.00     0.060 A 
HETATM   23  C15 UNL     1      -1.491   7.230  12.815  1.00  0.00     0.051 A 
HETATM   24  C16 UNL     1      -0.654   8.239  13.357  1.00  0.00     0.057 A 
HETATM   25  C17 UNL     1       0.566   7.645  13.626  1.00  0.00     0.036 A 
HETATM   26  C24 UNL     1      -0.905   9.651  13.603  1.00  0.00     0.253 C 
HETATM   27  N3  UNL     1       0.494   6.336  13.241  1.00  0.00    -0.356 N 
HETATM   28  C18 UNL     1       1.770   8.372  14.187  1.00  0.00     0.022 C 
HETATM   29  H11 UNL     1       1.232   5.644  13.287  1.00  0.00     0.166 HD
HETATM   30  C19 UNL     1       2.565   7.499  15.191  1.00  0.00     0.047 C 
HETATM   31  C22 UNL     1       2.679   8.850  13.024  1.00  0.00     0.047 C 
HETATM   32  C23 UNL     1       1.193   9.627  14.933  1.00  0.00     0.138 C 
HETATM   33  C20 UNL     1       4.053   7.830  15.151  1.00  0.00     0.270 C 
HETATM   34  N4  UNL     1       4.644   7.543  13.845  1.00  0.00     0.083 N 
HETATM   35  C21 UNL     1       3.768   7.829  12.709  1.00  0.00     0.270 C 
HETATM   36  H16 UNL     1       5.521   8.056  13.751  1.00  0.00     0.315 HD
HETATM   37  N5  UNL     1       0.145  10.328  14.195  1.00  0.00    -0.356 N 
HETATM   38  H23 UNL     1      -0.103  11.270  14.468  1.00  0.00     0.162 HD
HETATM   39  O2  UNL     1      -1.948  10.221  13.303  1.00  0.00    -0.268 OA
ENDBRANCH  19  22
ENDBRANCH  12  14
ENDBRANCH   6   8
ENDBRANCH   3   4
TORSDOF 4
ENDMDL
MODEL 4
REMARK minimizedAffinity -9.50804996
REMARK  4 active torsions:
REMARK  status: ('A' for Active; 'I' for Inactive)
REMARK    1  A    between atoms: C3_3  and  C4_4 
REMARK       I    between atoms: C4_4  and  N1_6 
REMARK    2  A    between atoms: N1_6  and  C5_7 
REMARK    3  A    between atoms: C9_11  and  C10_12 
REMARK    4  A    between atoms: C13_17  and  C14_18 
ROOT
HETATM    1  C1  UNL     1     -10.682   8.733  15.723  1.00  0.00     0.112 C 
HETATM    2  C2  UNL     1     -10.060   7.784  14.801  1.00  0.00    -0.101 C 
HETATM    3  C3  UNL     1      -9.553   6.997  14.047  1.00  0.00    -0.006 C 
ENDROOT
BRANCH   3   4
HETATM    4  C4  UNL     1      -8.944   6.054  13.128  1.00  0.00     0.300 C 
HETATM    5  O1  UNL     1      -9.221   6.143  11.944  1.00  0.00    -0.258 OA
HETATM    6  N1  UNL     1      -8.105   5.154  13.745  1.00  0.00    -0.316 N 
HETATM    7  H4  UNL     1      -8.021   5.256  14.748  1.00  0.00     0.170 HD
BRANCH   6   8
HETATM    8  C5  UNL     1      -7.350   4.124  13.152  1.00  0.00     0.036 A 
HETATM    9  C6  UNL     1      -8.023   2.930  12.867  1.00  0.00     0.029 A 
HETATM   10  C7  UNL     1      -7.348   1.858  12.288  1.00  0.00     0.003 A 
HETATM   11  C8  UNL     1      -5.991   1.972  11.990  1.00  0.00     0.015 A 
HETATM   12  C9  UNL     1      -5.276   3.154  12.258  1.00  0.00     0.010 A 
HETATM   13  C25 UNL     1      -5.989   4.225  12.843  1.00  0.00     0.044 A 
BRANCH  12  14
HETATM   14  C10 UNL     1      -3.836   3.266  11.941  1.00  0.00     0.116 A 
HETATM   15  N2  UNL     1      -3.238   2.221  11.339  1.00  0.00    -0.352 N 
HETATM   16  C11 UNL     1      -1.928   2.348  11.062  1.00  0.00     0.092 A 
ATOM     17  H2  UNL     1      -3.754   1.373  11.106  1.00  0.00     0.166 HD
HETATM   18  C12 UNL     1      -1.197   3.472  11.357  1.00  0.00     0.049 A 
HETATM   19  C13 UNL     1      -1.894   4.490  11.966  1.00  0.00     0.062 A 
HETATM   20  N6  UNL     1      -3.208   4.412  12.271  1.00  0.00    -0.340 N 
ATOM     21  H6  UNL     1      -3.699   5.180  12.728  1.00  0.00     0.167 HD
BRANCH  19  22
HETATM   22  C14 UNL     1      -1.275   5.760  12.335  1.00  0.00     0.060 A 
HETATM   23  C15 UNL     1      -0.069   6.348  11.986  1.00  0.00     0.051 A 
HETATM   24  C16 UNL     1       0.022   7.600  12.648  1.00  0.00     0.057 A 
HETATM   25  C17 UNL     1      -1.143   7.753  13.378  1.00  0.00     0.036 A 
HETATM   26  C24 UNL     1       1.084   8.594  12.656  1.00  0.00     0.253 C 
HETATM   27  N3  UNL     1      -1.906   6.634  13.197  1.00  0.00    -0.356 N 
HETATM   28  C18 UNL     1      -1.451   8.941  14.264  1.00  0.00     0.022 C 
HETATM   29  H11 UNL     1      -2.805   6.433  13.618  1.00  0.00     0.166 HD
HETATM   30  C19 UNL     1      -2.945   9.346  14.203  1.00  0.00     0.047 C 
HETATM   31  C22 UNL     1      -1.018   8.630  15.722  1.00  0.00     0.047 C 
HETATM   32  C23 UNL     1      -0.570  10.118  13.712  1.00  0.00     0.138 C 
HETATM   33  C20 UNL     1      -3.416   9.922  15.534  1.00  0.00     0.270 C 
HETATM   34  N4  UNL     1      -3.331   8.943  16.616  1.00  0.00     0.083 N 
HETATM   35  C21 UNL     1      -2.172   8.052  16.537  1.00  0.00     0.270 C 
HETATM   36  H16 UNL     1      -3.339   9.429  17.513  1.00  0.00     0.315 HD
HETATM   37  N5  UNL     1       0.801   9.733  13.387  1.00  0.00    -0.356 N 
HETATM   38  H23 UNL     1       1.501  10.455  13.271  1.00  0.00     0.162 HD
HETATM   39  O2  UNL     1       2.158   8.450  12.082  1.00  0.00    -0.268 OA
ENDBRANCH  19  22
ENDBRANCH  12  14
ENDBRANCH   6   8
ENDBRANCH   3   4
TORSDOF 4
ENDMDL
MODEL 5
REMARK minimizedAffinity -9.42573547
REMARK  4 active torsions:
REMARK  status: ('A' for Active; 'I' for Inactive)
REMARK    1  A    between atoms: C3_3  and  C4_4 
REMARK       I    between atoms: C4_4  and  N1_6 
REMARK    2  A    between atoms: N1_6  and  C5_7 
REMARK    3  A    between atoms: C9_11  and  C10_12 
REMARK    4  A    between atoms: C13_17  and  C14_18 
ROOT
HETATM    1  C1  UNL     1     -15.692  10.255  14.678  1.00  0.00     0.112 C 
HETATM    2  C2  UNL     1     -14.383   9.721  14.305  1.00  0.00    -0.101 C 
HETATM    3  C3  UNL     1     -13.308   9.286  13.988  1.00  0.00    -0.006 C 
ENDROOT
BRANCH   3   4
HETATM    4  C4  UNL     1     -12.006   8.765  13.616  1.00  0.00     0.300 C 
HETATM    5  O1  UNL     1     -11.820   8.459  12.451  1.00  0.00    -0.258 OA
HETATM    6  N1  UNL     1     -11.127   8.688  14.673  1.00  0.00    -0.316 N 
HETATM    7  H4  UNL     1     -11.492   8.994  15.564  1.00  0.00     0.170 HD
BRANCH   6   8
HETATM    8  C5  UNL     1      -9.790   8.246  14.657  1.00  0.00     0.036 A 
HETATM    9  C6  UNL     1      -8.832   9.110  15.201  1.00  0.00     0.029 A 
HETATM   10  C7  UNL     1      -7.486   8.753  15.217  1.00  0.00     0.003 A 
HETATM   11  C8  UNL     1      -7.085   7.527  14.687  1.00  0.00     0.015 A 
HETATM   12  C9  UNL     1      -8.015   6.628  14.133  1.00  0.00     0.010 A 
HETATM   13  C25 UNL     1      -9.374   7.017  14.133  1.00  0.00     0.044 A 
BRANCH  12  14
HETATM   14  C10 UNL     1      -7.583   5.331  13.570  1.00  0.00     0.116 A 
HETATM   15  N2  UNL     1      -8.519   4.386  13.367  1.00  0.00    -0.352 N 
HETATM   16  C11 UNL     1      -8.100   3.215  12.855  1.00  0.00     0.092 A 
ATOM     17  H2  UNL     1      -9.501   4.550  13.591  1.00  0.00     0.166 HD
HETATM   18  C12 UNL     1      -6.790   2.953  12.537  1.00  0.00     0.049 A 
HETATM   19  C13 UNL     1      -5.906   3.980  12.774  1.00  0.00     0.062 A 
HETATM   20  N6  UNL     1      -6.274   5.172  13.292  1.00  0.00    -0.340 N 
ATOM     21  H6  UNL     1      -5.595   5.915  13.463  1.00  0.00     0.167 HD
BRANCH  19  22
HETATM   22  C14 UNL     1      -4.479   3.876  12.481  1.00  0.00     0.060 A 
HETATM   23  C15 UNL     1      -3.708   2.860  11.938  1.00  0.00     0.051 A 
HETATM   24  C16 UNL     1      -2.362   3.306  11.882  1.00  0.00     0.057 A 
HETATM   25  C17 UNL     1      -2.346   4.596  12.382  1.00  0.00     0.036 A 
HETATM   26  C24 UNL     1      -1.155   2.627  11.436  1.00  0.00     0.253 C 
HETATM   27  N3  UNL     1      -3.619   4.921  12.756  1.00  0.00    -0.356 N 
HETATM   28  C18 UNL     1      -1.099   5.442  12.535  1.00  0.00     0.022 C 
HETATM   29  H11 UNL     1      -3.929   5.787  13.180  1.00  0.00     0.166 HD
HETATM   30  C19 UNL     1      -1.362   6.934  12.210  1.00  0.00     0.047 C 
HETATM   31  C22 UNL     1      -0.529   5.276  13.968  1.00  0.00     0.047 C 
HETATM   32  C23 UNL     1      -0.067   4.860  11.505  1.00  0.00     0.138 C 
HETATM   33  C20 UNL     1      -0.471   7.845  13.047  1.00  0.00     0.270 C 
HETATM   34  N4  UNL     1      -0.741   7.713  14.478  1.00  0.00     0.083 N 
HETATM   35  C21 UNL     1      -1.061   6.352  14.910  1.00  0.00     0.270 C 
HETATM   36  H16 UNL     1       0.055   8.071  15.007  1.00  0.00     0.315 HD
HETATM   37  N5  UNL     1      -0.010   3.400  11.480  1.00  0.00    -0.356 N 
HETATM   38  H23 UNL     1       0.784   2.946  11.047  1.00  0.00     0.162 HD
HETATM   39  O2  UNL     1      -1.127   1.460  11.061  1.00  0.00    -0.268 OA
ENDBRANCH  19  22
ENDBRANCH  12  14
ENDBRANCH   6   8
ENDBRANCH   3   4
TORSDOF 4
ENDMDL
MODEL 6
REMARK minimizedAffinity -9.27990532
REMARK  4 active torsions:
REMARK  status: ('A' for Active; 'I' for Inactive)
REMARK    1  A    between atoms: C3_3  and  C4_4 
REMARK       I    between atoms: C4_4  and  N1_6 
REMARK    2  A    between atoms: N1_6  and  C5_7 
REMARK    3  A    between atoms: C9_11  and  C10_12 
REMARK    4  A    between atoms: C13_17  and  C14_18 
ROOT
HETATM    1  C1  UNL     1       9.090   7.728  13.696  1.00  0.00     0.112 C 
HETATM    2  C2  UNL     1       7.815   7.797  12.984  1.00  0.00    -0.101 C 
HETATM    3  C3  UNL     1       6.768   7.844  12.396  1.00  0.00    -0.006 C 
ENDROOT
BRANCH   3   4
HETATM    4  C4  UNL     1       5.499   7.907  11.695  1.00  0.00     0.300 C 
HETATM    5  O1  UNL     1       5.349   8.774  10.851  1.00  0.00    -0.258 OA
HETATM    6  N1  UNL     1       4.605   6.939  12.097  1.00  0.00    -0.316 N 
HETATM    7  H4  UNL     1       4.936   6.317  12.822  1.00  0.00     0.170 HD
BRANCH   6   8
HETATM    8  C5  UNL     1       3.301   6.709  11.616  1.00  0.00     0.036 A 
HETATM    9  C6  UNL     1       3.189   6.094  10.364  1.00  0.00     0.029 A 
HETATM   10  C7  UNL     1       1.936   5.839   9.811  1.00  0.00     0.003 A 
HETATM   11  C8  UNL     1       0.783   6.199  10.508  1.00  0.00     0.015 A 
HETATM   12  C9  UNL     1       0.851   6.818  11.770  1.00  0.00     0.010 A 
HETATM   13  C25 UNL     1       2.136   7.062  12.306  1.00  0.00     0.044 A 
BRANCH  12  14
HETATM   14  C10 UNL     1      -0.376   7.199  12.502  1.00  0.00     0.116 A 
HETATM   15  N2  UNL     1      -0.370   8.358  13.187  1.00  0.00    -0.352 N 
HETATM   16  C11 UNL     1      -1.498   8.681  13.844  1.00  0.00     0.092 A 
ATOM     17  H2  UNL     1       0.451   8.962  13.206  1.00  0.00     0.166 HD
HETATM   18  C12 UNL     1      -2.627   7.899  13.842  1.00  0.00     0.049 A 
HETATM   19  C13 UNL     1      -2.541   6.736  13.111  1.00  0.00     0.062 A 
HETATM   20  N6  UNL     1      -1.431   6.362  12.438  1.00  0.00    -0.340 N 
ATOM     21  H6  UNL     1      -1.393   5.491  11.908  1.00  0.00     0.167 HD
BRANCH  19  22
HETATM   22  C14 UNL     1      -3.651   5.796  12.990  1.00  0.00     0.060 A 
HETATM   23  C15 UNL     1      -3.830   4.652  12.228  1.00  0.00     0.051 A 
HETATM   24  C16 UNL     1      -5.118   4.128  12.509  1.00  0.00     0.057 A 
HETATM   25  C17 UNL     1      -5.693   4.961  13.452  1.00  0.00     0.036 A 
HETATM   26  C24 UNL     1      -5.813   2.973  11.961  1.00  0.00     0.253 C 
HETATM   27  N3  UNL     1      -4.811   5.969  13.720  1.00  0.00    -0.356 N 
HETATM   28  C18 UNL     1      -7.088   4.787  14.014  1.00  0.00     0.022 C 
HETATM   29  H11 UNL     1      -4.949   6.751  14.350  1.00  0.00     0.166 HD
HETATM   30  C19 UNL     1      -7.160   5.143  15.520  1.00  0.00     0.047 C 
HETATM   31  C22 UNL     1      -8.091   5.641  13.193  1.00  0.00     0.047 C 
HETATM   32  C23 UNL     1      -7.433   3.268  13.821  1.00  0.00     0.138 C 
HETATM   33  C20 UNL     1      -8.524   5.717  15.887  1.00  0.00     0.270 C 
HETATM   34  N4  UNL     1      -8.797   6.971  15.187  1.00  0.00     0.083 N 
HETATM   35  C21 UNL     1      -8.293   7.020  13.814  1.00  0.00     0.270 C 
HETATM   36  H16 UNL     1      -9.801   7.153  15.198  1.00  0.00     0.315 HD
HETATM   37  N5  UNL     1      -7.057   2.734  12.515  1.00  0.00    -0.356 N 
HETATM   38  H23 UNL     1      -7.459   1.857  12.207  1.00  0.00     0.162 HD
HETATM   39  O2  UNL     1      -5.360   2.264  11.069  1.00  0.00    -0.268 OA
ENDBRANCH  19  22
ENDBRANCH  12  14
ENDBRANCH   6   8
ENDBRANCH   3   4
TORSDOF 4
ENDMDL
MODEL 7
REMARK minimizedAffinity -9.10600662
REMARK  4 active torsions:
REMARK  status: ('A' for Active; 'I' for Inactive)
REMARK    1  A    between atoms: C3_3  and  C4_4 
REMARK       I    between atoms: C4_4  and  N1_6 
REMARK    2  A    between atoms: N1_6  and  C5_7 
REMARK    3  A    between atoms: C9_11  and  C10_12 
REMARK    4  A    between atoms: C13_17  and  C14_18 
ROOT
HETATM    1  C1  UNL     1      -0.370   0.308  10.563  1.00  0.00     0.112 C 
HETATM    2  C2  UNL     1      -1.404   1.247  10.995  1.00  0.00    -0.101 C 
HETATM    3  C3  UNL     1      -2.252   2.025  11.342  1.00  0.00    -0.006 C 
ENDROOT
BRANCH   3   4
HETATM    4  C4  UNL     1      -3.284   2.955  11.762  1.00  0.00     0.300 C 
HETATM    5  O1  UNL     1      -2.980   4.129  11.899  1.00  0.00    -0.258 OA
HETATM    6  N1  UNL     1      -4.510   2.361  11.955  1.00  0.00    -0.316 N 
HETATM    7  H4  UNL     1      -4.540   1.364  11.787  1.00  0.00     0.170 HD
BRANCH   6   8
HETATM    8  C5  UNL     1      -5.718   2.970  12.345  1.00  0.00     0.036 A 
HETATM    9  C6  UNL     1      -6.895   2.252  12.106  1.00  0.00     0.029 A 
HETATM   10  C7  UNL     1      -8.133   2.787  12.453  1.00  0.00     0.003 A 
HETATM   11  C8  UNL     1      -8.204   4.048  13.042  1.00  0.00     0.015 A 
HETATM   12  C9  UNL     1      -7.046   4.804  13.302  1.00  0.00     0.010 A 
HETATM   13  C25 UNL     1      -5.804   4.234  12.941  1.00  0.00     0.044 A 
BRANCH  12  14
HETATM   14  C10 UNL     1      -7.129   6.142  13.926  1.00  0.00     0.116 A 
HETATM   15  N2  UNL     1      -8.305   6.518  14.462  1.00  0.00    -0.352 N 
HETATM   16  C11 UNL     1      -8.355   7.739  15.023  1.00  0.00     0.092 A 
ATOM     17  H2  UNL     1      -9.120   5.904  14.444  1.00  0.00     0.166 HD
HETATM   18  C12 UNL     1      -7.282   8.594  15.071  1.00  0.00     0.049 A 
HETATM   19  C13 UNL     1      -6.121   8.122  14.502  1.00  0.00     0.062 A 
HETATM   20  N6  UNL     1      -6.020   6.907  13.922  1.00  0.00    -0.340 N 
ATOM     21  H6  UNL     1      -5.147   6.585  13.502  1.00  0.00     0.167 HD
BRANCH  19  22
HETATM   22  C14 UNL     1      -4.883   8.896  14.479  1.00  0.00     0.060 A 
HETATM   23  C15 UNL     1      -3.715   8.770  13.742  1.00  0.00     0.051 A 
HETATM   24  C16 UNL     1      -2.830   9.807  14.132  1.00  0.00     0.057 A 
HETATM   25  C17 UNL     1      -3.487  10.555  15.093  1.00  0.00     0.036 A 
HETATM   26  C24 UNL     1      -1.474  10.109  13.701  1.00  0.00     0.253 C 
HETATM   27  N3  UNL     1      -4.712   9.988  15.306  1.00  0.00    -0.356 N 
HETATM   28  C18 UNL     1      -2.891  11.748  15.808  1.00  0.00     0.022 C 
HETATM   29  H11 UNL     1      -5.418  10.289  15.967  1.00  0.00     0.166 HD
HETATM   30  C19 UNL     1      -3.936  12.865  16.053  1.00  0.00     0.047 C 
HETATM   31  C22 UNL     1      -2.245  11.287  17.142  1.00  0.00     0.047 C 
HETATM   32  C23 UNL     1      -1.765  12.289  14.857  1.00  0.00     0.138 C 
HETATM   33  C20 UNL     1      -3.636  13.629  17.340  1.00  0.00     0.270 C 
HETATM   34  N4  UNL     1      -3.714  12.768  18.519  1.00  0.00     0.083 N 
HETATM   35  C21 UNL     1      -3.223  11.406  18.307  1.00  0.00     0.270 C 
HETATM   36  H16 UNL     1      -3.211  13.206  19.291  1.00  0.00     0.315 HD
HETATM   37  N5  UNL     1      -0.928  11.245  14.271  1.00  0.00    -0.356 N 
HETATM   38  H23 UNL     1      -0.039  11.499  13.860  1.00  0.00     0.162 HD
HETATM   39  O2  UNL     1      -0.839   9.420  12.911  1.00  0.00    -0.268 OA
ENDBRANCH  19  22
ENDBRANCH  12  14
ENDBRANCH   6   8
ENDBRANCH   3   4
TORSDOF 4
ENDMDL
MODEL 8
REMARK minimizedAffinity -9.08082962
REMARK  4 active torsions:
REMARK  status: ('A' for Active; 'I' for Inactive)
REMARK    1  A    between atoms: C3_3  and  C4_4 
REMARK       I    between atoms: C4_4  and  N1_6 
REMARK    2  A    between atoms: N1_6  and  C5_7 
REMARK    3  A    between atoms: C9_11  and  C10_12 
REMARK    4  A    between atoms: C13_17  and  C14_18 
ROOT
HETATM    1  C1  UNL     1       0.448  11.711  17.394  1.00  0.00     0.112 C 
HETATM    2  C2  UNL     1       0.528  10.412  16.727  1.00  0.00    -0.101 C 
HETATM    3  C3  UNL     1       0.586   9.347  16.173  1.00  0.00    -0.006 C 
ENDROOT
BRANCH   3   4
HETATM    4  C4  UNL     1       0.668   8.062  15.503  1.00  0.00     0.300 C 
HETATM    5  O1  UNL     1       0.436   7.058  16.155  1.00  0.00    -0.258 OA
HETATM    6  N1  UNL     1       1.009   8.160  14.173  1.00  0.00    -0.316 N 
HETATM    7  H4  UNL     1       1.162   9.100  13.833  1.00  0.00     0.170 HD
BRANCH   6   8
HETATM    8  C5  UNL     1       1.158   7.119  13.237  1.00  0.00     0.036 A 
HETATM    9  C6  UNL     1       2.329   7.121  12.471  1.00  0.00     0.029 A 
HETATM   10  C7  UNL     1       2.552   6.132  11.516  1.00  0.00     0.003 A 
HETATM   11  C8  UNL     1       1.602   5.130  11.319  1.00  0.00     0.015 A 
HETATM   12  C9  UNL     1       0.411   5.090  12.069  1.00  0.00     0.010 A 
HETATM   13  C25 UNL     1       0.215   6.105  13.032  1.00  0.00     0.044 A 
BRANCH  12  14
HETATM   14  C10 UNL     1      -0.593   4.026  11.853  1.00  0.00     0.116 A 
HETATM   15  N2  UNL     1      -0.183   2.874  11.290  1.00  0.00    -0.352 N 
HETATM   16  C11 UNL     1      -1.115   1.923  11.103  1.00  0.00     0.092 A 
ATOM     17  H2  UNL     1       0.790   2.729  11.017  1.00  0.00     0.166 HD
HETATM   18  C12 UNL     1      -2.433   2.074  11.458  1.00  0.00     0.049 A 
HETATM   19  C13 UNL     1      -2.757   3.283  12.031  1.00  0.00     0.062 A 
HETATM   20  N6  UNL     1      -1.861   4.273  12.235  1.00  0.00    -0.340 N 
ATOM     21  H6  UNL     1      -2.131   5.162  12.657  1.00  0.00     0.167 HD
BRANCH  19  22
HETATM   22  C14 UNL     1      -4.109   3.606  12.479  1.00  0.00     0.060 A 
HETATM   23  C15 UNL     1      -5.326   2.960  12.319  1.00  0.00     0.051 A 
HETATM   24  C16 UNL     1      -6.326   3.731  12.967  1.00  0.00     0.057 A 
HETATM   25  C17 UNL     1      -5.690   4.827  13.522  1.00  0.00     0.036 A 
HETATM   26  C24 UNL     1      -7.762   3.527  13.073  1.00  0.00     0.253 C 
HETATM   27  N3  UNL     1      -4.362   4.751  13.207  1.00  0.00    -0.356 N 
HETATM   28  C18 UNL     1      -6.391   5.933  14.283  1.00  0.00     0.022 C 
HETATM   29  H11 UNL     1      -3.638   5.418  13.447  1.00  0.00     0.166 HD
HETATM   30  C19 UNL     1      -5.550   6.443  15.480  1.00  0.00     0.047 C 
HETATM   31  C22 UNL     1      -6.739   7.093  13.313  1.00  0.00     0.047 C 
HETATM   32  C23 UNL     1      -7.723   5.297  14.816  1.00  0.00     0.138 C 
HETATM   33  C20 UNL     1      -5.800   7.926  15.738  1.00  0.00     0.270 C 
HETATM   34  N4  UNL     1      -5.393   8.755  14.605  1.00  0.00     0.083 N 
HETATM   35  C21 UNL     1      -5.643   8.155  13.294  1.00  0.00     0.270 C 
HETATM   36  H16 UNL     1      -5.852   9.664  14.669  1.00  0.00     0.315 HD
HETATM   37  N5  UNL     1      -8.424   4.473  13.834  1.00  0.00    -0.356 N 
HETATM   38  H23 UNL     1      -9.394   4.235  13.994  1.00  0.00     0.162 HD
HETATM   39  O2  UNL     1      -8.363   2.608  12.527  1.00  0.00    -0.268 OA
ENDBRANCH  19  22
ENDBRANCH  12  14
ENDBRANCH   6   8
ENDBRANCH   3   4
TORSDOF 4
ENDMDL
MODEL 9
REMARK minimizedAffinity -9.06782436
REMARK  4 active torsions:
REMARK  status: ('A' for Active; 'I' for Inactive)
REMARK    1  A    between atoms: C3_3  and  C4_4 
REMARK       I    between atoms: C4_4  and  N1_6 
REMARK    2  A    between atoms: N1_6  and  C5_7 
REMARK    3  A    between atoms: C9_11  and  C10_12 
REMARK    4  A    between atoms: C13_17  and  C14_18 
ROOT
HETATM    1  C1  UNL     1       0.317   6.312  12.969  1.00  0.00     0.112 C 
HETATM    2  C2  UNL     1      -1.022   5.761  12.768  1.00  0.00    -0.101 C 
HETATM    3  C3  UNL     1      -2.126   5.311  12.612  1.00  0.00    -0.006 C 
ENDROOT
BRANCH   3   4
HETATM    4  C4  UNL     1      -3.458   4.772  12.413  1.00  0.00     0.300 C 
HETATM    5  O1  UNL     1      -3.592   3.836  11.643  1.00  0.00    -0.258 OA
HETATM    6  N1  UNL     1      -4.424   5.418  13.151  1.00  0.00    -0.316 N 
HETATM    7  H4  UNL     1      -4.093   6.179  13.728  1.00  0.00     0.170 HD
BRANCH   6   8
HETATM    8  C5  UNL     1      -5.804   5.142  13.204  1.00  0.00     0.036 A 
HETATM    9  C6  UNL     1      -6.226   3.924  12.660  1.00  0.00     0.029 A 
HETATM   10  C7  UNL     1      -7.575   3.577  12.664  1.00  0.00     0.003 A 
HETATM   11  C8  UNL     1      -8.515   4.449  13.212  1.00  0.00     0.015 A 
HETATM   12  C9  UNL     1      -8.134   5.683  13.771  1.00  0.00     0.010 A 
HETATM   13  C25 UNL     1      -6.758   6.005  13.755  1.00  0.00     0.044 A 
BRANCH  12  14
HETATM   14  C10 UNL     1      -9.136   6.603  14.349  1.00  0.00     0.116 A 
HETATM   15  N2  UNL     1      -8.719   7.505  15.257  1.00  0.00    -0.352 N 
HETATM   16  C11 UNL     1      -9.650   8.330  15.767  1.00  0.00     0.092 A 
ATOM     17  H2  UNL     1      -7.742   7.559  15.545  1.00  0.00     0.166 HD
HETATM   18  C12 UNL     1     -10.974   8.293  15.406  1.00  0.00     0.049 A 
HETATM   19  C13 UNL     1     -11.307   7.342  14.468  1.00  0.00     0.062 A 
HETATM   20  N6  UNL     1     -10.412   6.486  13.929  1.00  0.00    -0.340 N 
ATOM     21  H6  UNL     1     -10.687   5.786  13.239  1.00  0.00     0.167 HD
BRANCH  19  22
HETATM   22  C14 UNL     1     -12.666   7.174  13.962  1.00  0.00     0.060 A 
HETATM   23  C15 UNL     1     -13.313   7.665  12.838  1.00  0.00     0.051 A 
HETATM   24  C16 UNL     1     -14.646   7.179  12.846  1.00  0.00     0.057 A 
HETATM   25  C17 UNL     1     -14.778   6.387  13.972  1.00  0.00     0.036 A 
HETATM   26  C24 UNL     1     -15.747   7.417  11.926  1.00  0.00     0.253 C 
HETATM   27  N3  UNL     1     -13.588   6.406  14.645  1.00  0.00    -0.356 N 
HETATM   28  C18 UNL     1     -16.056   5.691  14.387  1.00  0.00     0.022 C 
HETATM   29  H11 UNL     1     -13.374   5.944  15.520  1.00  0.00     0.166 HD
HETATM   30  C19 UNL     1     -15.790   4.291  14.994  1.00  0.00     0.047 C 
HETATM   31  C22 UNL     1     -16.839   6.589  15.382  1.00  0.00     0.047 C 
HETATM   32  C23 UNL     1     -16.897   5.536  13.071  1.00  0.00     0.138 C 
HETATM   33  C20 UNL     1     -16.827   3.944  16.057  1.00  0.00     0.270 C 
HETATM   34  N4  UNL     1     -16.781   4.866  17.190  1.00  0.00     0.083 N 
HETATM   35  C21 UNL     1     -16.493   6.255  16.830  1.00  0.00     0.270 C 
HETATM   36  H16 UNL     1     -17.660   4.812  17.706  1.00  0.00     0.315 HD
HETATM   37  N5  UNL     1     -16.908   6.728  12.227  1.00  0.00    -0.356 N 
HETATM   38  H23 UNL     1     -17.611   6.813  11.504  1.00  0.00     0.162 HD
HETATM   39  O2  UNL     1     -15.682   8.175  10.964  1.00  0.00    -0.268 OA
ENDBRANCH  19  22
ENDBRANCH  12  14
ENDBRANCH   6   8
ENDBRANCH   3   4
TORSDOF 4
ENDMDL
