MODEL 1
REMARK minimizedAffinity -6.04636478
REMARK  5 active torsions:
REMARK  status: ('A' for Active; 'I' for Inactive)
REMARK    1  A    between atoms: C2_3  and  C10_13 
REMARK    2  A    between atoms: C3_4  and  C4_5 
REMARK    3  A    between atoms: C7_8  and  O1_9 
REMARK    4  A    between atoms: C8_10  and  O2_11 
REMARK    5  A    between atoms: C10_13  and  O4_15 
ROOT
HETATM    1  N1  UNL     1      10.403  34.266  20.305  1.00  0.00    -0.191 NA
HETATM    2  C1  UNL     1      10.402  34.863  19.308  1.00  0.00     0.106 C 
HETATM    3  C2  UNL     1      10.442  35.557  18.066  1.00  0.00     0.118 C 
HETATM    4  C3  UNL     1      11.577  35.729  17.357  1.00  0.00     0.041 C 
ENDROOT
BRANCH   3   5
HETATM    5  C10 UNL     1       9.156  36.103  17.577  1.00  0.00     0.187 C 
HETATM    6  O3  UNL     1       8.324  36.678  18.256  1.00  0.00    -0.645 OA
BRANCH   5   7
HETATM    7  O4  UNL     1       8.941  35.915  16.262  1.00  0.00    -0.772 OA
HETATM    8  H7  UNL     1       8.065  36.329  16.102  1.00  0.00     0.167 HD
ENDBRANCH   5   7
ENDBRANCH   3   5
BRANCH   4   9
HETATM    9  C4  UNL     1      12.925  35.259  17.720  1.00  0.00    -0.032 A 
HETATM   10  C5  UNL     1      13.127  34.751  19.014  1.00  0.00     0.014 A 
HETATM   11  C6  UNL     1      14.393  34.322  19.421  1.00  0.00     0.040 A 
HETATM   12  C7  UNL     1      15.452  34.406  18.534  1.00  0.00     0.098 A 
HETATM   13  C8  UNL     1      15.267  34.913  17.251  1.00  0.00     0.099 A 
HETATM   14  C9  UNL     1      14.013  35.354  16.840  1.00  0.00     0.051 A 
BRANCH  12  15
HETATM   15  O1  UNL     1      16.689  33.983  18.929  1.00  0.00    -0.358 OA
HETATM   16  H4  UNL     1      17.260  34.133  18.150  1.00  0.00     0.217 HD
ENDBRANCH  12  15
BRANCH  13  17
HETATM   17  O2  UNL     1      16.358  34.963  16.426  1.00  0.00    -0.358 OA
HETATM   18  H5  UNL     1      16.057  35.225  15.538  1.00  0.00     0.217 HD
ENDBRANCH  13  17
ENDBRANCH   4   9
TORSDOF 5
ENDMDL
MODEL 2
REMARK minimizedAffinity -6.0019598
REMARK  5 active torsions:
REMARK  status: ('A' for Active; 'I' for Inactive)
REMARK    1  A    between atoms: C2_3  and  C10_13 
REMARK    2  A    between atoms: C3_4  and  C4_5 
REMARK    3  A    between atoms: C7_8  and  O1_9 
REMARK    4  A    between atoms: C8_10  and  O2_11 
REMARK    5  A    between atoms: C10_13  and  O4_15 
ROOT
HETATM    1  N1  UNL     1       7.598  36.578  18.770  1.00  0.00    -0.191 NA
HETATM    2  C1  UNL     1       7.958  35.944  19.674  1.00  0.00     0.106 C 
HETATM    3  C2  UNL     1       8.455  35.187  20.772  1.00  0.00     0.118 C 
HETATM    4  C3  UNL     1       9.671  34.602  20.771  1.00  0.00     0.041 C 
ENDROOT
BRANCH   3   5
HETATM    5  C10 UNL     1       7.557  35.058  21.941  1.00  0.00     0.187 C 
HETATM    6  O3  UNL     1       7.790  34.414  22.949  1.00  0.00    -0.645 OA
BRANCH   5   7
HETATM    7  O4  UNL     1       6.396  35.729  21.822  1.00  0.00    -0.772 OA
HETATM    8  H7  UNL     1       5.927  35.545  22.665  1.00  0.00     0.167 HD
ENDBRANCH   5   7
ENDBRANCH   3   5
BRANCH   4   9
HETATM    9  C4  UNL     1      10.663  34.629  19.682  1.00  0.00    -0.032 A 
HETATM   10  C5  UNL     1      11.883  33.960  19.875  1.00  0.00     0.014 A 
HETATM   11  C6  UNL     1      12.871  33.982  18.887  1.00  0.00     0.040 A 
HETATM   12  C7  UNL     1      12.637  34.675  17.712  1.00  0.00     0.098 A 
HETATM   13  C8  UNL     1      11.435  35.349  17.511  1.00  0.00     0.099 A 
HETATM   14  C9  UNL     1      10.449  35.343  18.493  1.00  0.00     0.051 A 
BRANCH  12  15
HETATM   15  O1  UNL     1      13.600  34.694  16.744  1.00  0.00    -0.358 OA
HETATM   16  H4  UNL     1      13.214  35.231  16.024  1.00  0.00     0.217 HD
ENDBRANCH  12  15
BRANCH  13  17
HETATM   17  O2  UNL     1      11.270  36.011  16.325  1.00  0.00    -0.358 OA
HETATM   18  H5  UNL     1      10.352  36.328  16.278  1.00  0.00     0.217 HD
ENDBRANCH  13  17
ENDBRANCH   4   9
TORSDOF 5
ENDMDL
MODEL 3
REMARK minimizedAffinity -5.98107195
REMARK  5 active torsions:
REMARK  status: ('A' for Active; 'I' for Inactive)
REMARK    1  A    between atoms: C2_3  and  C10_13 
REMARK    2  A    between atoms: C3_4  and  C4_5 
REMARK    3  A    between atoms: C7_8  and  O1_9 
REMARK    4  A    between atoms: C8_10  and  O2_11 
REMARK    5  A    between atoms: C10_13  and  O4_15 
ROOT
HETATM    1  N1  UNL     1      14.106  37.250  19.338  1.00  0.00    -0.191 NA
HETATM    2  C1  UNL     1      13.614  36.798  18.388  1.00  0.00     0.106 C 
HETATM    3  C2  UNL     1      12.956  36.251  17.250  1.00  0.00     0.118 C 
HETATM    4  C3  UNL     1      11.859  35.471  17.340  1.00  0.00     0.041 C 
ENDROOT
BRANCH   3   5
HETATM    5  C10 UNL     1      13.547  36.574  15.932  1.00  0.00     0.187 C 
HETATM    6  O3  UNL     1      14.722  36.817  15.720  1.00  0.00    -0.645 OA
BRANCH   5   7
HETATM    7  O4  UNL     1      12.661  36.588  14.919  1.00  0.00    -0.772 OA
HETATM    8  H7  UNL     1      13.203  36.812  14.131  1.00  0.00     0.167 HD
ENDBRANCH   5   7
ENDBRANCH   3   5
BRANCH   4   9
HETATM    9  C4  UNL     1      11.171  35.053  18.574  1.00  0.00    -0.032 A 
HETATM   10  C5  UNL     1       9.974  35.702  18.921  1.00  0.00     0.014 A 
HETATM   11  C6  UNL     1       9.298  35.366  20.098  1.00  0.00     0.040 A 
HETATM   12  C7  UNL     1       9.824  34.387  20.923  1.00  0.00     0.098 A 
HETATM   13  C8  UNL     1      11.013  33.742  20.595  1.00  0.00     0.099 A 
HETATM   14  C9  UNL     1      11.700  34.077  19.431  1.00  0.00     0.051 A 
BRANCH  12  15
HETATM   15  O1  UNL     1       9.163  34.056  22.071  1.00  0.00    -0.358 OA
HETATM   16  H4  UNL     1       9.710  33.355  22.477  1.00  0.00     0.217 HD
ENDBRANCH  12  15
BRANCH  13  17
HETATM   17  O2  UNL     1      11.472  32.782  21.454  1.00  0.00    -0.358 OA
HETATM   18  H5  UNL     1      12.235  32.342  21.041  1.00  0.00     0.217 HD
ENDBRANCH  13  17
ENDBRANCH   4   9
TORSDOF 5
ENDMDL
MODEL 4
REMARK minimizedAffinity -5.91828203
REMARK  5 active torsions:
REMARK  status: ('A' for Active; 'I' for Inactive)
REMARK    1  A    between atoms: C2_3  and  C10_13 
REMARK    2  A    between atoms: C3_4  and  C4_5 
REMARK    3  A    between atoms: C7_8  and  O1_9 
REMARK    4  A    between atoms: C8_10  and  O2_11 
REMARK    5  A    between atoms: C10_13  and  O4_15 
ROOT
HETATM    1  N1  UNL     1      12.776  33.491  20.995  1.00  0.00    -0.191 NA
HETATM    2  C1  UNL     1      12.164  34.009  20.155  1.00  0.00     0.106 C 
HETATM    3  C2  UNL     1      11.392  34.682  19.166  1.00  0.00     0.118 C 
HETATM    4  C3  UNL     1      10.161  35.179  19.407  1.00  0.00     0.041 C 
ENDROOT
BRANCH   3   5
HETATM    5  C10 UNL     1      12.009  34.809  17.826  1.00  0.00     0.187 C 
HETATM    6  O3  UNL     1      12.019  35.816  17.141  1.00  0.00    -0.645 OA
BRANCH   5   7
HETATM    7  O4  UNL     1      12.590  33.681  17.377  1.00  0.00    -0.772 OA
HETATM    8  H7  UNL     1      12.945  33.931  16.496  1.00  0.00     0.167 HD
ENDBRANCH   5   7
ENDBRANCH   3   5
BRANCH   4   9
HETATM    9  C4  UNL     1       9.417  35.116  20.676  1.00  0.00    -0.032 A 
HETATM   10  C5  UNL     1       9.918  34.297  21.702  1.00  0.00     0.014 A 
HETATM   11  C6  UNL     1       9.234  34.177  22.915  1.00  0.00     0.040 A 
HETATM   12  C7  UNL     1       8.050  34.871  23.095  1.00  0.00     0.098 A 
HETATM   13  C8  UNL     1       7.538  35.679  22.084  1.00  0.00     0.099 A 
HETATM   14  C9  UNL     1       8.205  35.797  20.868  1.00  0.00     0.051 A 
BRANCH  12  15
HETATM   15  O1  UNL     1       7.382  34.757  24.281  1.00  0.00    -0.358 OA
HETATM   16  H4  UNL     1       6.596  35.328  24.176  1.00  0.00     0.217 HD
ENDBRANCH  12  15
BRANCH  13  17
HETATM   17  O2  UNL     1       6.365  36.340  22.332  1.00  0.00    -0.358 OA
HETATM   18  H5  UNL     1       6.196  36.948  21.592  1.00  0.00     0.217 HD
ENDBRANCH  13  17
ENDBRANCH   4   9
TORSDOF 5
ENDMDL
MODEL 5
REMARK minimizedAffinity -5.7849288
REMARK  5 active torsions:
REMARK  status: ('A' for Active; 'I' for Inactive)
REMARK    1  A    between atoms: C2_3  and  C10_13 
REMARK    2  A    between atoms: C3_4  and  C4_5 
REMARK    3  A    between atoms: C7_8  and  O1_9 
REMARK    4  A    between atoms: C8_10  and  O2_11 
REMARK    5  A    between atoms: C10_13  and  O4_15 
ROOT
HETATM    1  N1  UNL     1       8.911  36.102  17.080  1.00  0.00    -0.191 NA
HETATM    2  C1  UNL     1       9.447  35.708  18.033  1.00  0.00     0.106 C 
HETATM    3  C2  UNL     1      10.150  35.262  19.187  1.00  0.00     0.118 C 
HETATM    4  C3  UNL     1      11.487  35.084  19.211  1.00  0.00     0.041 C 
ENDROOT
BRANCH   3   5
HETATM    5  C10 UNL     1       9.330  34.984  20.388  1.00  0.00     0.187 C 
HETATM    6  O3  UNL     1       9.516  35.449  21.499  1.00  0.00    -0.645 OA
BRANCH   5   7
HETATM    7  O4  UNL     1       8.307  34.136  20.174  1.00  0.00    -0.772 OA
HETATM    8  H7  UNL     1       7.872  34.061  21.052  1.00  0.00     0.167 HD
ENDBRANCH   5   7
ENDBRANCH   3   5
BRANCH   4   9
HETATM    9  C4  UNL     1      12.426  35.303  18.098  1.00  0.00    -0.032 A 
HETATM   10  C5  UNL     1      13.742  34.830  18.233  1.00  0.00     0.014 A 
HETATM   11  C6  UNL     1      14.682  35.039  17.219  1.00  0.00     0.040 A 
HETATM   12  C7  UNL     1      14.303  35.724  16.078  1.00  0.00     0.098 A 
HETATM   13  C8  UNL     1      13.005  36.205  15.934  1.00  0.00     0.099 A 
HETATM   14  C9  UNL     1      12.065  36.012  16.942  1.00  0.00     0.051 A 
BRANCH  12  15
HETATM   15  O1  UNL     1      15.219  35.926  15.086  1.00  0.00    -0.358 OA
HETATM   16  H4  UNL     1      14.731  36.417  14.396  1.00  0.00     0.217 HD
ENDBRANCH  12  15
BRANCH  13  17
HETATM   17  O2  UNL     1      12.699  36.870  14.778  1.00  0.00    -0.358 OA
HETATM   18  H5  UNL     1      11.742  37.040  14.768  1.00  0.00     0.217 HD
ENDBRANCH  13  17
ENDBRANCH   4   9
TORSDOF 5
ENDMDL
MODEL 6
REMARK minimizedAffinity -5.76353455
REMARK  5 active torsions:
REMARK  status: ('A' for Active; 'I' for Inactive)
REMARK    1  A    between atoms: C2_3  and  C10_13 
REMARK    2  A    between atoms: C3_4  and  C4_5 
REMARK    3  A    between atoms: C7_8  and  O1_9 
REMARK    4  A    between atoms: C8_10  and  O2_11 
REMARK    5  A    between atoms: C10_13  and  O4_15 
ROOT
HETATM    1  N1  UNL     1       8.185  46.937  -2.349  1.00  0.00    -0.191 NA
HETATM    2  C1  UNL     1       9.172  46.475  -1.946  1.00  0.00     0.106 C 
HETATM    3  C2  UNL     1      10.391  45.961  -1.421  1.00  0.00     0.118 C 
HETATM    4  C3  UNL     1      11.475  46.730  -1.190  1.00  0.00     0.041 C 
ENDROOT
BRANCH   3   5
HETATM    5  C10 UNL     1      10.423  44.508  -1.139  1.00  0.00     0.187 C 
HETATM    6  O3  UNL     1      10.960  43.981  -0.181  1.00  0.00    -0.645 OA
BRANCH   5   7
HETATM    7  O4  UNL     1       9.791  43.754  -2.058  1.00  0.00    -0.772 OA
HETATM    8  H7  UNL     1       9.901  42.835  -1.729  1.00  0.00     0.167 HD
ENDBRANCH   5   7
ENDBRANCH   3   5
BRANCH   4   9
HETATM    9  C4  UNL     1      11.598  48.178  -1.433  1.00  0.00    -0.032 A 
HETATM   10  C5  UNL     1      10.423  48.947  -1.484  1.00  0.00     0.014 A 
HETATM   11  C6  UNL     1      10.481  50.319  -1.743  1.00  0.00     0.040 A 
HETATM   12  C7  UNL     1      11.712  50.916  -1.954  1.00  0.00     0.098 A 
HETATM   13  C8  UNL     1      12.883  50.164  -1.914  1.00  0.00     0.099 A 
HETATM   14  C9  UNL     1      12.836  48.795  -1.668  1.00  0.00     0.051 A 
BRANCH  12  15
HETATM   15  O1  UNL     1      11.770  52.257  -2.204  1.00  0.00    -0.358 OA
HETATM   16  H4  UNL     1      12.723  52.445  -2.313  1.00  0.00     0.217 HD
ENDBRANCH  12  15
BRANCH  13  17
HETATM   17  O2  UNL     1      14.065  50.820  -2.127  1.00  0.00    -0.358 OA
HETATM   18  H5  UNL     1      14.794  50.200  -1.953  1.00  0.00     0.217 HD
ENDBRANCH  13  17
ENDBRANCH   4   9
TORSDOF 5
ENDMDL
MODEL 7
REMARK minimizedAffinity -5.71854925
REMARK  5 active torsions:
REMARK  status: ('A' for Active; 'I' for Inactive)
REMARK    1  A    between atoms: C2_3  and  C10_13 
REMARK    2  A    between atoms: C3_4  and  C4_5 
REMARK    3  A    between atoms: C7_8  and  O1_9 
REMARK    4  A    between atoms: C8_10  and  O2_11 
REMARK    5  A    between atoms: C10_13  and  O4_15 
ROOT
HETATM    1  N1  UNL     1      11.659  33.206  21.181  1.00  0.00    -0.191 NA
HETATM    2  C1  UNL     1      10.805  33.855  20.735  1.00  0.00     0.106 C 
HETATM    3  C2  UNL     1       9.787  34.648  20.135  1.00  0.00     0.118 C 
HETATM    4  C3  UNL     1      10.036  35.559  19.171  1.00  0.00     0.041 C 
ENDROOT
BRANCH   3   5
HETATM    5  C10 UNL     1       8.409  34.434  20.633  1.00  0.00     0.187 C 
HETATM    6  O3  UNL     1       8.092  34.264  21.797  1.00  0.00    -0.645 OA
BRANCH   5   7
HETATM    7  O4  UNL     1       7.469  34.433  19.670  1.00  0.00    -0.772 OA
HETATM    8  H7  UNL     1       6.629  34.284  20.157  1.00  0.00     0.167 HD
ENDBRANCH   5   7
ENDBRANCH   3   5
BRANCH   4   9
HETATM    9  C4  UNL     1      11.348  35.892  18.590  1.00  0.00    -0.032 A 
HETATM   10  C5  UNL     1      12.377  36.297  19.456  1.00  0.00     0.014 A 
HETATM   11  C6  UNL     1      13.631  36.654  18.954  1.00  0.00     0.040 A 
HETATM   12  C7  UNL     1      13.850  36.610  17.587  1.00  0.00     0.098 A 
HETATM   13  C8  UNL     1      12.837  36.218  16.717  1.00  0.00     0.099 A 
HETATM   14  C9  UNL     1      11.580  35.871  17.206  1.00  0.00     0.051 A 
BRANCH  12  15
HETATM   15  O1  UNL     1      15.075  36.956  17.095  1.00  0.00    -0.358 OA
HETATM   16  H4  UNL     1      14.992  36.845  16.128  1.00  0.00     0.217 HD
ENDBRANCH  12  15
BRANCH  13  17
HETATM   17  O2  UNL     1      13.123  36.193  15.379  1.00  0.00    -0.358 OA
HETATM   18  H5  UNL     1      12.370  35.792  14.913  1.00  0.00     0.217 HD
ENDBRANCH  13  17
ENDBRANCH   4   9
TORSDOF 5
ENDMDL
MODEL 8
REMARK minimizedAffinity -5.60412121
REMARK  5 active torsions:
REMARK  status: ('A' for Active; 'I' for Inactive)
REMARK    1  A    between atoms: C2_3  and  C10_13 
REMARK    2  A    between atoms: C3_4  and  C4_5 
REMARK    3  A    between atoms: C7_8  and  O1_9 
REMARK    4  A    between atoms: C8_10  and  O2_11 
REMARK    5  A    between atoms: C10_13  and  O4_15 
ROOT
HETATM    1  N1  UNL     1      -7.557  37.797  -4.820  1.00  0.00    -0.191 NA
HETATM    2  C1  UNL     1      -6.722  38.050  -4.053  1.00  0.00     0.106 C 
HETATM    3  C2  UNL     1      -5.664  38.380  -3.160  1.00  0.00     0.118 C 
HETATM    4  C3  UNL     1      -4.361  38.222  -3.473  1.00  0.00     0.041 C 
ENDROOT
BRANCH   3   5
HETATM    5  C10 UNL     1      -6.063  38.907  -1.835  1.00  0.00     0.187 C 
HETATM    6  O3  UNL     1      -7.207  39.100  -1.463  1.00  0.00    -0.645 OA
BRANCH   5   7
HETATM    7  O4  UNL     1      -5.031  39.180  -1.016  1.00  0.00    -0.772 OA
HETATM    8  H7  UNL     1      -5.458  39.511  -0.197  1.00  0.00     0.167 HD
ENDBRANCH   5   7
ENDBRANCH   3   5
BRANCH   4   9
HETATM    9  C4  UNL     1      -3.814  37.699  -4.737  1.00  0.00    -0.032 A 
HETATM   10  C5  UNL     1      -3.465  38.616  -5.743  1.00  0.00     0.014 A 
HETATM   11  C6  UNL     1      -2.972  38.171  -6.972  1.00  0.00     0.040 A 
HETATM   12  C7  UNL     1      -2.833  36.811  -7.192  1.00  0.00     0.098 A 
HETATM   13  C8  UNL     1      -3.182  35.892  -6.207  1.00  0.00     0.099 A 
HETATM   14  C9  UNL     1      -3.685  36.324  -4.984  1.00  0.00     0.051 A 
BRANCH  12  15
HETATM   15  O1  UNL     1      -2.348  36.375  -8.392  1.00  0.00    -0.358 OA
HETATM   16  H4  UNL     1      -2.337  35.401  -8.313  1.00  0.00     0.217 HD
ENDBRANCH  12  15
BRANCH  13  17
HETATM   17  O2  UNL     1      -3.015  34.563  -6.492  1.00  0.00    -0.358 OA
HETATM   18  H5  UNL     1      -3.184  34.054  -5.681  1.00  0.00     0.217 HD
ENDBRANCH  13  17
ENDBRANCH   4   9
TORSDOF 5
ENDMDL
MODEL 9
REMARK minimizedAffinity -5.59361315
REMARK  5 active torsions:
REMARK  status: ('A' for Active; 'I' for Inactive)
REMARK    1  A    between atoms: C2_3  and  C10_13 
REMARK    2  A    between atoms: C3_4  and  C4_5 
REMARK    3  A    between atoms: C7_8  and  O1_9 
REMARK    4  A    between atoms: C8_10  and  O2_11 
REMARK    5  A    between atoms: C10_13  and  O4_15 
ROOT
HETATM    1  N1  UNL     1      15.371  55.955   0.098  1.00  0.00    -0.191 NA
HETATM    2  C1  UNL     1      14.604  56.553   0.734  1.00  0.00     0.106 C 
HETATM    3  C2  UNL     1      13.705  57.288   1.557  1.00  0.00     0.118 C 
HETATM    4  C3  UNL     1      13.630  57.122   2.894  1.00  0.00     0.041 C 
ENDROOT
BRANCH   3   5
HETATM    5  C10 UNL     1      12.827  58.259   0.866  1.00  0.00     0.187 C 
HETATM    6  O3  UNL     1      12.654  59.419   1.195  1.00  0.00    -0.645 OA
BRANCH   5   7
HETATM    7  O4  UNL     1      12.189  57.759  -0.209  1.00  0.00    -0.772 OA
HETATM    8  H7  UNL     1      11.661  58.516  -0.545  1.00  0.00     0.167 HD
ENDBRANCH   5   7
ENDBRANCH   3   5
BRANCH   4   9
HETATM    9  C4  UNL     1      14.422  56.190   3.714  1.00  0.00    -0.032 A 
HETATM   10  C5  UNL     1      15.803  56.419   3.837  1.00  0.00     0.014 A 
HETATM   11  C6  UNL     1      16.606  55.547   4.577  1.00  0.00     0.040 A 
HETATM   12  C7  UNL     1      16.027  54.448   5.186  1.00  0.00     0.098 A 
HETATM   13  C8  UNL     1      14.662  54.204   5.066  1.00  0.00     0.099 A 
HETATM   14  C9  UNL     1      13.855  55.060   4.322  1.00  0.00     0.051 A 
BRANCH  12  15
HETATM   15  O1  UNL     1      16.810  53.597   5.912  1.00  0.00    -0.358 OA
HETATM   16  H4  UNL     1      16.193  52.915   6.242  1.00  0.00     0.217 HD
ENDBRANCH  12  15
BRANCH  13  17
HETATM   17  O2  UNL     1      14.156  53.101   5.698  1.00  0.00    -0.358 OA
HETATM   18  H5  UNL     1      13.187  53.126   5.626  1.00  0.00     0.217 HD
ENDBRANCH  13  17
ENDBRANCH   4   9
TORSDOF 5
ENDMDL
