MODEL 1
REMARK minimizedAffinity -7.31149006
REMARK  5 active torsions:
REMARK  status: ('A' for Active; 'I' for Inactive)
REMARK    1  A    between atoms: C2_2  and  C3_3 
REMARK    2  A    between atoms: C3_3  and  N1_4 
REMARK    3  A    between atoms: C8_9  and  N2_10 
REMARK    4  A    between atoms: N2_10  and  C9_11 
REMARK    5  A    between atoms: C14_20  and  N5_21 
ROOT
HETATM    1  C9  UNL     1      10.606  35.068  18.572  1.00  0.00     0.119 A 
HETATM    2  N3  UNL     1      10.067  35.547  17.435  1.00  0.00    -0.338 N 
ATOM      3  H3  UNL     1      10.573  35.516  16.551  1.00  0.00     0.168 HD
HETATM    4  C10 UNL     1       8.839  36.064  17.520  1.00  0.00     0.182 A 
HETATM    5  N4  UNL     1       8.094  36.153  18.625  1.00  0.00    -0.352 N 
ATOM      6  H4  UNL     1       7.156  36.554  18.608  1.00  0.00     0.166 HD
HETATM    7  C11 UNL     1       8.639  35.690  19.752  1.00  0.00     0.047 A 
HETATM    8  C12 UNL     1       7.912  35.788  20.930  1.00  0.00     0.032 A 
HETATM    9  C13 UNL     1       8.418  35.332  22.152  1.00  0.00     0.025 A 
HETATM   10  C14 UNL     1       9.667  34.726  22.216  1.00  0.00     0.006 A 
HETATM   11  C15 UNL     1      10.431  34.673  21.050  1.00  0.00     0.040 A 
HETATM   12  C16 UNL     1       9.919  35.124  19.803  1.00  0.00     0.036 A 
ENDROOT
BRANCH   1  13
HETATM   13  N2  UNL     1      11.893  34.465  18.536  1.00  0.00    -0.342 N 
HETATM   14  H9  UNL     1      11.779  33.457  18.531  1.00  0.00     0.167 HD
BRANCH  13  15
HETATM   15  C8  UNL     1      13.031  34.853  17.788  1.00  0.00     0.034 A 
HETATM   16  C7  UNL     1      14.282  34.305  18.127  1.00  0.00     0.043 A 
HETATM   17  C6  UNL     1      15.453  34.707  17.452  1.00  0.00    -0.006 A 
HETATM   18  C5  UNL     1      16.822  34.337  17.553  1.00  0.00     0.031 A 
HETATM   19  C19 UNL     1      15.358  35.682  16.458  1.00  0.00     0.044 A 
HETATM   20  C4  UNL     1      17.525  35.073  16.628  1.00  0.00     0.092 A 
HETATM   21  N1  UNL     1      16.634  35.887  15.969  1.00  0.00    -0.353 N 
HETATM   22  C18 UNL     1      14.133  36.277  16.127  1.00  0.00     0.033 A 
HETATM   23  C17 UNL     1      12.987  35.855  16.815  1.00  0.00     0.032 A 
BRANCH  21  24
HETATM   24  C3  UNL     1      16.996  36.789  14.879  1.00  0.00     0.155 C 
BRANCH  24  25
HETATM   25  C2  UNL     1      17.170  36.142  13.531  1.00  0.00    -0.017 C 
HETATM   26  C1  UNL     1      16.584  35.031  13.064  1.00  0.00     0.008 C 
ENDBRANCH  24  25
ENDBRANCH  21  24
ENDBRANCH  13  15
ENDBRANCH   1  13
BRANCH  10  27
HETATM   27  N5  UNL     1      10.230  34.391  23.449  1.00  0.00    -0.303 NA
HETATM   28  H13 UNL     1       9.553  34.176  24.175  1.00  0.00     0.124 HD
HETATM   29  H14 UNL     1      10.979  33.707  23.403  1.00  0.00     0.124 HD
ENDBRANCH  10  27
TORSDOF 5
ENDMDL
MODEL 2
REMARK minimizedAffinity -7.26023531
REMARK  5 active torsions:
REMARK  status: ('A' for Active; 'I' for Inactive)
REMARK    1  A    between atoms: C2_2  and  C3_3 
REMARK    2  A    between atoms: C3_3  and  N1_4 
REMARK    3  A    between atoms: C8_9  and  N2_10 
REMARK    4  A    between atoms: N2_10  and  C9_11 
REMARK    5  A    between atoms: C14_20  and  N5_21 
ROOT
HETATM    1  C9  UNL     1      13.747  35.786  19.146  1.00  0.00     0.119 A 
HETATM    2  N3  UNL     1      14.171  34.738  19.875  1.00  0.00    -0.338 N 
ATOM      3  H3  UNL     1      13.759  34.516  20.781  1.00  0.00     0.168 HD
HETATM    4  C10 UNL     1      15.158  34.003  19.357  1.00  0.00     0.182 A 
HETATM    5  N4  UNL     1      15.765  34.207  18.185  1.00  0.00    -0.352 N 
ATOM      6  H4  UNL     1      16.507  33.593  17.851  1.00  0.00     0.166 HD
HETATM    7  C11 UNL     1      15.350  35.257  17.473  1.00  0.00     0.047 A 
HETATM    8  C12 UNL     1      15.972  35.525  16.261  1.00  0.00     0.032 A 
HETATM    9  C13 UNL     1      15.597  36.611  15.462  1.00  0.00     0.025 A 
HETATM   10  C14 UNL     1      14.552  37.443  15.847  1.00  0.00     0.006 A 
HETATM   11  C15 UNL     1      13.958  37.218  17.089  1.00  0.00     0.040 A 
HETATM   12  C16 UNL     1      14.325  36.111  17.901  1.00  0.00     0.036 A 
ENDROOT
BRANCH   1  13
HETATM   13  N2  UNL     1      12.668  36.580  19.625  1.00  0.00    -0.342 N 
HETATM   14  H9  UNL     1      12.826  37.543  19.347  1.00  0.00     0.167 HD
BRANCH  13  15
HETATM   15  C8  UNL     1      11.286  36.275  19.645  1.00  0.00     0.034 A 
HETATM   16  C7  UNL     1      10.630  36.197  20.887  1.00  0.00     0.043 A 
HETATM   17  C6  UNL     1       9.268  35.834  20.963  1.00  0.00    -0.006 A 
HETATM   18  C5  UNL     1       8.349  35.687  22.036  1.00  0.00     0.031 A 
HETATM   19  C19 UNL     1       8.586  35.526  19.785  1.00  0.00     0.044 A 
HETATM   20  C4  UNL     1       7.139  35.306  21.503  1.00  0.00     0.092 A 
HETATM   21  N1  UNL     1       7.289  35.208  20.141  1.00  0.00    -0.353 N 
HETATM   22  C18 UNL     1       9.224  35.553  18.537  1.00  0.00     0.033 A 
HETATM   23  C17 UNL     1      10.577  35.918  18.496  1.00  0.00     0.032 A 
BRANCH  21  24
HETATM   24  C3  UNL     1       6.210  34.868  19.217  1.00  0.00     0.155 C 
BRANCH  24  25
HETATM   25  C2  UNL     1       5.488  33.579  19.506  1.00  0.00    -0.017 C 
HETATM   26  C1  UNL     1       4.872  32.763  18.638  1.00  0.00     0.008 C 
ENDBRANCH  24  25
ENDBRANCH  21  24
ENDBRANCH  13  15
ENDBRANCH   1  13
BRANCH  10  27
HETATM   27  N5  UNL     1      14.264  38.600  15.121  1.00  0.00    -0.303 NA
HETATM   28  H13 UNL     1      14.498  38.546  14.134  1.00  0.00     0.124 HD
HETATM   29  H14 UNL     1      13.337  38.982  15.279  1.00  0.00     0.124 HD
ENDBRANCH  10  27
TORSDOF 5
ENDMDL
MODEL 3
REMARK minimizedAffinity -7.24246025
REMARK  5 active torsions:
REMARK  status: ('A' for Active; 'I' for Inactive)
REMARK    1  A    between atoms: C2_2  and  C3_3 
REMARK    2  A    between atoms: C3_3  and  N1_4 
REMARK    3  A    between atoms: C8_9  and  N2_10 
REMARK    4  A    between atoms: N2_10  and  C9_11 
REMARK    5  A    between atoms: C14_20  and  N5_21 
ROOT
HETATM    1  C9  UNL     1      14.635  34.822  17.543  1.00  0.00     0.119 A 
HETATM    2  N3  UNL     1      15.328  33.976  18.328  1.00  0.00    -0.338 N 
ATOM      3  H3  UNL     1      14.898  33.141  18.723  1.00  0.00     0.168 HD
HETATM    4  C10 UNL     1      16.606  34.283  18.566  1.00  0.00     0.182 A 
HETATM    5  N4  UNL     1      17.263  35.349  18.100  1.00  0.00    -0.352 N 
ATOM      6  H4  UNL     1      18.246  35.510  18.318  1.00  0.00     0.166 HD
HETATM    7  C11 UNL     1      16.566  36.192  17.334  1.00  0.00     0.047 A 
HETATM    8  C12 UNL     1      17.200  37.329  16.852  1.00  0.00     0.032 A 
HETATM    9  C13 UNL     1      16.535  38.262  16.049  1.00  0.00     0.025 A 
HETATM   10  C14 UNL     1      15.212  38.057  15.677  1.00  0.00     0.006 A 
HETATM   11  C15 UNL     1      14.547  36.949  16.202  1.00  0.00     0.040 A 
HETATM   12  C16 UNL     1      15.219  35.989  17.008  1.00  0.00     0.036 A 
ENDROOT
BRANCH   1  13
HETATM   13  N2  UNL     1      13.283  34.525  17.218  1.00  0.00    -0.342 N 
HETATM   14  H9  UNL     1      13.244  33.597  16.810  1.00  0.00     0.167 HD
BRANCH  13  15
HETATM   15  C8  UNL     1      12.112  34.804  17.964  1.00  0.00     0.034 A 
HETATM   16  C7  UNL     1      11.960  34.210  19.230  1.00  0.00     0.043 A 
HETATM   17  C6  UNL     1      10.784  34.408  19.984  1.00  0.00    -0.006 A 
HETATM   18  C5  UNL     1      10.351  33.967  21.264  1.00  0.00     0.031 A 
HETATM   19  C19 UNL     1       9.758  35.183  19.441  1.00  0.00     0.044 A 
HETATM   20  C4  UNL     1       9.093  34.479  21.480  1.00  0.00     0.092 A 
HETATM   21  N1  UNL     1       8.738  35.212  20.374  1.00  0.00    -0.353 N 
HETATM   22  C18 UNL     1       9.862  35.752  18.165  1.00  0.00     0.033 A 
HETATM   23  C17 UNL     1      11.044  35.538  17.442  1.00  0.00     0.032 A 
BRANCH  21  24
HETATM   24  C3  UNL     1       7.485  35.950  20.244  1.00  0.00     0.155 C 
BRANCH  24  25
HETATM   25  C2  UNL     1       6.401  35.260  19.458  1.00  0.00    -0.017 C 
HETATM   26  C1  UNL     1       5.881  34.041  19.661  1.00  0.00     0.008 C 
ENDBRANCH  24  25
ENDBRANCH  21  24
ENDBRANCH  13  15
ENDBRANCH   1  13
BRANCH  10  27
HETATM   27  N5  UNL     1      14.508  39.047  14.990  1.00  0.00    -0.303 NA
HETATM   28  H13 UNL     1      15.084  39.644  14.405  1.00  0.00     0.124 HD
HETATM   29  H14 UNL     1      13.675  38.721  14.508  1.00  0.00     0.124 HD
ENDBRANCH  10  27
TORSDOF 5
ENDMDL
MODEL 4
REMARK minimizedAffinity -7.07047224
REMARK  5 active torsions:
REMARK  status: ('A' for Active; 'I' for Inactive)
REMARK    1  A    between atoms: C2_2  and  C3_3 
REMARK    2  A    between atoms: C3_3  and  N1_4 
REMARK    3  A    between atoms: C8_9  and  N2_10 
REMARK    4  A    between atoms: N2_10  and  C9_11 
REMARK    5  A    between atoms: C14_20  and  N5_21 
ROOT
HETATM    1  C9  UNL     1      14.653  34.834  17.812  1.00  0.00     0.119 A 
HETATM    2  N3  UNL     1      15.386  34.108  18.677  1.00  0.00    -0.338 N 
ATOM      3  H3  UNL     1      15.020  33.259  19.106  1.00  0.00     0.168 HD
HETATM    4  C10 UNL     1      16.616  34.553  18.946  1.00  0.00     0.182 A 
HETATM    5  N4  UNL     1      17.188  35.649  18.441  1.00  0.00    -0.352 N 
ATOM      6  H4  UNL     1      18.140  35.919  18.689  1.00  0.00     0.166 HD
HETATM    7  C11 UNL     1      16.450  36.373  17.597  1.00  0.00     0.047 A 
HETATM    8  C12 UNL     1      16.995  37.536  17.069  1.00  0.00     0.032 A 
HETATM    9  C13 UNL     1      16.281  38.351  16.183  1.00  0.00     0.025 A 
HETATM   10  C14 UNL     1      15.003  37.994  15.772  1.00  0.00     0.006 A 
HETATM   11  C15 UNL     1      14.423  36.859  16.338  1.00  0.00     0.040 A 
HETATM   12  C16 UNL     1      15.146  36.020  17.229  1.00  0.00     0.036 A 
ENDROOT
BRANCH   1  13
HETATM   13  N2  UNL     1      13.352  34.386  17.452  1.00  0.00    -0.342 N 
HETATM   14  H9  UNL     1      13.430  33.468  17.030  1.00  0.00     0.167 HD
BRANCH  13  15
HETATM   15  C8  UNL     1      12.141  34.514  18.174  1.00  0.00     0.034 A 
HETATM   16  C7  UNL     1      11.151  35.386  17.686  1.00  0.00     0.043 A 
HETATM   17  C6  UNL     1       9.954  35.594  18.403  1.00  0.00    -0.006 A 
HETATM   18  C5  UNL     1       8.792  36.378  18.169  1.00  0.00     0.031 A 
HETATM   19  C19 UNL     1       9.777  34.941  19.624  1.00  0.00     0.044 A 
HETATM   20  C4  UNL     1       7.936  36.187  19.229  1.00  0.00     0.092 A 
HETATM   21  N1  UNL     1       8.538  35.318  20.107  1.00  0.00    -0.353 N 
HETATM   22  C18 UNL     1      10.763  34.100  20.157  1.00  0.00     0.033 A 
HETATM   23  C17 UNL     1      11.940  33.913  19.420  1.00  0.00     0.032 A 
BRANCH  21  24
HETATM   24  C3  UNL     1       7.920  34.834  21.339  1.00  0.00     0.155 C 
BRANCH  24  25
HETATM   25  C2  UNL     1       8.179  35.667  22.566  1.00  0.00    -0.017 C 
HETATM   26  C1  UNL     1       9.360  36.040  23.079  1.00  0.00     0.008 C 
ENDBRANCH  24  25
ENDBRANCH  21  24
ENDBRANCH  13  15
ENDBRANCH   1  13
BRANCH  10  27
HETATM   27  N5  UNL     1      14.240  38.868  14.995  1.00  0.00    -0.303 NA
HETATM   28  H13 UNL     1      14.783  39.483  14.398  1.00  0.00     0.124 HD
HETATM   29  H14 UNL     1      13.466  38.434  14.501  1.00  0.00     0.124 HD
ENDBRANCH  10  27
TORSDOF 5
ENDMDL
MODEL 5
REMARK minimizedAffinity -7.04713345
REMARK  5 active torsions:
REMARK  status: ('A' for Active; 'I' for Inactive)
REMARK    1  A    between atoms: C2_2  and  C3_3 
REMARK    2  A    between atoms: C3_3  and  N1_4 
REMARK    3  A    between atoms: C8_9  and  N2_10 
REMARK    4  A    between atoms: N2_10  and  C9_11 
REMARK    5  A    between atoms: C14_20  and  N5_21 
ROOT
HETATM    1  C9  UNL     1      14.044  36.418  17.039  1.00  0.00     0.119 A 
HETATM    2  N3  UNL     1      13.960  37.354  18.003  1.00  0.00    -0.338 N 
ATOM      3  H3  UNL     1      13.201  37.352  18.684  1.00  0.00     0.168 HD
HETATM    4  C10 UNL     1      14.916  38.286  18.025  1.00  0.00     0.182 A 
HETATM    5  N4  UNL     1      15.949  38.379  17.182  1.00  0.00    -0.352 N 
ATOM      6  H4  UNL     1      16.647  39.117  17.271  1.00  0.00     0.166 HD
HETATM    7  C11 UNL     1      16.019  37.457  16.220  1.00  0.00     0.047 A 
HETATM    8  C12 UNL     1      17.059  37.532  15.304  1.00  0.00     0.032 A 
HETATM    9  C13 UNL     1      17.196  36.607  14.263  1.00  0.00     0.025 A 
HETATM   10  C14 UNL     1      16.302  35.550  14.137  1.00  0.00     0.006 A 
HETATM   11  C15 UNL     1      15.221  35.497  15.015  1.00  0.00     0.040 A 
HETATM   12  C16 UNL     1      15.081  36.426  16.082  1.00  0.00     0.036 A 
ENDROOT
BRANCH   1  13
HETATM   13  N2  UNL     1      13.080  35.374  16.992  1.00  0.00    -0.342 N 
HETATM   14  H9  UNL     1      13.561  34.495  16.837  1.00  0.00     0.167 HD
BRANCH  13  15
HETATM   15  C8  UNL     1      11.933  35.193  17.801  1.00  0.00     0.034 A 
HETATM   16  C7  UNL     1      10.771  35.927  17.501  1.00  0.00     0.043 A 
HETATM   17  C6  UNL     1       9.623  35.827  18.316  1.00  0.00    -0.006 A 
HETATM   18  C5  UNL     1       8.330  36.414  18.267  1.00  0.00     0.031 A 
HETATM   19  C19 UNL     1       9.667  35.007  19.445  1.00  0.00     0.044 A 
HETATM   20  C4  UNL     1       7.615  35.943  19.344  1.00  0.00     0.092 A 
HETATM   21  N1  UNL     1       8.429  35.094  20.054  1.00  0.00    -0.353 N 
HETATM   22  C18 UNL     1      10.823  34.297  19.794  1.00  0.00     0.033 A 
HETATM   23  C17 UNL     1      11.947  34.416  18.963  1.00  0.00     0.032 A 
BRANCH  21  24
HETATM   24  C3  UNL     1       8.012  34.359  21.245  1.00  0.00     0.155 C 
BRANCH  24  25
HETATM   25  C2  UNL     1       8.288  35.040  22.560  1.00  0.00    -0.017 C 
HETATM   26  C1  UNL     1       7.622  36.059  23.120  1.00  0.00     0.008 C 
ENDBRANCH  24  25
ENDBRANCH  21  24
ENDBRANCH  13  15
ENDBRANCH   1  13
BRANCH  10  27
HETATM   27  N5  UNL     1      16.358  34.705  13.027  1.00  0.00    -0.303 NA
HETATM   28  H13 UNL     1      17.283  34.604  12.621  1.00  0.00     0.124 HD
HETATM   29  H14 UNL     1      15.888  33.814  13.147  1.00  0.00     0.124 HD
ENDBRANCH  10  27
TORSDOF 5
ENDMDL
MODEL 6
REMARK minimizedAffinity -7.01658249
REMARK  5 active torsions:
REMARK  status: ('A' for Active; 'I' for Inactive)
REMARK    1  A    between atoms: C2_2  and  C3_3 
REMARK    2  A    between atoms: C3_3  and  N1_4 
REMARK    3  A    between atoms: C8_9  and  N2_10 
REMARK    4  A    between atoms: N2_10  and  C9_11 
REMARK    5  A    between atoms: C14_20  and  N5_21 
ROOT
HETATM    1  C9  UNL     1      15.291  35.431  17.137  1.00  0.00     0.119 A 
HETATM    2  N3  UNL     1      15.683  35.202  18.404  1.00  0.00    -0.338 N 
ATOM      3  H3  UNL     1      15.069  35.394  19.195  1.00  0.00     0.168 HD
HETATM    4  C10 UNL     1      16.913  34.712  18.576  1.00  0.00     0.182 A 
HETATM    5  N4  UNL     1      17.792  34.428  17.612  1.00  0.00    -0.352 N 
ATOM      6  H4  UNL     1      18.713  34.044  17.823  1.00  0.00     0.166 HD
HETATM    7  C11 UNL     1      17.403  34.671  16.358  1.00  0.00     0.047 A 
HETATM    8  C12 UNL     1      18.296  34.417  15.325  1.00  0.00     0.032 A 
HETATM    9  C13 UNL     1      17.964  34.652  13.987  1.00  0.00     0.025 A 
HETATM   10  C14 UNL     1      16.701  35.120  13.645  1.00  0.00     0.006 A 
HETATM   11  C15 UNL     1      15.815  35.432  14.676  1.00  0.00     0.040 A 
HETATM   12  C16 UNL     1      16.141  35.185  16.038  1.00  0.00     0.036 A 
ENDROOT
BRANCH   1  13
HETATM   13  N2  UNL     1      13.975  35.911  16.888  1.00  0.00    -0.342 N 
HETATM   14  H9  UNL     1      13.792  35.853  15.892  1.00  0.00     0.167 HD
BRANCH  13  15
HETATM   15  C8  UNL     1      12.796  35.686  17.637  1.00  0.00     0.034 A 
HETATM   16  C7  UNL     1      12.902  35.066  18.895  1.00  0.00     0.043 A 
HETATM   17  C6  UNL     1      11.750  34.764  19.652  1.00  0.00    -0.006 A 
HETATM   18  C5  UNL     1      11.539  34.172  20.926  1.00  0.00     0.031 A 
HETATM   19  C19 UNL     1      10.496  35.067  19.120  1.00  0.00     0.044 A 
HETATM   20  C4  UNL     1      10.182  34.131  21.150  1.00  0.00     0.092 A 
HETATM   21  N1  UNL     1       9.556  34.672  20.053  1.00  0.00    -0.353 N 
HETATM   22  C18 UNL     1      10.355  35.646  17.852  1.00  0.00     0.033 A 
HETATM   23  C17 UNL     1      11.519  35.934  17.125  1.00  0.00     0.032 A 
BRANCH  21  24
HETATM   24  C3  UNL     1       8.111  34.845  19.934  1.00  0.00     0.155 C 
BRANCH  24  25
HETATM   25  C2  UNL     1       7.356  34.930  21.234  1.00  0.00    -0.017 C 
HETATM   26  C1  UNL     1       6.925  36.029  21.870  1.00  0.00     0.008 C 
ENDBRANCH  24  25
ENDBRANCH  21  24
ENDBRANCH  13  15
ENDBRANCH   1  13
BRANCH  10  27
HETATM   27  N5  UNL     1      16.412  35.480  12.328  1.00  0.00    -0.303 NA
HETATM   28  H13 UNL     1      16.943  34.973  11.627  1.00  0.00     0.124 HD
HETATM   29  H14 UNL     1      15.422  35.525  12.106  1.00  0.00     0.124 HD
ENDBRANCH  10  27
TORSDOF 5
ENDMDL
MODEL 7
REMARK minimizedAffinity -7.00367451
REMARK  5 active torsions:
REMARK  status: ('A' for Active; 'I' for Inactive)
REMARK    1  A    between atoms: C2_2  and  C3_3 
REMARK    2  A    between atoms: C3_3  and  N1_4 
REMARK    3  A    between atoms: C8_9  and  N2_10 
REMARK    4  A    between atoms: N2_10  and  C9_11 
REMARK    5  A    between atoms: C14_20  and  N5_21 
ROOT
HETATM    1  C9  UNL     1      11.910  35.070  20.234  1.00  0.00     0.119 A 
HETATM    2  N3  UNL     1      12.050  35.012  21.572  1.00  0.00    -0.338 N 
ATOM      3  H3  UNL     1      12.923  34.715  22.005  1.00  0.00     0.168 HD
HETATM    4  C10 UNL     1      10.990  35.362  22.305  1.00  0.00     0.182 A 
HETATM    5  N4  UNL     1       9.804  35.764  21.839  1.00  0.00    -0.352 N 
ATOM      6  H4  UNL     1       9.043  36.026  22.465  1.00  0.00     0.166 HD
HETATM    7  C11 UNL     1       9.667  35.805  20.511  1.00  0.00     0.047 A 
HETATM    8  C12 UNL     1       8.443  36.189  19.982  1.00  0.00     0.032 A 
HETATM    9  C13 UNL     1       8.220  36.250  18.602  1.00  0.00     0.025 A 
HETATM   10  C14 UNL     1       9.244  35.959  17.709  1.00  0.00     0.006 A 
HETATM   11  C15 UNL     1      10.461  35.516  18.227  1.00  0.00     0.040 A 
HETATM   12  C16 UNL     1      10.699  35.463  19.628  1.00  0.00     0.036 A 
ENDROOT
BRANCH   1  13
HETATM   13  N2  UNL     1      13.018  34.752  19.402  1.00  0.00    -0.342 N 
HETATM   14  H9  UNL     1      12.862  33.840  18.988  1.00  0.00     0.167 HD
BRANCH  13  15
HETATM   15  C8  UNL     1      13.732  35.597  18.518  1.00  0.00     0.034 A 
HETATM   16  C7  UNL     1      14.358  35.027  17.395  1.00  0.00     0.043 A 
HETATM   17  C6  UNL     1      15.132  35.818  16.520  1.00  0.00    -0.006 A 
HETATM   18  C5  UNL     1      15.855  35.544  15.327  1.00  0.00     0.031 A 
HETATM   19  C19 UNL     1      15.292  37.175  16.802  1.00  0.00     0.044 A 
HETATM   20  C4  UNL     1      16.427  36.721  14.904  1.00  0.00     0.092 A 
HETATM   21  N1  UNL     1      16.085  37.704  15.801  1.00  0.00    -0.353 N 
HETATM   22  C18 UNL     1      14.717  37.764  17.936  1.00  0.00     0.033 A 
HETATM   23  C17 UNL     1      13.952  36.951  18.785  1.00  0.00     0.032 A 
BRANCH  21  24
HETATM   24  C3  UNL     1      16.468  39.107  15.668  1.00  0.00     0.155 C 
BRANCH  24  25
HETATM   25  C2  UNL     1      16.988  39.514  14.315  1.00  0.00    -0.017 C 
HETATM   26  C1  UNL     1      16.301  40.025  13.284  1.00  0.00     0.008 C 
ENDBRANCH  24  25
ENDBRANCH  21  24
ENDBRANCH  13  15
ENDBRANCH   1  13
BRANCH  10  27
HETATM   27  N5  UNL     1       8.990  35.890  16.338  1.00  0.00    -0.303 NA
HETATM   28  H13 UNL     1       8.230  36.484  16.022  1.00  0.00     0.124 HD
HETATM   29  H14 UNL     1       9.812  35.966  15.748  1.00  0.00     0.124 HD
ENDBRANCH  10  27
TORSDOF 5
ENDMDL
MODEL 8
REMARK minimizedAffinity -6.81428051
REMARK  5 active torsions:
REMARK  status: ('A' for Active; 'I' for Inactive)
REMARK    1  A    between atoms: C2_2  and  C3_3 
REMARK    2  A    between atoms: C3_3  and  N1_4 
REMARK    3  A    between atoms: C8_9  and  N2_10 
REMARK    4  A    between atoms: N2_10  and  C9_11 
REMARK    5  A    between atoms: C14_20  and  N5_21 
ROOT
HETATM    1  C9  UNL     1      15.700  35.852  15.981  1.00  0.00     0.119 A 
HETATM    2  N3  UNL     1      16.219  35.195  14.927  1.00  0.00    -0.338 N 
ATOM      3  H3  UNL     1      16.227  34.176  14.883  1.00  0.00     0.168 HD
HETATM    4  C10 UNL     1      16.722  35.940  13.940  1.00  0.00     0.182 A 
HETATM    5  N4  UNL     1      16.761  37.275  13.898  1.00  0.00    -0.352 N 
ATOM      6  H4  UNL     1      17.155  37.775  13.101  1.00  0.00     0.166 HD
HETATM    7  C11 UNL     1      16.259  37.920  14.953  1.00  0.00     0.047 A 
HETATM    8  C12 UNL     1      16.305  39.308  14.966  1.00  0.00     0.032 A 
HETATM    9  C13 UNL     1      15.806  40.054  16.038  1.00  0.00     0.025 A 
HETATM   10  C14 UNL     1      15.208  39.420  17.121  1.00  0.00     0.006 A 
HETATM   11  C15 UNL     1      15.207  38.025  17.147  1.00  0.00     0.040 A 
HETATM   12  C16 UNL     1      15.702  37.260  16.056  1.00  0.00     0.036 A 
ENDROOT
BRANCH   1  13
HETATM   13  N2  UNL     1      15.110  35.113  17.043  1.00  0.00    -0.342 N 
HETATM   14  H9  UNL     1      15.783  35.032  17.796  1.00  0.00     0.167 HD
BRANCH  13  15
HETATM   15  C8  UNL     1      13.789  35.191  17.546  1.00  0.00     0.034 A 
HETATM   16  C7  UNL     1      13.479  34.511  18.738  1.00  0.00     0.043 A 
HETATM   17  C6  UNL     1      12.162  34.507  19.246  1.00  0.00    -0.006 A 
HETATM   18  C5  UNL     1      11.556  33.941  20.400  1.00  0.00     0.031 A 
HETATM   19  C19 UNL     1      11.162  35.168  18.531  1.00  0.00     0.044 A 
HETATM   20  C4  UNL     1      10.220  34.268  20.374  1.00  0.00     0.092 A 
HETATM   21  N1  UNL     1       9.987  35.008  19.241  1.00  0.00    -0.353 N 
HETATM   22  C18 UNL     1      11.431  35.818  17.319  1.00  0.00     0.033 A 
HETATM   23  C17 UNL     1      12.749  35.805  16.842  1.00  0.00     0.032 A 
BRANCH  21  24
HETATM   24  C3  UNL     1       8.691  35.579  18.884  1.00  0.00     0.155 C 
BRANCH  24  25
HETATM   25  C2  UNL     1       7.693  35.681  20.007  1.00  0.00    -0.017 C 
HETATM   26  C1  UNL     1       6.542  35.010  20.155  1.00  0.00     0.008 C 
ENDBRANCH  24  25
ENDBRANCH  21  24
ENDBRANCH  13  15
ENDBRANCH   1  13
BRANCH  10  27
HETATM   27  N5  UNL     1      14.830  40.151  18.249  1.00  0.00    -0.303 NA
HETATM   28  H13 UNL     1      14.581  41.117  18.060  1.00  0.00     0.124 HD
HETATM   29  H14 UNL     1      14.155  39.688  18.850  1.00  0.00     0.124 HD
ENDBRANCH  10  27
TORSDOF 5
ENDMDL
MODEL 9
REMARK minimizedAffinity -6.81018353
REMARK  5 active torsions:
REMARK  status: ('A' for Active; 'I' for Inactive)
REMARK    1  A    between atoms: C2_2  and  C3_3 
REMARK    2  A    between atoms: C3_3  and  N1_4 
REMARK    3  A    between atoms: C8_9  and  N2_10 
REMARK    4  A    between atoms: N2_10  and  C9_11 
REMARK    5  A    between atoms: C14_20  and  N5_21 
ROOT
HETATM    1  C9  UNL     1       2.105  64.608  -2.751  1.00  0.00     0.119 A 
HETATM    2  N3  UNL     1       1.748  63.389  -3.196  1.00  0.00    -0.338 N 
ATOM      3  H3  UNL     1       2.347  62.854  -3.824  1.00  0.00     0.168 HD
HETATM    4  C10 UNL     1       0.574  62.912  -2.775  1.00  0.00     0.182 A 
HETATM    5  N4  UNL     1      -0.282  63.529  -1.956  1.00  0.00    -0.352 N 
ATOM      6  H4  UNL     1      -1.159  63.094  -1.671  1.00  0.00     0.166 HD
HETATM    7  C11 UNL     1       0.070  64.745  -1.530  1.00  0.00     0.047 A 
HETATM    8  C12 UNL     1      -0.802  65.435  -0.700  1.00  0.00     0.032 A 
HETATM    9  C13 UNL     1      -0.507  66.715  -0.218  1.00  0.00     0.025 A 
HETATM   10  C14 UNL     1       0.701  67.325  -0.532  1.00  0.00     0.006 A 
HETATM   11  C15 UNL     1       1.561  66.667  -1.411  1.00  0.00     0.040 A 
HETATM   12  C16 UNL     1       1.273  65.361  -1.895  1.00  0.00     0.036 A 
ENDROOT
BRANCH   1  13
HETATM   13  N2  UNL     1       3.364  65.150  -3.128  1.00  0.00    -0.342 N 
HETATM   14  H9  UNL     1       4.072  64.801  -2.491  1.00  0.00     0.167 HD
BRANCH  13  15
HETATM   15  C8  UNL     1       3.894  65.333  -4.428  1.00  0.00     0.034 A 
HETATM   16  C7  UNL     1       5.205  64.894  -4.692  1.00  0.00     0.043 A 
HETATM   17  C6  UNL     1       5.799  65.110  -5.953  1.00  0.00    -0.006 A 
HETATM   18  C5  UNL     1       7.063  64.781  -6.513  1.00  0.00     0.031 A 
HETATM   19  C19 UNL     1       5.075  65.793  -6.932  1.00  0.00     0.044 A 
HETATM   20  C4  UNL     1       7.085  65.253  -7.805  1.00  0.00     0.092 A 
HETATM   21  N1  UNL     1       5.880  65.866  -8.052  1.00  0.00    -0.353 N 
HETATM   22  C18 UNL     1       3.784  66.279  -6.686  1.00  0.00     0.033 A 
HETATM   23  C17 UNL     1       3.221  66.048  -5.423  1.00  0.00     0.032 A 
BRANCH  21  24
HETATM   24  C3  UNL     1       5.505  66.455  -9.335  1.00  0.00     0.155 C 
BRANCH  24  25
HETATM   25  C2  UNL     1       4.948  65.496 -10.353  1.00  0.00    -0.017 C 
HETATM   26  C1  UNL     1       5.520  65.069 -11.488  1.00  0.00     0.008 C 
ENDBRANCH  24  25
ENDBRANCH  21  24
ENDBRANCH  13  15
ENDBRANCH   1  13
BRANCH  10  27
HETATM   27  N5  UNL     1       0.942  68.650  -0.164  1.00  0.00    -0.303 NA
HETATM   28  H13 UNL     1       0.457  68.947   0.678  1.00  0.00     0.124 HD
HETATM   29  H14 UNL     1       1.920  68.921  -0.162  1.00  0.00     0.124 HD
ENDBRANCH  10  27
TORSDOF 5
ENDMDL
