MODEL 1
REMARK minimizedAffinity -7.56583643
REMARK  4 active torsions:
REMARK  status: ('A' for Active; 'I' for Inactive)
REMARK    1  A    between atoms: N1_1  and  C1_2 
REMARK    2  A    between atoms: C1_2  and  N2_4 
REMARK    3  A    between atoms: C2_7  and  C3_8 
REMARK    4  A    between atoms: C10_15  and  C11_16 
ROOT
HETATM    1  N2  UNL     1      12.729  35.872  17.257  1.00  0.00    -0.258 N 
HETATM    2  N3  UNL     1      11.445  36.256  17.603  1.00  0.00    -0.299 N 
ATOM      3  H3  UNL     1      10.949  37.086  17.277  1.00  0.00     0.187 HD
HETATM    4  C2  UNL     1      10.992  35.354  18.424  1.00  0.00     0.038 C 
HETATM    5  C9  UNL     1      11.913  34.187  18.669  1.00  0.00     0.091 C 
HETATM    6  C10 UNL     1      13.192  34.705  18.021  1.00  0.00     0.149 C 
ENDROOT
BRANCH   6   7
HETATM    7  C11 UNL     1      14.240  35.040  19.071  1.00  0.00    -0.032 A 
HETATM    8  C12 UNL     1      15.534  34.502  19.027  1.00  0.00     0.010 A 
HETATM    9  C13 UNL     1      16.486  34.855  19.985  1.00  0.00     0.013 A 
HETATM   10  C14 UNL     1      16.173  35.758  21.011  1.00  0.00    -0.026 A 
HETATM   11  C15 UNL     1      17.120  36.123  21.981  1.00  0.00     0.012 A 
HETATM   12  C19 UNL     1      14.875  36.311  21.069  1.00  0.00    -0.025 A 
HETATM   13  C16 UNL     1      16.792  37.023  22.997  1.00  0.00     0.001 A 
HETATM   14  C17 UNL     1      15.513  37.567  23.055  1.00  0.00     0.001 A 
HETATM   15  C18 UNL     1      14.560  37.215  22.098  1.00  0.00     0.012 A 
HETATM   16  C20 UNL     1      13.926  35.947  20.098  1.00  0.00     0.021 A 
ENDBRANCH   6   7
BRANCH   1  17
HETATM   17  C1  UNL     1      13.409  36.543  16.255  1.00  0.00     0.187 C 
HETATM   18  S1  UNL     1      14.888  37.301  16.376  1.00  0.00    -0.040 SA
BRANCH  17  19
HETATM   19  N1  UNL     1      12.756  36.546  15.058  1.00  0.00    -0.375 N 
HETATM   20  H1  UNL     1      11.914  35.985  15.004  1.00  0.00     0.158 HD
HETATM   21  H2  UNL     1      13.181  36.934  14.231  1.00  0.00     0.158 HD
ENDBRANCH  17  19
ENDBRANCH   1  17
BRANCH   4  22
HETATM   22  C3  UNL     1       9.650  35.430  19.050  1.00  0.00    -0.012 A 
HETATM   23  C4  UNL     1       9.336  34.694  20.197  1.00  0.00     0.013 A 
HETATM   24  C5  UNL     1       8.061  34.789  20.763  1.00  0.00     0.001 A 
HETATM   25  C6  UNL     1       7.100  35.618  20.186  1.00  0.00     0.000 A 
HETATM   26  C7  UNL     1       7.407  36.352  19.042  1.00  0.00     0.001 A 
HETATM   27  C8  UNL     1       8.679  36.258  18.474  1.00  0.00     0.013 A 
ENDBRANCH   4  22
TORSDOF 4
ENDMDL
MODEL 2
REMARK minimizedAffinity -7.30075741
REMARK  4 active torsions:
REMARK  status: ('A' for Active; 'I' for Inactive)
REMARK    1  A    between atoms: N1_1  and  C1_2 
REMARK    2  A    between atoms: C1_2  and  N2_4 
REMARK    3  A    between atoms: C2_7  and  C3_8 
REMARK    4  A    between atoms: C10_15  and  C11_16 
ROOT
HETATM    1  N2  UNL     1      14.166  35.285  20.252  1.00  0.00    -0.258 N 
HETATM    2  N3  UNL     1      15.121  35.660  19.322  1.00  0.00    -0.299 N 
ATOM      3  H3  UNL     1      15.801  36.414  19.418  1.00  0.00     0.187 HD
HETATM    4  C2  UNL     1      14.984  34.863  18.302  1.00  0.00     0.038 C 
HETATM    5  C9  UNL     1      13.948  33.781  18.465  1.00  0.00     0.091 C 
HETATM    6  C10 UNL     1      13.251  34.257  19.735  1.00  0.00     0.149 C 
ENDROOT
BRANCH   6   7
HETATM    7  C11 UNL     1      11.856  34.780  19.431  1.00  0.00    -0.032 A 
HETATM    8  C12 UNL     1      11.601  35.628  18.345  1.00  0.00     0.010 A 
HETATM    9  C13 UNL     1      10.302  36.065  18.071  1.00  0.00     0.013 A 
HETATM   10  C14 UNL     1       9.224  35.663  18.871  1.00  0.00    -0.026 A 
HETATM   11  C15 UNL     1       7.915  36.093  18.608  1.00  0.00     0.012 A 
HETATM   12  C19 UNL     1       9.464  34.806  19.969  1.00  0.00    -0.025 A 
HETATM   13  C16 UNL     1       6.852  35.684  19.415  1.00  0.00     0.001 A 
HETATM   14  C17 UNL     1       7.087  34.842  20.497  1.00  0.00     0.001 A 
HETATM   15  C18 UNL     1       8.384  34.405  20.773  1.00  0.00     0.012 A 
HETATM   16  C20 UNL     1      10.775  34.374  20.233  1.00  0.00     0.021 A 
ENDBRANCH   6   7
BRANCH   1  17
HETATM   17  C1  UNL     1      14.177  35.838  21.521  1.00  0.00     0.187 C 
HETATM   18  S1  UNL     1      13.014  36.816  22.203  1.00  0.00    -0.040 SA
BRANCH  17  19
HETATM   19  N1  UNL     1      15.279  35.505  22.252  1.00  0.00    -0.375 N 
HETATM   20  H1  UNL     1      15.906  34.826  21.837  1.00  0.00     0.158 HD
HETATM   21  H2  UNL     1      15.370  35.780  23.217  1.00  0.00     0.158 HD
ENDBRANCH  17  19
ENDBRANCH   1  17
BRANCH   4  22
HETATM   22  C3  UNL     1      15.810  34.970  17.076  1.00  0.00    -0.012 A 
HETATM   23  C4  UNL     1      15.350  35.645  15.941  1.00  0.00     0.013 A 
HETATM   24  C5  UNL     1      16.154  35.728  14.801  1.00  0.00     0.001 A 
HETATM   25  C6  UNL     1      17.418  35.139  14.791  1.00  0.00     0.000 A 
HETATM   26  C7  UNL     1      17.880  34.462  15.918  1.00  0.00     0.001 A 
HETATM   27  C8  UNL     1      17.079  34.377  17.059  1.00  0.00     0.013 A 
ENDBRANCH   4  22
TORSDOF 4
ENDMDL
MODEL 3
REMARK minimizedAffinity -7.20230627
REMARK  4 active torsions:
REMARK  status: ('A' for Active; 'I' for Inactive)
REMARK    1  A    between atoms: N1_1  and  C1_2 
REMARK    2  A    between atoms: C1_2  and  N2_4 
REMARK    3  A    between atoms: C2_7  and  C3_8 
REMARK    4  A    between atoms: C10_15  and  C11_16 
ROOT
HETATM    1  N2  UNL     1       4.985  65.265  -6.696  1.00  0.00    -0.258 N 
HETATM    2  N3  UNL     1       5.809  64.197  -7.005  1.00  0.00    -0.299 N 
ATOM      3  H3  UNL     1       5.885  63.728  -7.907  1.00  0.00     0.187 HD
HETATM    4  C2  UNL     1       6.470  63.907  -5.922  1.00  0.00     0.038 C 
HETATM    5  C9  UNL     1       6.218  64.821  -4.751  1.00  0.00     0.091 C 
HETATM    6  C10 UNL     1       5.014  65.602  -5.265  1.00  0.00     0.149 C 
ENDROOT
BRANCH   6   7
HETATM    7  C11 UNL     1       3.748  65.209  -4.520  1.00  0.00    -0.032 A 
HETATM    8  C12 UNL     1       3.739  64.984  -3.136  1.00  0.00     0.010 A 
HETATM    9  C13 UNL     1       2.553  64.658  -2.475  1.00  0.00     0.013 A 
HETATM   10  C14 UNL     1       1.344  64.551  -3.176  1.00  0.00    -0.026 A 
HETATM   11  C15 UNL     1       0.144  64.224  -2.525  1.00  0.00     0.012 A 
HETATM   12  C19 UNL     1       1.335  64.776  -4.571  1.00  0.00    -0.025 A 
HETATM   13  C16 UNL     1      -1.051  64.120  -3.238  1.00  0.00     0.001 A 
HETATM   14  C17 UNL     1      -1.061  64.341  -4.612  1.00  0.00     0.001 A 
HETATM   15  C18 UNL     1       0.123  64.667  -5.275  1.00  0.00     0.012 A 
HETATM   16  C20 UNL     1       2.535  65.104  -5.224  1.00  0.00     0.021 A 
ENDBRANCH   6   7
BRANCH   1  17
HETATM   17  C1  UNL     1       4.284  65.914  -7.697  1.00  0.00     0.187 C 
HETATM   18  S1  UNL     1       3.970  67.546  -7.810  1.00  0.00    -0.040 SA
BRANCH  17  19
HETATM   19  N1  UNL     1       3.831  65.081  -8.677  1.00  0.00    -0.375 N 
HETATM   20  H1  UNL     1       4.135  64.115  -8.621  1.00  0.00     0.158 HD
HETATM   21  H2  UNL     1       3.374  65.439  -9.500  1.00  0.00     0.158 HD
ENDBRANCH  17  19
ENDBRANCH   1  17
BRANCH   4  22
HETATM   22  C3  UNL     1       7.437  62.787  -5.839  1.00  0.00    -0.012 A 
HETATM   23  C4  UNL     1       7.011  61.459  -5.727  1.00  0.00     0.013 A 
HETATM   24  C5  UNL     1       7.950  60.426  -5.652  1.00  0.00     0.001 A 
HETATM   25  C6  UNL     1       9.314  60.716  -5.690  1.00  0.00     0.000 A 
HETATM   26  C7  UNL     1       9.744  62.037  -5.799  1.00  0.00     0.001 A 
HETATM   27  C8  UNL     1       8.809  63.071  -5.873  1.00  0.00     0.013 A 
ENDBRANCH   4  22
TORSDOF 4
ENDMDL
MODEL 4
REMARK minimizedAffinity -7.15974236
REMARK  4 active torsions:
REMARK  status: ('A' for Active; 'I' for Inactive)
REMARK    1  A    between atoms: N1_1  and  C1_2 
REMARK    2  A    between atoms: C1_2  and  N2_4 
REMARK    3  A    between atoms: C2_7  and  C3_8 
REMARK    4  A    between atoms: C10_15  and  C11_16 
ROOT
HETATM    1  N2  UNL     1      18.007  51.238   6.164  1.00  0.00    -0.258 N 
HETATM    2  N3  UNL     1      18.327  51.301   7.509  1.00  0.00    -0.299 N 
ATOM      3  H3  UNL     1      18.162  50.577   8.209  1.00  0.00     0.187 HD
HETATM    4  C2  UNL     1      18.882  52.461   7.709  1.00  0.00     0.038 C 
HETATM    5  C9  UNL     1      19.076  53.302   6.474  1.00  0.00     0.091 C 
HETATM    6  C10 UNL     1      18.247  52.511   5.469  1.00  0.00     0.149 C 
ENDROOT
BRANCH   6   7
HETATM    7  C11 UNL     1      16.972  53.256   5.103  1.00  0.00    -0.032 A 
HETATM    8  C12 UNL     1      15.710  52.825   5.536  1.00  0.00     0.010 A 
HETATM    9  C13 UNL     1      14.560  53.549   5.213  1.00  0.00     0.013 A 
HETATM   10  C14 UNL     1      14.640  54.723   4.451  1.00  0.00    -0.026 A 
HETATM   11  C15 UNL     1      13.493  55.461   4.119  1.00  0.00     0.012 A 
HETATM   12  C19 UNL     1      15.904  55.172   4.009  1.00  0.00    -0.025 A 
HETATM   13  C16 UNL     1      13.590  56.628   3.359  1.00  0.00     0.001 A 
HETATM   14  C17 UNL     1      14.834  57.070   2.921  1.00  0.00     0.001 A 
HETATM   15  C18 UNL     1      15.984  56.348   3.243  1.00  0.00     0.012 A 
HETATM   16  C20 UNL     1      17.054  54.434   4.341  1.00  0.00     0.021 A 
ENDBRANCH   6   7
BRANCH   1  17
HETATM   17  C1  UNL     1      17.560  50.051   5.610  1.00  0.00     0.187 C 
HETATM   18  S1  UNL     1      17.651  48.530   6.284  1.00  0.00    -0.040 SA
BRANCH  17  19
HETATM   19  N1  UNL     1      16.985  50.201   4.383  1.00  0.00    -0.375 N 
HETATM   20  H1  UNL     1      16.857  51.153   4.060  1.00  0.00     0.158 HD
HETATM   21  H2  UNL     1      16.551  49.425   3.909  1.00  0.00     0.158 HD
ENDBRANCH  17  19
ENDBRANCH   1  17
BRANCH   4  22
HETATM   22  C3  UNL     1      19.336  52.922   9.043  1.00  0.00    -0.012 A 
HETATM   23  C4  UNL     1      19.509  54.280   9.327  1.00  0.00     0.013 A 
HETATM   24  C5  UNL     1      19.938  54.681  10.596  1.00  0.00     0.001 A 
HETATM   25  C6  UNL     1      20.194  53.728  11.581  1.00  0.00     0.000 A 
HETATM   26  C7  UNL     1      20.025  52.374  11.303  1.00  0.00     0.001 A 
HETATM   27  C8  UNL     1      19.598  51.970  10.037  1.00  0.00     0.013 A 
ENDBRANCH   4  22
TORSDOF 4
ENDMDL
MODEL 5
REMARK minimizedAffinity -7.12259579
REMARK  4 active torsions:
REMARK  status: ('A' for Active; 'I' for Inactive)
REMARK    1  A    between atoms: N1_1  and  C1_2 
REMARK    2  A    between atoms: C1_2  and  N2_4 
REMARK    3  A    between atoms: C2_7  and  C3_8 
REMARK    4  A    between atoms: C10_15  and  C11_16 
ROOT
HETATM    1  N2  UNL     1      14.010  58.540   3.006  1.00  0.00    -0.258 N 
HETATM    2  N3  UNL     1      14.215  57.171   3.046  1.00  0.00    -0.299 N 
ATOM      3  H3  UNL     1      13.816  56.477   2.413  1.00  0.00     0.187 HD
HETATM    4  C2  UNL     1      15.015  56.940   4.046  1.00  0.00     0.038 C 
HETATM    5  C9  UNL     1      15.518  58.166   4.763  1.00  0.00     0.091 C 
HETATM    6  C10 UNL     1      14.615  59.232   4.153  1.00  0.00     0.149 C 
ENDROOT
BRANCH   6   7
HETATM    7  C11 UNL     1      13.598  59.733   5.167  1.00  0.00    -0.032 A 
HETATM    8  C12 UNL     1      12.731  60.799   4.885  1.00  0.00     0.010 A 
HETATM    9  C13 UNL     1      11.784  61.215   5.824  1.00  0.00     0.013 A 
HETATM   10  C14 UNL     1      11.675  60.577   7.067  1.00  0.00    -0.026 A 
HETATM   11  C15 UNL     1      10.728  60.984   8.020  1.00  0.00     0.012 A 
HETATM   12  C19 UNL     1      12.540  59.501   7.366  1.00  0.00    -0.025 A 
HETATM   13  C16 UNL     1      10.633  60.339   9.253  1.00  0.00     0.001 A 
HETATM   14  C17 UNL     1      11.485  59.280   9.550  1.00  0.00     0.001 A 
HETATM   15  C18 UNL     1      12.432  58.862   8.614  1.00  0.00     0.012 A 
HETATM   16  C20 UNL     1      13.488  59.092   6.413  1.00  0.00     0.021 A 
ENDBRANCH   6   7
BRANCH   1  17
HETATM   17  C1  UNL     1      13.339  59.111   1.939  1.00  0.00     0.187 C 
HETATM   18  S1  UNL     1      13.398  60.702   1.449  1.00  0.00    -0.040 SA
BRANCH  17  19
HETATM   19  N1  UNL     1      12.568  58.229   1.242  1.00  0.00    -0.375 N 
HETATM   20  H1  UNL     1      12.645  57.255   1.510  1.00  0.00     0.158 HD
HETATM   21  H2  UNL     1      12.091  58.503   0.398  1.00  0.00     0.158 HD
ENDBRANCH  17  19
ENDBRANCH   1  17
BRANCH   4  22
HETATM   22  C3  UNL     1      15.447  55.578   4.439  1.00  0.00    -0.012 A 
HETATM   23  C4  UNL     1      14.530  54.622   4.888  1.00  0.00     0.013 A 
HETATM   24  C5  UNL     1      14.971  53.345   5.250  1.00  0.00     0.001 A 
HETATM   25  C6  UNL     1      16.324  53.021   5.164  1.00  0.00     0.000 A 
HETATM   26  C7  UNL     1      17.242  53.971   4.720  1.00  0.00     0.001 A 
HETATM   27  C8  UNL     1      16.806  55.247   4.358  1.00  0.00     0.013 A 
ENDBRANCH   4  22
TORSDOF 4
ENDMDL
MODEL 6
REMARK minimizedAffinity -6.99524641
REMARK  4 active torsions:
REMARK  status: ('A' for Active; 'I' for Inactive)
REMARK    1  A    between atoms: N1_1  and  C1_2 
REMARK    2  A    between atoms: C1_2  and  N2_4 
REMARK    3  A    between atoms: C2_7  and  C3_8 
REMARK    4  A    between atoms: C10_15  and  C11_16 
ROOT
HETATM    1  N2  UNL     1       5.681  64.561  -8.371  1.00  0.00    -0.258 N 
HETATM    2  N3  UNL     1       6.267  63.332  -8.121  1.00  0.00    -0.299 N 
ATOM      3  H3  UNL     1       6.065  62.453  -8.599  1.00  0.00     0.187 HD
HETATM    4  C2  UNL     1       7.124  63.512  -7.159  1.00  0.00     0.038 C 
HETATM    5  C9  UNL     1       7.276  64.937  -6.693  1.00  0.00     0.091 C 
HETATM    6  C10 UNL     1       6.093  65.587  -7.402  1.00  0.00     0.149 C 
ENDROOT
BRANCH   6   7
HETATM    7  C11 UNL     1       5.001  65.963  -6.412  1.00  0.00    -0.032 A 
HETATM    8  C12 UNL     1       4.078  66.985  -6.678  1.00  0.00     0.010 A 
HETATM    9  C13 UNL     1       3.065  67.285  -5.765  1.00  0.00     0.013 A 
HETATM   10  C14 UNL     1       2.944  66.572  -4.565  1.00  0.00    -0.026 A 
HETATM   11  C15 UNL     1       1.930  66.862  -3.638  1.00  0.00     0.012 A 
HETATM   12  C19 UNL     1       3.864  65.538  -4.282  1.00  0.00    -0.025 A 
HETATM   13  C16 UNL     1       1.824  66.143  -2.447  1.00  0.00     0.001 A 
HETATM   14  C17 UNL     1       2.731  65.125  -2.167  1.00  0.00     0.001 A 
HETATM   15  C18 UNL     1       3.744  64.824  -3.078  1.00  0.00     0.012 A 
HETATM   16  C20 UNL     1       4.879  65.246  -5.210  1.00  0.00     0.021 A 
ENDBRANCH   6   7
BRANCH   1  17
HETATM   17  C1  UNL     1       4.850  64.725  -9.465  1.00  0.00     0.187 C 
HETATM   18  S1  UNL     1       5.275  65.279 -10.978  1.00  0.00    -0.040 SA
BRANCH  17  19
HETATM   19  N1  UNL     1       3.555  64.371  -9.226  1.00  0.00    -0.375 N 
HETATM   20  H1  UNL     1       3.365  63.941  -8.329  1.00  0.00     0.158 HD
HETATM   21  H2  UNL     1       2.868  64.370  -9.963  1.00  0.00     0.158 HD
ENDBRANCH  17  19
ENDBRANCH   1  17
BRANCH   4  22
HETATM   22  C3  UNL     1       7.933  62.414  -6.579  1.00  0.00    -0.012 A 
HETATM   23  C4  UNL     1       7.365  61.177  -6.259  1.00  0.00     0.013 A 
HETATM   24  C5  UNL     1       8.157  60.162  -5.714  1.00  0.00     0.001 A 
HETATM   25  C6  UNL     1       9.516  60.380  -5.489  1.00  0.00     0.000 A 
HETATM   26  C7  UNL     1      10.087  61.611  -5.804  1.00  0.00     0.001 A 
HETATM   27  C8  UNL     1       9.298  62.627  -6.347  1.00  0.00     0.013 A 
ENDBRANCH   4  22
TORSDOF 4
ENDMDL
MODEL 7
REMARK minimizedAffinity -6.97595739
REMARK  4 active torsions:
REMARK  status: ('A' for Active; 'I' for Inactive)
REMARK    1  A    between atoms: N1_1  and  C1_2 
REMARK    2  A    between atoms: C1_2  and  N2_4 
REMARK    3  A    between atoms: C2_7  and  C3_8 
REMARK    4  A    between atoms: C10_15  and  C11_16 
ROOT
HETATM    1  N2  UNL     1      13.014  35.737  17.024  1.00  0.00    -0.258 N 
HETATM    2  N3  UNL     1      11.682  36.058  17.221  1.00  0.00    -0.299 N 
ATOM      3  H3  UNL     1      11.114  36.678  16.643  1.00  0.00     0.187 HD
HETATM    4  C2  UNL     1      11.294  35.417  18.284  1.00  0.00     0.038 C 
HETATM    5  C9  UNL     1      12.325  34.504  18.896  1.00  0.00     0.091 C 
HETATM    6  C10 UNL     1      13.567  34.935  18.126  1.00  0.00     0.149 C 
ENDROOT
BRANCH   6   7
HETATM    7  C11 UNL     1      14.526  35.706  19.019  1.00  0.00    -0.032 A 
HETATM    8  C12 UNL     1      14.076  36.487  20.094  1.00  0.00     0.010 A 
HETATM    9  C13 UNL     1      14.983  37.156  20.918  1.00  0.00     0.013 A 
HETATM   10  C14 UNL     1      16.364  37.062  20.693  1.00  0.00    -0.026 A 
HETATM   11  C15 UNL     1      17.287  37.729  21.514  1.00  0.00     0.012 A 
HETATM   12  C19 UNL     1      16.834  36.279  19.616  1.00  0.00    -0.025 A 
HETATM   13  C16 UNL     1      18.658  37.626  21.276  1.00  0.00     0.001 A 
HETATM   14  C17 UNL     1      19.123  36.856  20.215  1.00  0.00     0.001 A 
HETATM   15  C18 UNL     1      18.218  36.186  19.390  1.00  0.00     0.012 A 
HETATM   16  C20 UNL     1      15.910  35.610  18.795  1.00  0.00     0.021 A 
ENDBRANCH   6   7
BRANCH   1  17
HETATM   17  C1  UNL     1      13.660  36.130  15.865  1.00  0.00     0.187 C 
HETATM   18  S1  UNL     1      15.271  35.924  15.491  1.00  0.00    -0.040 SA
BRANCH  17  19
HETATM   19  N1  UNL     1      12.841  36.740  14.962  1.00  0.00    -0.375 N 
HETATM   20  H1  UNL     1      11.852  36.748  15.186  1.00  0.00     0.158 HD
HETATM   21  H2  UNL     1      13.172  37.002  14.047  1.00  0.00     0.158 HD
ENDBRANCH  17  19
ENDBRANCH   1  17
BRANCH   4  22
HETATM   22  C3  UNL     1       9.926  35.531  18.844  1.00  0.00    -0.012 A 
HETATM   23  C4  UNL     1       8.977  36.391  18.284  1.00  0.00     0.013 A 
HETATM   24  C5  UNL     1       7.695  36.474  18.836  1.00  0.00     0.001 A 
HETATM   25  C6  UNL     1       7.359  35.699  19.945  1.00  0.00     0.000 A 
HETATM   26  C7  UNL     1       8.302  34.842  20.508  1.00  0.00     0.001 A 
HETATM   27  C8  UNL     1       9.583  34.757  19.960  1.00  0.00     0.013 A 
ENDBRANCH   4  22
TORSDOF 4
ENDMDL
MODEL 8
REMARK minimizedAffinity -6.85245419
REMARK  4 active torsions:
REMARK  status: ('A' for Active; 'I' for Inactive)
REMARK    1  A    between atoms: N1_1  and  C1_2 
REMARK    2  A    between atoms: C1_2  and  N2_4 
REMARK    3  A    between atoms: C2_7  and  C3_8 
REMARK    4  A    between atoms: C10_15  and  C11_16 
ROOT
HETATM    1  N2  UNL     1      14.963  35.401  18.601  1.00  0.00    -0.258 N 
HETATM    2  N3  UNL     1      15.637  36.474  18.045  1.00  0.00    -0.299 N 
ATOM      3  H3  UNL     1      16.274  37.109  18.528  1.00  0.00     0.187 HD
HETATM    4  C2  UNL     1      15.304  36.518  16.789  1.00  0.00     0.038 C 
HETATM    5  C9  UNL     1      14.406  35.401  16.323  1.00  0.00     0.091 C 
HETATM    6  C10 UNL     1      14.014  34.787  17.661  1.00  0.00     0.149 C 
ENDROOT
BRANCH   6   7
HETATM    7  C11 UNL     1      12.557  35.076  17.991  1.00  0.00    -0.032 A 
HETATM    8  C12 UNL     1      11.746  35.855  17.154  1.00  0.00     0.010 A 
HETATM    9  C13 UNL     1      10.403  36.075  17.466  1.00  0.00     0.013 A 
HETATM   10  C14 UNL     1       9.832  35.520  18.620  1.00  0.00    -0.026 A 
HETATM   11  C15 UNL     1       8.484  35.732  18.946  1.00  0.00     0.012 A 
HETATM   12  C19 UNL     1      10.635  34.731  19.473  1.00  0.00    -0.025 A 
HETATM   13  C16 UNL     1       7.931  35.173  20.099  1.00  0.00     0.001 A 
HETATM   14  C17 UNL     1       8.721  34.397  20.941  1.00  0.00     0.001 A 
HETATM   15  C18 UNL     1      10.064  34.176  20.631  1.00  0.00     0.012 A 
HETATM   16  C20 UNL     1      11.986  34.517  19.147  1.00  0.00     0.021 A 
ENDBRANCH   6   7
BRANCH   1  17
HETATM   17  C1  UNL     1      15.252  34.991  19.891  1.00  0.00     0.187 C 
HETATM   18  S1  UNL     1      14.897  35.797  21.305  1.00  0.00    -0.040 SA
BRANCH  17  19
HETATM   19  N1  UNL     1      15.888  33.786  19.953  1.00  0.00    -0.375 N 
HETATM   20  H1  UNL     1      15.988  33.285  19.078  1.00  0.00     0.158 HD
HETATM   21  H2  UNL     1      16.083  33.342  20.836  1.00  0.00     0.158 HD
ENDBRANCH  17  19
ENDBRANCH   1  17
BRANCH   4  22
HETATM   22  C3  UNL     1      15.797  37.559  15.856  1.00  0.00    -0.012 A 
HETATM   23  C4  UNL     1      16.675  37.250  14.813  1.00  0.00     0.013 A 
HETATM   24  C5  UNL     1      17.121  38.256  13.950  1.00  0.00     0.001 A 
HETATM   25  C6  UNL     1      16.690  39.570  14.126  1.00  0.00     0.000 A 
HETATM   26  C7  UNL     1      15.816  39.885  15.165  1.00  0.00     0.001 A 
HETATM   27  C8  UNL     1      15.370  38.882  16.029  1.00  0.00     0.013 A 
ENDBRANCH   4  22
TORSDOF 4
ENDMDL
MODEL 9
REMARK minimizedAffinity -6.82275057
REMARK  4 active torsions:
REMARK  status: ('A' for Active; 'I' for Inactive)
REMARK    1  A    between atoms: N1_1  and  C1_2 
REMARK    2  A    between atoms: C1_2  and  N2_4 
REMARK    3  A    between atoms: C2_7  and  C3_8 
REMARK    4  A    between atoms: C10_15  and  C11_16 
ROOT
HETATM    1  N2  UNL     1      19.489  51.107   4.592  1.00  0.00    -0.258 N 
HETATM    2  N3  UNL     1      18.897  49.894   4.284  1.00  0.00    -0.299 N 
ATOM      3  H3  UNL     1      19.164  49.260   3.531  1.00  0.00     0.187 HD
HETATM    4  C2  UNL     1      17.934  49.719   5.142  1.00  0.00     0.038 C 
HETATM    5  C9  UNL     1      17.815  50.782   6.202  1.00  0.00     0.091 C 
HETATM    6  C10 UNL     1      18.764  51.836   5.642  1.00  0.00     0.149 C 
ENDROOT
BRANCH   6   7
HETATM    7  C11 UNL     1      17.998  53.045   5.128  1.00  0.00    -0.032 A 
HETATM    8  C12 UNL     1      18.644  54.127   4.512  1.00  0.00     0.010 A 
HETATM    9  C13 UNL     1      17.910  55.208   4.018  1.00  0.00     0.013 A 
HETATM   10  C14 UNL     1      16.513  55.236   4.123  1.00  0.00    -0.026 A 
HETATM   11  C15 UNL     1      15.762  56.316   3.631  1.00  0.00     0.012 A 
HETATM   12  C19 UNL     1      15.846  54.153   4.738  1.00  0.00    -0.025 A 
HETATM   13  C16 UNL     1      14.371  56.329   3.743  1.00  0.00     0.001 A 
HETATM   14  C17 UNL     1      13.714  55.263   4.350  1.00  0.00     0.001 A 
HETATM   15  C18 UNL     1      14.445  54.182   4.844  1.00  0.00     0.012 A 
HETATM   16  C20 UNL     1      16.597  53.071   5.230  1.00  0.00     0.021 A 
ENDBRANCH   6   7
BRANCH   1  17
HETATM   17  C1  UNL     1      20.661  51.488   3.961  1.00  0.00     0.187 C 
HETATM   18  S1  UNL     1      22.123  51.837   4.680  1.00  0.00    -0.040 SA
BRANCH  17  19
HETATM   19  N1  UNL     1      20.553  51.560   2.604  1.00  0.00    -0.375 N 
HETATM   20  H1  UNL     1      19.679  51.238   2.204  1.00  0.00     0.158 HD
HETATM   21  H2  UNL     1      21.355  51.750   2.024  1.00  0.00     0.158 HD
ENDBRANCH  17  19
ENDBRANCH   1  17
BRANCH   4  22
HETATM   22  C3  UNL     1      17.035  48.540   5.119  1.00  0.00    -0.012 A 
HETATM   23  C4  UNL     1      16.816  47.766   6.263  1.00  0.00     0.013 A 
HETATM   24  C5  UNL     1      15.961  46.661   6.208  1.00  0.00     0.001 A 
HETATM   25  C6  UNL     1      15.324  46.328   5.013  1.00  0.00     0.000 A 
HETATM   26  C7  UNL     1      15.541  47.095   3.870  1.00  0.00     0.001 A 
HETATM   27  C8  UNL     1      16.394  48.198   3.921  1.00  0.00     0.013 A 
ENDBRANCH   4  22
TORSDOF 4
ENDMDL
