MODEL 1
REMARK minimizedAffinity -7.95266056
REMARK  3 active torsions:
REMARK  status: ('A' for Active; 'I' for Inactive)
REMARK    1  A    between atoms: N1_1  and  C1_2 
REMARK    2  A    between atoms: C2_5  and  N3_6 
REMARK    3  A    between atoms: N3_6  and  C3_7 
ROOT
HETATM    1  C1  UNL     1      12.458  35.980  16.151  1.00  0.00     0.156 A 
HETATM    2  N2  UNL     1      13.406  35.290  16.813  1.00  0.00    -0.323 N 
ATOM      3  H2  UNL     1      14.355  35.216  16.444  1.00  0.00     0.169 HD
HETATM    4  C2  UNL     1      13.069  34.698  17.976  1.00  0.00     0.096 A 
HETATM    5  C9  UNL     1      11.811  34.841  18.483  1.00  0.00     0.012 A 
HETATM    6  C10 UNL     1      10.926  35.596  17.731  1.00  0.00     0.055 A 
HETATM    7  N4  UNL     1      11.205  36.179  16.565  1.00  0.00    -0.332 N 
ATOM      8  H4  UNL     1      10.524  36.726  16.039  1.00  0.00     0.168 HD
HETATM    9  C11 UNL     1       9.660  35.678  18.421  1.00  0.00    -0.002 A 
HETATM   10  C12 UNL     1       8.478  36.309  18.076  1.00  0.00     0.014 A 
HETATM   11  C13 UNL     1       7.401  36.219  18.962  1.00  0.00     0.001 A 
HETATM   12  C14 UNL     1       7.516  35.508  20.170  1.00  0.00     0.001 A 
HETATM   13  C15 UNL     1       8.711  34.871  20.517  1.00  0.00     0.008 A 
HETATM   14  C16 UNL     1       9.772  34.965  19.634  1.00  0.00    -0.041 A 
HETATM   15  C17 UNL     1      11.167  34.374  19.758  1.00  0.00     0.083 A 
ENDROOT
BRANCH   4  16
HETATM   16  N3  UNL     1      14.083  33.995  18.645  1.00  0.00    -0.245 NA
HETATM   17  H3  UNL     1      13.604  33.210  19.091  1.00  0.00     0.135 HD
BRANCH  16  18
HETATM   18  C3  UNL     1      15.006  34.542  19.568  1.00  0.00     0.013 A 
HETATM   19  C4  UNL     1      14.644  34.595  20.919  1.00  0.00     0.024 A 
HETATM   20  C5  UNL     1      15.488  35.187  21.862  1.00  0.00     0.002 A 
HETATM   21  C6  UNL     1      16.693  35.757  21.457  1.00  0.00     0.000 A 
HETATM   22  C7  UNL     1      17.047  35.744  20.110  1.00  0.00     0.002 A 
HETATM   23  C8  UNL     1      16.202  35.152  19.169  1.00  0.00     0.024 A 
ENDBRANCH  16  18
ENDBRANCH   4  16
BRANCH   1  24
HETATM   24  N1  UNL     1      12.829  36.575  14.963  1.00  0.00    -0.274 NA
HETATM   25  H1  UNL     1      13.824  36.744  14.958  1.00  0.00     0.127 HD
HETATM   26  H2  UNL     1      12.224  37.363  14.777  1.00  0.00     0.127 HD
ENDBRANCH   1  24
TORSDOF 3
ENDMDL
MODEL 2
REMARK minimizedAffinity -7.85280848
REMARK  3 active torsions:
REMARK  status: ('A' for Active; 'I' for Inactive)
REMARK    1  A    between atoms: N1_1  and  C1_2 
REMARK    2  A    between atoms: C2_5  and  N3_6 
REMARK    3  A    between atoms: N3_6  and  C3_7 
ROOT
HETATM    1  C1  UNL     1      10.258  35.576  17.473  1.00  0.00     0.156 A 
HETATM    2  N2  UNL     1      10.028  35.006  18.670  1.00  0.00    -0.323 N 
ATOM      3  H2  UNL     1       9.078  34.910  19.031  1.00  0.00     0.169 HD
HETATM    4  C2  UNL     1      11.085  34.564  19.380  1.00  0.00     0.096 A 
HETATM    5  C9  UNL     1      12.346  34.655  18.868  1.00  0.00     0.012 A 
HETATM    6  C10 UNL     1      12.461  35.235  17.615  1.00  0.00     0.055 A 
HETATM    7  N4  UNL     1      11.450  35.708  16.887  1.00  0.00    -0.332 N 
ATOM      8  H4  UNL     1      11.576  36.131  15.968  1.00  0.00     0.168 HD
HETATM    9  C11 UNL     1      13.847  35.221  17.206  1.00  0.00    -0.002 A 
HETATM   10  C12 UNL     1      14.457  35.682  16.055  1.00  0.00     0.014 A 
HETATM   11  C13 UNL     1      15.840  35.524  15.933  1.00  0.00     0.001 A 
HETATM   12  C14 UNL     1      16.590  34.911  16.954  1.00  0.00     0.001 A 
HETATM   13  C15 UNL     1      15.971  34.445  18.118  1.00  0.00     0.008 A 
HETATM   14  C16 UNL     1      14.601  34.607  18.230  1.00  0.00    -0.041 A 
HETATM   15  C17 UNL     1      13.687  34.200  19.373  1.00  0.00     0.083 A 
ENDROOT
BRANCH   4  16
HETATM   16  N3  UNL     1      10.809  33.966  20.620  1.00  0.00    -0.245 NA
HETATM   17  H3  UNL     1      10.707  32.971  20.411  1.00  0.00     0.135 HD
BRANCH  16  18
HETATM   18  C3  UNL     1       9.781  34.344  21.515  1.00  0.00     0.013 A 
HETATM   19  C4  UNL     1       8.885  35.344  21.118  1.00  0.00     0.024 A 
HETATM   20  C5  UNL     1       7.894  35.803  21.989  1.00  0.00     0.002 A 
HETATM   21  C6  UNL     1       7.807  35.284  23.279  1.00  0.00     0.000 A 
HETATM   22  C7  UNL     1       8.716  34.316  23.700  1.00  0.00     0.002 A 
HETATM   23  C8  UNL     1       9.705  33.859  22.827  1.00  0.00     0.024 A 
ENDBRANCH  16  18
ENDBRANCH   4  16
BRANCH   1  24
HETATM   24  N1  UNL     1       9.159  36.021  16.767  1.00  0.00    -0.274 NA
HETATM   25  H1  UNL     1       8.337  35.510  17.054  1.00  0.00     0.127 HD
HETATM   26  H2  UNL     1       9.376  36.035  15.780  1.00  0.00     0.127 HD
ENDBRANCH   1  24
TORSDOF 3
ENDMDL
MODEL 3
REMARK minimizedAffinity -7.50867462
REMARK  3 active torsions:
REMARK  status: ('A' for Active; 'I' for Inactive)
REMARK    1  A    between atoms: N1_1  and  C1_2 
REMARK    2  A    between atoms: C2_5  and  N3_6 
REMARK    3  A    between atoms: N3_6  and  C3_7 
ROOT
HETATM    1  C1  UNL     1      12.841  36.381  16.221  1.00  0.00     0.156 A 
HETATM    2  N2  UNL     1      11.698  35.775  16.591  1.00  0.00    -0.323 N 
ATOM      3  H2  UNL     1      10.919  35.683  15.938  1.00  0.00     0.169 HD
HETATM    4  C2  UNL     1      11.609  35.293  17.846  1.00  0.00     0.096 A 
HETATM    5  C9  UNL     1      12.672  35.381  18.695  1.00  0.00     0.012 A 
HETATM    6  C10 UNL     1      13.807  36.001  18.199  1.00  0.00     0.055 A 
HETATM    7  N4  UNL     1      13.934  36.514  16.975  1.00  0.00    -0.332 N 
ATOM      8  H4  UNL     1      14.787  36.966  16.647  1.00  0.00     0.168 HD
HETATM    9  C11 UNL     1      14.844  35.978  19.204  1.00  0.00    -0.002 A 
HETATM   10  C12 UNL     1      16.137  36.469  19.185  1.00  0.00     0.014 A 
HETATM   11  C13 UNL     1      16.925  36.292  20.326  1.00  0.00     0.001 A 
HETATM   12  C14 UNL     1      16.417  35.633  21.460  1.00  0.00     0.001 A 
HETATM   13  C15 UNL     1      15.110  35.139  21.478  1.00  0.00     0.008 A 
HETATM   14  C16 UNL     1      14.337  35.318  20.345  1.00  0.00    -0.041 A 
HETATM   15  C17 UNL     1      12.900  34.888  20.097  1.00  0.00     0.083 A 
ENDROOT
BRANCH   4  16
HETATM   16  N3  UNL     1      10.406  34.658  18.196  1.00  0.00    -0.245 NA
HETATM   17  H3  UNL     1      10.033  34.306  17.312  1.00  0.00     0.135 HD
BRANCH  16  18
HETATM   18  C3  UNL     1       9.345  35.234  18.934  1.00  0.00     0.013 A 
HETATM   19  C4  UNL     1       9.193  34.871  20.277  1.00  0.00     0.024 A 
HETATM   20  C5  UNL     1       8.123  35.357  21.032  1.00  0.00     0.002 A 
HETATM   21  C6  UNL     1       7.176  36.191  20.442  1.00  0.00     0.000 A 
HETATM   22  C7  UNL     1       7.295  36.530  19.095  1.00  0.00     0.002 A 
HETATM   23  C8  UNL     1       8.366  36.044  18.342  1.00  0.00     0.024 A 
ENDBRANCH  16  18
ENDBRANCH   4  16
BRANCH   1  24
HETATM   24  N1  UNL     1      12.907  36.867  14.931  1.00  0.00    -0.274 NA
HETATM   25  H1  UNL     1      12.263  36.361  14.340  1.00  0.00     0.127 HD
HETATM   26  H2  UNL     1      13.872  36.911  14.636  1.00  0.00     0.127 HD
ENDBRANCH   1  24
TORSDOF 3
ENDMDL
MODEL 4
REMARK minimizedAffinity -7.34288836
REMARK  3 active torsions:
REMARK  status: ('A' for Active; 'I' for Inactive)
REMARK    1  A    between atoms: N1_1  and  C1_2 
REMARK    2  A    between atoms: C2_5  and  N3_6 
REMARK    3  A    between atoms: N3_6  and  C3_7 
ROOT
HETATM    1  C1  UNL     1       9.494  35.624  17.859  1.00  0.00     0.156 A 
HETATM    2  N2  UNL     1      10.687  35.016  17.718  1.00  0.00    -0.323 N 
ATOM      3  H2  UNL     1      11.161  34.996  16.814  1.00  0.00     0.169 HD
HETATM    4  C2  UNL     1      11.239  34.436  18.801  1.00  0.00     0.096 A 
HETATM    5  C9  UNL     1      10.620  34.509  20.014  1.00  0.00     0.012 A 
HETATM    6  C10 UNL     1       9.410  35.182  20.047  1.00  0.00     0.055 A 
HETATM    7  N4  UNL     1       8.813  35.750  18.999  1.00  0.00    -0.332 N 
ATOM      8  H4  UNL     1       7.919  36.236  19.064  1.00  0.00     0.168 HD
HETATM    9  C11 UNL     1       8.909  35.200  21.402  1.00  0.00    -0.002 A 
HETATM   10  C12 UNL     1       7.753  35.741  21.934  1.00  0.00     0.014 A 
HETATM   11  C13 UNL     1       7.533  35.604  23.308  1.00  0.00     0.001 A 
HETATM   12  C14 UNL     1       8.463  34.936  24.125  1.00  0.00     0.001 A 
HETATM   13  C15 UNL     1       9.631  34.389  23.585  1.00  0.00     0.008 A 
HETATM   14  C16 UNL     1       9.840  34.529  22.225  1.00  0.00    -0.041 A 
HETATM   15  C17 UNL     1      11.007  34.036  21.387  1.00  0.00     0.083 A 
ENDROOT
BRANCH   4  16
HETATM   16  N3  UNL     1      12.488  33.820  18.621  1.00  0.00    -0.245 NA
HETATM   17  H3  UNL     1      12.499  33.054  19.297  1.00  0.00     0.135 HD
BRANCH  16  18
HETATM   18  C3  UNL     1      13.747  34.465  18.653  1.00  0.00     0.013 A 
HETATM   19  C4  UNL     1      14.066  35.356  17.621  1.00  0.00     0.024 A 
HETATM   20  C5  UNL     1      15.321  35.968  17.568  1.00  0.00     0.002 A 
HETATM   21  C6  UNL     1      16.281  35.673  18.533  1.00  0.00     0.000 A 
HETATM   22  C7  UNL     1      15.989  34.759  19.544  1.00  0.00     0.002 A 
HETATM   23  C8  UNL     1      14.734  34.149  19.596  1.00  0.00     0.024 A 
ENDBRANCH  16  18
ENDBRANCH   4  16
BRANCH   1  24
HETATM   24  N1  UNL     1       8.950  36.210  16.735  1.00  0.00    -0.274 NA
HETATM   25  H1  UNL     1       9.682  36.443  16.080  1.00  0.00     0.127 HD
HETATM   26  H2  UNL     1       8.320  36.950  17.011  1.00  0.00     0.127 HD
ENDBRANCH   1  24
TORSDOF 3
ENDMDL
MODEL 5
REMARK minimizedAffinity -7.17914867
REMARK  3 active torsions:
REMARK  status: ('A' for Active; 'I' for Inactive)
REMARK    1  A    between atoms: N1_1  and  C1_2 
REMARK    2  A    between atoms: C2_5  and  N3_6 
REMARK    3  A    between atoms: N3_6  and  C3_7 
ROOT
HETATM    1  C1  UNL     1      13.204  34.498  19.594  1.00  0.00     0.156 A 
HETATM    2  N2  UNL     1      13.477  34.975  18.364  1.00  0.00    -0.323 N 
ATOM      3  H2  UNL     1      14.421  34.925  17.981  1.00  0.00     0.169 HD
HETATM    4  C2  UNL     1      12.469  35.521  17.655  1.00  0.00     0.096 A 
HETATM    5  C9  UNL     1      11.203  35.541  18.160  1.00  0.00     0.012 A 
HETATM    6  C10 UNL     1      11.034  34.998  19.422  1.00  0.00     0.055 A 
HETATM    7  N4  UNL     1      12.002  34.470  20.171  1.00  0.00    -0.332 N 
ATOM      8  H4  UNL     1      11.838  34.081  21.100  1.00  0.00     0.168 HD
HETATM    9  C11 UNL     1       9.639  35.064  19.790  1.00  0.00    -0.002 A 
HETATM   10  C12 UNL     1       8.983  34.659  20.938  1.00  0.00     0.014 A 
HETATM   11  C13 UNL     1       7.601  34.850  21.010  1.00  0.00     0.001 A 
HETATM   12  C14 UNL     1       6.896  35.438  19.943  1.00  0.00     0.001 A 
HETATM   13  C15 UNL     1       7.561  35.848  18.783  1.00  0.00     0.008 A 
HETATM   14  C16 UNL     1       8.929  35.655  18.721  1.00  0.00    -0.041 A 
HETATM   15  C17 UNL     1       9.889  36.005  17.596  1.00  0.00     0.083 A 
ENDROOT
BRANCH   4  16
HETATM   16  N3  UNL     1      12.786  36.000  16.374  1.00  0.00    -0.245 NA
HETATM   17  H3  UNL     1      12.493  35.255  15.739  1.00  0.00     0.135 HD
BRANCH  16  18
HETATM   18  C3  UNL     1      14.050  36.478  15.953  1.00  0.00     0.013 A 
HETATM   19  C4  UNL     1      14.285  37.858  15.985  1.00  0.00     0.024 A 
HETATM   20  C5  UNL     1      15.490  38.388  15.517  1.00  0.00     0.002 A 
HETATM   21  C6  UNL     1      16.461  37.545  14.984  1.00  0.00     0.000 A 
HETATM   22  C7  UNL     1      16.224  36.173  14.911  1.00  0.00     0.002 A 
HETATM   23  C8  UNL     1      15.020  35.645  15.380  1.00  0.00     0.024 A 
ENDBRANCH  16  18
ENDBRANCH   4  16
BRANCH   1  24
HETATM   24  N1  UNL     1      14.253  33.946  20.300  1.00  0.00    -0.274 NA
HETATM   25  H1  UNL     1      14.965  33.622  19.661  1.00  0.00     0.127 HD
HETATM   26  H2  UNL     1      13.895  33.281  20.971  1.00  0.00     0.127 HD
ENDBRANCH   1  24
TORSDOF 3
ENDMDL
MODEL 6
REMARK minimizedAffinity -6.90333366
REMARK  3 active torsions:
REMARK  status: ('A' for Active; 'I' for Inactive)
REMARK    1  A    between atoms: N1_1  and  C1_2 
REMARK    2  A    between atoms: C2_5  and  N3_6 
REMARK    3  A    between atoms: N3_6  and  C3_7 
ROOT
HETATM    1  C1  UNL     1       1.322  63.939  -2.976  1.00  0.00     0.156 A 
HETATM    2  N2  UNL     1       1.990  64.242  -4.105  1.00  0.00    -0.323 N 
ATOM      3  H2  UNL     1       2.213  63.521  -4.792  1.00  0.00     0.169 HD
HETATM    4  C2  UNL     1       2.357  65.524  -4.304  1.00  0.00     0.096 A 
HETATM    5  C9  UNL     1       2.014  66.487  -3.402  1.00  0.00     0.012 A 
HETATM    6  C10 UNL     1       1.303  66.065  -2.291  1.00  0.00     0.055 A 
HETATM    7  N4  UNL     1       0.939  64.808  -2.039  1.00  0.00    -0.332 N 
ATOM      8  H4  UNL     1       0.417  64.536  -1.206  1.00  0.00     0.168 HD
HETATM    9  C11 UNL     1       0.989  67.206  -1.462  1.00  0.00    -0.002 A 
HETATM   10  C12 UNL     1       0.308  67.294  -0.262  1.00  0.00     0.014 A 
HETATM   11  C13 UNL     1       0.152  68.557   0.316  1.00  0.00     0.001 A 
HETATM   12  C14 UNL     1       0.673  69.706  -0.307  1.00  0.00     0.001 A 
HETATM   13  C15 UNL     1       1.363  69.614  -1.520  1.00  0.00     0.008 A 
HETATM   14  C16 UNL     1       1.512  68.360  -2.084  1.00  0.00    -0.041 A 
HETATM   15  C17 UNL     1       2.210  67.977  -3.378  1.00  0.00     0.083 A 
ENDROOT
BRANCH   4  16
HETATM   16  N3  UNL     1       3.044  65.807  -5.496  1.00  0.00    -0.245 NA
HETATM   17  H3  UNL     1       2.478  65.376  -6.230  1.00  0.00     0.135 HD
BRANCH  16  18
HETATM   18  C3  UNL     1       4.406  65.528  -5.757  1.00  0.00     0.013 A 
HETATM   19  C4  UNL     1       4.901  65.769  -7.045  1.00  0.00     0.024 A 
HETATM   20  C5  UNL     1       6.220  65.448  -7.375  1.00  0.00     0.002 A 
HETATM   21  C6  UNL     1       7.050  64.856  -6.428  1.00  0.00     0.000 A 
HETATM   22  C7  UNL     1       6.559  64.575  -5.154  1.00  0.00     0.002 A 
HETATM   23  C8  UNL     1       5.241  64.897  -4.825  1.00  0.00     0.024 A 
ENDBRANCH  16  18
ENDBRANCH   4  16
BRANCH   1  24
HETATM   24  N1  UNL     1       0.959  62.620  -2.796  1.00  0.00    -0.274 NA
HETATM   25  H1  UNL     1       0.892  62.157  -3.690  1.00  0.00     0.127 HD
HETATM   26  H2  UNL     1       0.155  62.573  -2.186  1.00  0.00     0.127 HD
ENDBRANCH   1  24
TORSDOF 3
ENDMDL
MODEL 7
REMARK minimizedAffinity -6.90092564
REMARK  3 active torsions:
REMARK  status: ('A' for Active; 'I' for Inactive)
REMARK    1  A    between atoms: N1_1  and  C1_2 
REMARK    2  A    between atoms: C2_5  and  N3_6 
REMARK    3  A    between atoms: N3_6  and  C3_7 
ROOT
HETATM    1  C1  UNL     1      11.228  35.769  23.007  1.00  0.00     0.156 A 
HETATM    2  N2  UNL     1      12.138  36.342  22.196  1.00  0.00    -0.323 N 
ATOM      3  H2  UNL     1      13.085  36.532  22.523  1.00  0.00     0.169 HD
HETATM    4  C2  UNL     1      11.763  36.657  20.940  1.00  0.00     0.096 A 
HETATM    5  C9  UNL     1      10.508  36.356  20.499  1.00  0.00     0.012 A 
HETATM    6  C10 UNL     1       9.665  35.743  21.411  1.00  0.00     0.055 A 
HETATM    7  N4  UNL     1       9.982  35.434  22.668  1.00  0.00    -0.332 N 
ATOM      8  H4  UNL     1       9.331  34.984  23.312  1.00  0.00     0.168 HD
HETATM    9  C11 UNL     1       8.398  35.462  20.778  1.00  0.00    -0.002 A 
HETATM   10  C12 UNL     1       7.249  34.870  21.271  1.00  0.00     0.014 A 
HETATM   11  C13 UNL     1       6.160  34.724  20.407  1.00  0.00     0.001 A 
HETATM   12  C14 UNL     1       6.232  35.165  19.073  1.00  0.00     0.001 A 
HETATM   13  C15 UNL     1       7.394  35.763  18.576  1.00  0.00     0.008 A 
HETATM   14  C16 UNL     1       8.467  35.904  19.438  1.00  0.00    -0.041 A 
HETATM   15  C17 UNL     1       9.832  36.513  19.166  1.00  0.00     0.083 A 
ENDROOT
BRANCH   4  16
HETATM   16  N3  UNL     1      12.739  37.243  20.118  1.00  0.00    -0.245 NA
HETATM   17  H3  UNL     1      12.222  37.901  19.531  1.00  0.00     0.135 HD
BRANCH  16  18
HETATM   18  C3  UNL     1      13.668  36.552  19.306  1.00  0.00     0.013 A 
HETATM   19  C4  UNL     1      13.260  36.135  18.033  1.00  0.00     0.024 A 
HETATM   20  C5  UNL     1      14.115  35.389  17.217  1.00  0.00     0.002 A 
HETATM   21  C6  UNL     1      15.378  35.029  17.679  1.00  0.00     0.000 A 
HETATM   22  C7  UNL     1      15.782  35.405  18.958  1.00  0.00     0.002 A 
HETATM   23  C8  UNL     1      14.927  36.150  19.772  1.00  0.00     0.024 A 
ENDBRANCH  16  18
ENDBRANCH   4  16
BRANCH   1  24
HETATM   24  N1  UNL     1      11.636  35.457  24.287  1.00  0.00    -0.274 NA
HETATM   25  H1  UNL     1      12.638  35.336  24.309  1.00  0.00     0.127 HD
HETATM   26  H2  UNL     1      11.069  34.703  24.647  1.00  0.00     0.127 HD
ENDBRANCH   1  24
TORSDOF 3
ENDMDL
MODEL 8
REMARK minimizedAffinity -6.88657856
REMARK  3 active torsions:
REMARK  status: ('A' for Active; 'I' for Inactive)
REMARK    1  A    between atoms: N1_1  and  C1_2 
REMARK    2  A    between atoms: C2_5  and  N3_6 
REMARK    3  A    between atoms: N3_6  and  C3_7 
ROOT
HETATM    1  C1  UNL     1      17.056  49.589   4.897  1.00  0.00     0.156 A 
HETATM    2  N2  UNL     1      16.952  50.926   4.780  1.00  0.00    -0.323 N 
ATOM      3  H2  UNL     1      16.350  51.345   4.071  1.00  0.00     0.169 HD
HETATM    4  C2  UNL     1      17.665  51.696   5.625  1.00  0.00     0.096 A 
HETATM    5  C9  UNL     1      18.432  51.126   6.598  1.00  0.00     0.012 A 
HETATM    6  C10 UNL     1      18.442  49.742   6.642  1.00  0.00     0.055 A 
HETATM    7  N4  UNL     1      17.774  48.939   5.815  1.00  0.00    -0.332 N 
ATOM      8  H4  UNL     1      17.809  47.921   5.878  1.00  0.00     0.168 HD
HETATM    9  C11 UNL     1      19.266  49.304   7.744  1.00  0.00    -0.002 A 
HETATM   10  C12 UNL     1      19.585  48.034   8.189  1.00  0.00     0.014 A 
HETATM   11  C13 UNL     1      20.417  47.917   9.306  1.00  0.00     0.001 A 
HETATM   12  C14 UNL     1      20.915  49.059   9.959  1.00  0.00     0.001 A 
HETATM   13  C15 UNL     1      20.591  50.342   9.508  1.00  0.00     0.008 A 
HETATM   14  C16 UNL     1      19.767  50.448   8.402  1.00  0.00    -0.041 A 
HETATM   15  C17 UNL     1      19.265  51.704   7.708  1.00  0.00     0.083 A 
ENDROOT
BRANCH   4  16
HETATM   16  N3  UNL     1      17.527  53.086   5.482  1.00  0.00    -0.245 NA
HETATM   17  H3  UNL     1      17.779  53.468   6.396  1.00  0.00     0.135 HD
BRANCH  16  18
HETATM   18  C3  UNL     1      16.376  53.764   5.015  1.00  0.00     0.013 A 
HETATM   19  C4  UNL     1      16.550  54.914   4.236  1.00  0.00     0.024 A 
HETATM   20  C5  UNL     1      15.449  55.659   3.806  1.00  0.00     0.002 A 
HETATM   21  C6  UNL     1      14.162  55.277   4.176  1.00  0.00     0.000 A 
HETATM   22  C7  UNL     1      13.977  54.156   4.983  1.00  0.00     0.002 A 
HETATM   23  C8  UNL     1      15.079  53.412   5.411  1.00  0.00     0.024 A 
ENDBRANCH  16  18
ENDBRANCH   4  16
BRANCH   1  24
HETATM   24  N1  UNL     1      16.317  48.822   4.020  1.00  0.00    -0.274 NA
HETATM   25  H1  UNL     1      15.520  49.348   3.691  1.00  0.00     0.127 HD
HETATM   26  H2  UNL     1      16.138  47.917   4.431  1.00  0.00     0.127 HD
ENDBRANCH   1  24
TORSDOF 3
ENDMDL
MODEL 9
REMARK minimizedAffinity -6.8578372
REMARK  3 active torsions:
REMARK  status: ('A' for Active; 'I' for Inactive)
REMARK    1  A    between atoms: N1_1  and  C1_2 
REMARK    2  A    between atoms: C2_5  and  N3_6 
REMARK    3  A    between atoms: N3_6  and  C3_7 
ROOT
HETATM    1  C1  UNL     1      19.039  53.424   4.562  1.00  0.00     0.156 A 
HETATM    2  N2  UNL     1      18.612  52.375   5.290  1.00  0.00    -0.323 N 
ATOM      3  H2  UNL     1      19.272  51.687   5.655  1.00  0.00     0.169 HD
HETATM    4  C2  UNL     1      17.290  52.257   5.524  1.00  0.00     0.096 A 
HETATM    5  C9  UNL     1      16.423  53.206   5.071  1.00  0.00     0.012 A 
HETATM    6  C10 UNL     1      16.976  54.256   4.357  1.00  0.00     0.055 A 
HETATM    7  N4  UNL     1      18.271  54.402   4.079  1.00  0.00    -0.332 N 
ATOM      8  H4  UNL     1      18.641  55.190   3.547  1.00  0.00     0.168 HD
HETATM    9  C11 UNL     1      15.934  55.184   3.985  1.00  0.00    -0.002 A 
HETATM   10  C12 UNL     1      15.986  56.368   3.271  1.00  0.00     0.014 A 
HETATM   11  C13 UNL     1      14.794  57.068   3.067  1.00  0.00     0.001 A 
HETATM   12  C14 UNL     1      13.575  56.581   3.575  1.00  0.00     0.001 A 
HETATM   13  C15 UNL     1      13.524  55.384   4.295  1.00  0.00     0.008 A 
HETATM   14  C16 UNL     1      14.709  54.699   4.492  1.00  0.00    -0.041 A 
HETATM   15  C17 UNL     1      14.939  53.388   5.227  1.00  0.00     0.083 A 
ENDROOT
BRANCH   4  16
HETATM   16  N3  UNL     1      16.880  51.157   6.295  1.00  0.00    -0.245 NA
HETATM   17  H3  UNL     1      16.653  51.552   7.210  1.00  0.00     0.135 HD
BRANCH  16  18
HETATM   18  C3  UNL     1      17.610  49.960   6.491  1.00  0.00     0.013 A 
HETATM   19  C4  UNL     1      17.081  48.767   5.986  1.00  0.00     0.024 A 
HETATM   20  C5  UNL     1      17.725  47.548   6.210  1.00  0.00     0.002 A 
HETATM   21  C6  UNL     1      18.893  47.507   6.968  1.00  0.00     0.000 A 
HETATM   22  C7  UNL     1      19.409  48.683   7.509  1.00  0.00     0.002 A 
HETATM   23  C8  UNL     1      18.764  49.900   7.283  1.00  0.00     0.024 A 
ENDBRANCH  16  18
ENDBRANCH   4  16
BRANCH   1  24
HETATM   24  N1  UNL     1      20.396  53.521   4.336  1.00  0.00    -0.274 NA
HETATM   25  H1  UNL     1      20.902  53.033   5.061  1.00  0.00     0.127 HD
HETATM   26  H2  UNL     1      20.642  54.486   4.168  1.00  0.00     0.127 HD
ENDBRANCH   1  24
TORSDOF 3
ENDMDL
