MODEL 1
REMARK minimizedAffinity -9.29566002
REMARK  4 active torsions:
REMARK  status: ('A' for Active; 'I' for Inactive)
REMARK    1  A    between atoms: N1_1  and  C1_2 
REMARK    2  A    between atoms: C5_10  and  C6_11 
REMARK    3  A    between atoms: C10_15  and  O1_16 
REMARK    4  A    between atoms: N4_19  and  C13_20 
ROOT
HETATM    1  C1  UNL     1      11.379  -4.093  29.865  1.00  0.00     0.093 A 
HETATM    2  N2  UNL     1      11.580  -4.198  28.537  1.00  0.00    -0.343 N 
ATOM      3  H2  UNL     1      12.458  -3.895  28.115  1.00  0.00     0.167 HD
HETATM    4  C2  UNL     1      10.594  -4.712  27.781  1.00  0.00     0.183 A 
HETATM    5  N3  UNL     1       9.386  -5.142  28.177  1.00  0.00    -0.338 N 
ATOM      6  H3  UNL     1       8.677  -5.515  27.546  1.00  0.00     0.168 HD
HETATM    7  C3  UNL     1       9.222  -5.022  29.505  1.00  0.00     0.123 A 
HETATM    8  C4  UNL     1      10.157  -4.523  30.408  1.00  0.00     0.059 A 
HETATM    9  C5  UNL     1       9.556  -4.591  31.704  1.00  0.00     0.007 A 
HETATM   10  C12 UNL     1       8.284  -5.113  31.541  1.00  0.00     0.106 A 
HETATM   11  N4  UNL     1       8.094  -5.375  30.205  1.00  0.00    -0.337 N 
ENDROOT
BRANCH   9  12
HETATM   12  C6  UNL     1      10.089  -4.242  33.009  1.00  0.00    -0.021 A 
HETATM   13  C7  UNL     1      11.391  -3.736  33.133  1.00  0.00     0.012 A 
HETATM   14  C8  UNL     1      11.903  -3.409  34.390  1.00  0.00     0.004 A 
HETATM   15  C9  UNL     1      11.119  -3.586  35.528  1.00  0.00     0.036 A 
HETATM   16  C10 UNL     1       9.828  -4.085  35.404  1.00  0.00     0.066 A 
HETATM   17  C11 UNL     1       9.303  -4.410  34.155  1.00  0.00     0.049 A 
BRANCH  16  18
HETATM   18  O1  UNL     1       9.096  -4.247  36.544  1.00  0.00    -0.361 OA
HETATM   19  H7  UNL     1       8.230  -4.621  36.305  1.00  0.00     0.217 HD
ENDBRANCH  16  18
ENDBRANCH   9  12
BRANCH   1  20
HETATM   20  N1  UNL     1      12.412  -3.531  30.606  1.00  0.00    -0.288 NA
HETATM   21  H1  UNL     1      13.046  -3.032  29.992  1.00  0.00     0.125 HD
HETATM   22  H2  UNL     1      12.099  -3.020  31.423  1.00  0.00     0.125 HD
ENDBRANCH   1  20
BRANCH  11  23
HETATM   23  C13 UNL     1       6.876  -5.940  29.650  1.00  0.00     0.091 C 
HETATM   24  C14 UNL     1       5.671  -5.875  30.601  1.00  0.00     0.026 C 
HETATM   25  C15 UNL     1       4.473  -5.714  29.678  1.00  0.00     0.002 C 
HETATM   26  C16 UNL     1       4.998  -4.799  28.584  1.00  0.00     0.002 C 
HETATM   27  C17 UNL     1       6.414  -5.304  28.325  1.00  0.00     0.026 C 
ENDBRANCH  11  23
TORSDOF 4
ENDMDL
MODEL 2
REMARK minimizedAffinity -8.72511482
REMARK  4 active torsions:
REMARK  status: ('A' for Active; 'I' for Inactive)
REMARK    1  A    between atoms: N1_1  and  C1_2 
REMARK    2  A    between atoms: C5_10  and  C6_11 
REMARK    3  A    between atoms: C10_15  and  O1_16 
REMARK    4  A    between atoms: N4_19  and  C13_20 
ROOT
HETATM    1  C1  UNL     1       5.476  -3.867  30.632  1.00  0.00     0.093 A 
HETATM    2  N2  UNL     1       5.859  -2.829  31.402  1.00  0.00    -0.343 N 
ATOM      3  H2  UNL     1       5.188  -2.118  31.693  1.00  0.00     0.167 HD
HETATM    4  C2  UNL     1       7.148  -2.756  31.777  1.00  0.00     0.183 A 
HETATM    5  N3  UNL     1       8.149  -3.596  31.472  1.00  0.00    -0.338 N 
ATOM      6  H3  UNL     1       9.112  -3.474  31.784  1.00  0.00     0.168 HD
HETATM    7  C3  UNL     1       7.729  -4.616  30.705  1.00  0.00     0.123 A 
HETATM    8  C4  UNL     1       6.430  -4.827  30.255  1.00  0.00     0.059 A 
HETATM    9  C5  UNL     1       6.450  -6.032  29.483  1.00  0.00     0.007 A 
HETATM   10  C12 UNL     1       7.754  -6.497  29.483  1.00  0.00     0.106 A 
HETATM   11  N4  UNL     1       8.520  -5.634  30.230  1.00  0.00    -0.337 N 
ENDROOT
BRANCH   9  12
HETATM   12  C6  UNL     1       5.374  -6.740  28.814  1.00  0.00    -0.021 A 
HETATM   13  C7  UNL     1       5.586  -8.021  28.285  1.00  0.00     0.012 A 
HETATM   14  C8  UNL     1       4.550  -8.695  27.634  1.00  0.00     0.004 A 
HETATM   15  C9  UNL     1       3.299  -8.093  27.509  1.00  0.00     0.036 A 
HETATM   16  C10 UNL     1       3.090  -6.824  28.035  1.00  0.00     0.066 A 
HETATM   17  C11 UNL     1       4.113  -6.143  28.691  1.00  0.00     0.049 A 
BRANCH  16  18
HETATM   18  O1  UNL     1       1.852  -6.270  27.886  1.00  0.00    -0.361 OA
HETATM   19  H7  UNL     1       1.862  -5.381  28.282  1.00  0.00     0.217 HD
ENDBRANCH  16  18
ENDBRANCH   9  12
BRANCH   1  20
HETATM   20  N1  UNL     1       4.142  -3.892  30.244  1.00  0.00    -0.288 NA
HETATM   21  H1  UNL     1       3.727  -2.975  30.371  1.00  0.00     0.125 HD
HETATM   22  H2  UNL     1       3.986  -4.322  29.340  1.00  0.00     0.125 HD
ENDBRANCH   1  20
BRANCH  11  23
HETATM   23  C13 UNL     1       9.944  -5.802  30.464  1.00  0.00     0.091 C 
HETATM   24  C14 UNL     1      10.805  -4.663  29.899  1.00  0.00     0.026 C 
HETATM   25  C15 UNL     1      11.979  -4.566  30.863  1.00  0.00     0.002 C 
HETATM   26  C16 UNL     1      11.339  -4.828  32.216  1.00  0.00     0.002 C 
HETATM   27  C17 UNL     1      10.341  -5.950  31.945  1.00  0.00     0.026 C 
ENDBRANCH  11  23
TORSDOF 4
ENDMDL
MODEL 3
REMARK minimizedAffinity -8.6742506
REMARK  4 active torsions:
REMARK  status: ('A' for Active; 'I' for Inactive)
REMARK    1  A    between atoms: N1_1  and  C1_2 
REMARK    2  A    between atoms: C5_10  and  C6_11 
REMARK    3  A    between atoms: C10_15  and  O1_16 
REMARK    4  A    between atoms: N4_19  and  C13_20 
ROOT
HETATM    1  C1  UNL     1       7.980  -6.225  27.156  1.00  0.00     0.093 A 
HETATM    2  N2  UNL     1       9.237  -5.795  26.927  1.00  0.00    -0.343 N 
ATOM      3  H2  UNL     1       9.667  -5.904  26.009  1.00  0.00     0.167 HD
HETATM    4  C2  UNL     1       9.907  -5.218  27.940  1.00  0.00     0.183 A 
HETATM    5  N3  UNL     1       9.491  -5.012  29.199  1.00  0.00    -0.338 N 
ATOM      6  H3  UNL     1      10.058  -4.574  29.924  1.00  0.00     0.168 HD
HETATM    7  C3  UNL     1       8.235  -5.453  29.388  1.00  0.00     0.123 A 
HETATM    8  C4  UNL     1       7.421  -6.054  28.434  1.00  0.00     0.059 A 
HETATM    9  C5  UNL     1       6.178  -6.348  29.078  1.00  0.00     0.007 A 
HETATM   10  C12 UNL     1       6.287  -5.929  30.392  1.00  0.00     0.106 A 
HETATM   11  N4  UNL     1       7.536  -5.384  30.569  1.00  0.00    -0.337 N 
ENDROOT
BRANCH   9  12
HETATM   12  C6  UNL     1       4.960  -6.937  28.550  1.00  0.00    -0.021 A 
HETATM   13  C7  UNL     1       4.991  -8.187  27.916  1.00  0.00     0.012 A 
HETATM   14  C8  UNL     1       3.819  -8.746  27.402  1.00  0.00     0.004 A 
HETATM   15  C9  UNL     1       2.612  -8.060  27.518  1.00  0.00     0.036 A 
HETATM   16  C10 UNL     1       2.582  -6.821  28.148  1.00  0.00     0.066 A 
HETATM   17  C11 UNL     1       3.743  -6.255  28.669  1.00  0.00     0.049 A 
BRANCH  16  18
HETATM   18  O1  UNL     1       1.380  -6.181  28.236  1.00  0.00    -0.361 OA
HETATM   19  H7  UNL     1       1.517  -5.325  28.678  1.00  0.00     0.217 HD
ENDBRANCH  16  18
ENDBRANCH   9  12
BRANCH   1  20
HETATM   20  N1  UNL     1       7.331  -6.839  26.092  1.00  0.00    -0.288 NA
HETATM   21  H1  UNL     1       8.007  -7.117  25.389  1.00  0.00     0.125 HD
HETATM   22  H2  UNL     1       6.671  -7.554  26.373  1.00  0.00     0.125 HD
ENDBRANCH   1  20
BRANCH  11  23
HETATM   23  C13 UNL     1       8.013  -4.828  31.824  1.00  0.00     0.091 C 
HETATM   24  C14 UNL     1       9.390  -5.356  32.254  1.00  0.00     0.026 C 
HETATM   25  C15 UNL     1      10.025  -4.188  32.993  1.00  0.00     0.002 C 
HETATM   26  C16 UNL     1       9.567  -2.980  32.194  1.00  0.00     0.002 C 
HETATM   27  C17 UNL     1       8.114  -3.291  31.851  1.00  0.00     0.026 C 
ENDBRANCH  11  23
TORSDOF 4
ENDMDL
MODEL 4
REMARK minimizedAffinity -8.59147167
REMARK  4 active torsions:
REMARK  status: ('A' for Active; 'I' for Inactive)
REMARK    1  A    between atoms: N1_1  and  C1_2 
REMARK    2  A    between atoms: C5_10  and  C6_11 
REMARK    3  A    between atoms: C10_15  and  O1_16 
REMARK    4  A    between atoms: N4_19  and  C13_20 
ROOT
HETATM    1  C1  UNL     1       5.553  -3.784  30.509  1.00  0.00     0.093 A 
HETATM    2  N2  UNL     1       5.579  -2.625  31.197  1.00  0.00    -0.343 N 
ATOM      3  H2  UNL     1       4.775  -1.997  31.194  1.00  0.00     0.167 HD
HETATM    4  C2  UNL     1       6.692  -2.318  31.885  1.00  0.00     0.183 A 
HETATM    5  N3  UNL     1       7.829  -3.024  31.980  1.00  0.00    -0.338 N 
ATOM      6  H3  UNL     1       8.644  -2.726  32.516  1.00  0.00     0.168 HD
HETATM    7  C3  UNL     1       7.765  -4.171  31.283  1.00  0.00     0.123 A 
HETATM    8  C4  UNL     1       6.679  -4.623  30.540  1.00  0.00     0.059 A 
HETATM    9  C5  UNL     1       7.057  -5.885  29.982  1.00  0.00     0.007 A 
HETATM   10  C12 UNL     1       8.352  -6.145  30.394  1.00  0.00     0.106 A 
HETATM   11  N4  UNL     1       8.771  -5.102  31.185  1.00  0.00    -0.337 N 
ENDROOT
BRANCH   9  12
HETATM   12  C6  UNL     1       6.303  -6.814  29.159  1.00  0.00    -0.021 A 
HETATM   13  C7  UNL     1       5.008  -6.494  28.728  1.00  0.00     0.012 A 
HETATM   14  C8  UNL     1       4.283  -7.394  27.944  1.00  0.00     0.004 A 
HETATM   15  C9  UNL     1       4.848  -8.617  27.587  1.00  0.00     0.036 A 
HETATM   16  C10 UNL     1       6.132  -8.933  28.014  1.00  0.00     0.066 A 
HETATM   17  C11 UNL     1       6.868  -8.042  28.792  1.00  0.00     0.049 A 
BRANCH  16  18
HETATM   18  O1  UNL     1       6.645 -10.143  27.646  1.00  0.00    -0.361 OA
HETATM   19  H7  UNL     1       7.534 -10.231  28.031  1.00  0.00     0.217 HD
ENDBRANCH  16  18
ENDBRANCH   9  12
BRANCH   1  20
HETATM   20  N1  UNL     1       4.394  -4.052  29.790  1.00  0.00    -0.288 NA
HETATM   21  H1  UNL     1       3.857  -3.200  29.670  1.00  0.00     0.125 HD
HETATM   22  H2  UNL     1       4.552  -4.593  28.947  1.00  0.00     0.125 HD
ENDBRANCH   1  20
BRANCH  11  23
HETATM   23  C13 UNL     1      10.080  -5.027  31.810  1.00  0.00     0.091 C 
HETATM   24  C14 UNL     1      10.779  -3.672  31.627  1.00  0.00     0.026 C 
HETATM   25  C15 UNL     1      11.600  -3.498  32.896  1.00  0.00     0.002 C 
HETATM   26  C16 UNL     1      10.699  -4.078  33.974  1.00  0.00     0.002 C 
HETATM   27  C17 UNL     1      10.091  -5.316  33.323  1.00  0.00     0.026 C 
ENDBRANCH  11  23
TORSDOF 4
ENDMDL
MODEL 5
REMARK minimizedAffinity -8.522048
REMARK  4 active torsions:
REMARK  status: ('A' for Active; 'I' for Inactive)
REMARK    1  A    between atoms: N1_1  and  C1_2 
REMARK    2  A    between atoms: C5_10  and  C6_11 
REMARK    3  A    between atoms: C10_15  and  O1_16 
REMARK    4  A    between atoms: N4_19  and  C13_20 
ROOT
HETATM    1  C1  UNL     1       5.495  -4.197  30.500  1.00  0.00     0.093 A 
HETATM    2  N2  UNL     1       6.052  -3.242  31.270  1.00  0.00    -0.343 N 
ATOM      3  H2  UNL     1       5.486  -2.487  31.657  1.00  0.00     0.167 HD
HETATM    4  C2  UNL     1       7.372  -3.310  31.516  1.00  0.00     0.183 A 
HETATM    5  N3  UNL     1       8.250  -4.225  31.076  1.00  0.00    -0.338 N 
ATOM      6  H3  UNL     1       9.246  -4.211  31.294  1.00  0.00     0.168 HD
HETATM    7  C3  UNL     1       7.659  -5.159  30.312  1.00  0.00     0.123 A 
HETATM    8  C4  UNL     1       6.307  -5.223  29.988  1.00  0.00     0.059 A 
HETATM    9  C5  UNL     1       6.134  -6.382  29.168  1.00  0.00     0.007 A 
HETATM   10  C12 UNL     1       7.378  -6.968  29.016  1.00  0.00     0.106 A 
HETATM   11  N4  UNL     1       8.295  -6.222  29.717  1.00  0.00    -0.337 N 
ENDROOT
BRANCH   9  12
HETATM   12  C6  UNL     1       4.932  -6.949  28.581  1.00  0.00    -0.021 A 
HETATM   13  C7  UNL     1       4.988  -8.160  27.877  1.00  0.00     0.012 A 
HETATM   14  C8  UNL     1       3.832  -8.698  27.307  1.00  0.00     0.004 A 
HETATM   15  C9  UNL     1       2.616  -8.029  27.438  1.00  0.00     0.036 A 
HETATM   16  C10 UNL     1       2.562  -6.829  28.138  1.00  0.00     0.066 A 
HETATM   17  C11 UNL     1       3.707  -6.285  28.715  1.00  0.00     0.049 A 
BRANCH  16  18
HETATM   18  O1  UNL     1       1.353  -6.205  28.237  1.00  0.00    -0.361 OA
HETATM   19  H7  UNL     1       1.473  -5.376  28.731  1.00  0.00     0.217 HD
ENDBRANCH  16  18
ENDBRANCH   9  12
BRANCH   1  20
HETATM   20  N1  UNL     1       4.133  -4.075  30.248  1.00  0.00    -0.288 NA
HETATM   21  H1  UNL     1       3.827  -3.132  30.455  1.00  0.00     0.125 HD
HETATM   22  H2  UNL     1       3.850  -4.441  29.347  1.00  0.00     0.125 HD
ENDBRANCH   1  20
BRANCH  11  23
HETATM   23  C13 UNL     1       9.711  -6.536  29.799  1.00  0.00     0.091 C 
HETATM   24  C14 UNL     1      10.050  -7.984  29.413  1.00  0.00     0.026 C 
HETATM   25  C15 UNL     1      11.434  -7.891  28.789  1.00  0.00     0.002 C 
HETATM   26  C16 UNL     1      11.381  -6.583  28.017  1.00  0.00     0.002 C 
HETATM   27  C17 UNL     1      10.622  -5.637  28.942  1.00  0.00     0.026 C 
ENDBRANCH  11  23
TORSDOF 4
ENDMDL
MODEL 6
REMARK minimizedAffinity -8.44713879
REMARK  4 active torsions:
REMARK  status: ('A' for Active; 'I' for Inactive)
REMARK    1  A    between atoms: N1_1  and  C1_2 
REMARK    2  A    between atoms: C5_10  and  C6_11 
REMARK    3  A    between atoms: C10_15  and  O1_16 
REMARK    4  A    between atoms: N4_19  and  C13_20 
ROOT
HETATM    1  C1  UNL     1      10.554  -4.867  28.912  1.00  0.00     0.093 A 
HETATM    2  N2  UNL     1      10.373  -5.422  27.698  1.00  0.00    -0.343 N 
ATOM      3  H2  UNL     1      11.132  -5.454  27.019  1.00  0.00     0.167 HD
HETATM    4  C2  UNL     1       9.164  -5.934  27.406  1.00  0.00     0.183 A 
HETATM    5  N3  UNL     1       8.067  -5.961  28.178  1.00  0.00    -0.338 N 
ATOM      6  H3  UNL     1       7.174  -6.359  27.889  1.00  0.00     0.168 HD
HETATM    7  C3  UNL     1       8.286  -5.398  29.379  1.00  0.00     0.123 A 
HETATM    8  C4  UNL     1       9.483  -4.845  29.821  1.00  0.00     0.059 A 
HETATM    9  C5  UNL     1       9.254  -4.377  31.154  1.00  0.00     0.007 A 
HETATM   10  C12 UNL     1       7.933  -4.651  31.464  1.00  0.00     0.106 A 
HETATM   11  N4  UNL     1       7.357  -5.274  30.383  1.00  0.00    -0.337 N 
ENDROOT
BRANCH   9  12
HETATM   12  C6  UNL     1      10.160  -3.753  32.102  1.00  0.00    -0.021 A 
HETATM   13  C7  UNL     1      10.175  -4.159  33.444  1.00  0.00     0.012 A 
HETATM   14  C8  UNL     1      11.042  -3.550  34.354  1.00  0.00     0.004 A 
HETATM   15  C9  UNL     1      11.897  -2.535  33.929  1.00  0.00     0.036 A 
HETATM   16  C10 UNL     1      11.882  -2.135  32.598  1.00  0.00     0.066 A 
HETATM   17  C11 UNL     1      11.026  -2.737  31.679  1.00  0.00     0.049 A 
BRANCH  16  18
HETATM   18  O1  UNL     1      12.731  -1.134  32.225  1.00  0.00    -0.361 OA
HETATM   19  H7  UNL     1      12.594  -0.949  31.280  1.00  0.00     0.217 HD
ENDBRANCH  16  18
ENDBRANCH   9  12
BRANCH   1  20
HETATM   20  N1  UNL     1      11.809  -4.326  29.165  1.00  0.00    -0.288 NA
HETATM   21  H1  UNL     1      12.307  -4.186  28.293  1.00  0.00     0.125 HD
HETATM   22  H2  UNL     1      11.793  -3.531  29.793  1.00  0.00     0.125 HD
ENDBRANCH   1  20
BRANCH  11  23
HETATM   23  C13 UNL     1       5.976  -5.723  30.341  1.00  0.00     0.091 C 
HETATM   24  C14 UNL     1       5.035  -4.767  29.592  1.00  0.00     0.026 C 
HETATM   25  C15 UNL     1       3.989  -5.681  28.971  1.00  0.00     0.002 C 
HETATM   26  C16 UNL     1       4.795  -6.901  28.556  1.00  0.00     0.002 C 
HETATM   27  C17 UNL     1       5.767  -7.114  29.712  1.00  0.00     0.026 C 
ENDBRANCH  11  23
TORSDOF 4
ENDMDL
MODEL 7
REMARK minimizedAffinity -8.39830971
REMARK  4 active torsions:
REMARK  status: ('A' for Active; 'I' for Inactive)
REMARK    1  A    between atoms: N1_1  and  C1_2 
REMARK    2  A    between atoms: C5_10  and  C6_11 
REMARK    3  A    between atoms: C10_15  and  O1_16 
REMARK    4  A    between atoms: N4_19  and  C13_20 
ROOT
HETATM    1  C1  UNL     1      11.641  -6.707  30.250  1.00  0.00     0.093 A 
HETATM    2  N2  UNL     1      11.700  -7.749  29.397  1.00  0.00    -0.343 N 
ATOM      3  H2  UNL     1      12.591  -8.187  29.167  1.00  0.00     0.167 HD
HETATM    4  C2  UNL     1      10.551  -8.194  28.857  1.00  0.00     0.183 A 
HETATM    5  N3  UNL     1       9.309  -7.723  29.045  1.00  0.00    -0.338 N 
ATOM      6  H3  UNL     1       8.479  -8.105  28.594  1.00  0.00     0.168 HD
HETATM    7  C3  UNL     1       9.292  -6.688  29.901  1.00  0.00     0.123 A 
HETATM    8  C4  UNL     1      10.394  -6.132  30.544  1.00  0.00     0.059 A 
HETATM    9  C5  UNL     1       9.901  -5.064  31.359  1.00  0.00     0.007 A 
HETATM   10  C12 UNL     1       8.531  -5.004  31.173  1.00  0.00     0.106 A 
HETATM   11  N4  UNL     1       8.171  -5.995  30.291  1.00  0.00    -0.337 N 
ENDROOT
BRANCH   9  12
HETATM   12  C6  UNL     1      10.601  -4.174  32.268  1.00  0.00    -0.021 A 
HETATM   13  C7  UNL     1      10.521  -4.366  33.654  1.00  0.00     0.012 A 
HETATM   14  C8  UNL     1      11.189  -3.502  34.525  1.00  0.00     0.004 A 
HETATM   15  C9  UNL     1      11.939  -2.444  34.016  1.00  0.00     0.036 A 
HETATM   16  C10 UNL     1      12.019  -2.256  32.641  1.00  0.00     0.066 A 
HETATM   17  C11 UNL     1      11.362  -3.113  31.762  1.00  0.00     0.049 A 
BRANCH  16  18
HETATM   18  O1  UNL     1      12.760  -1.205  32.186  1.00  0.00    -0.361 OA
HETATM   19  H7  UNL     1      12.707  -1.188  31.214  1.00  0.00     0.217 HD
ENDBRANCH  16  18
ENDBRANCH   9  12
BRANCH   1  20
HETATM   20  N1  UNL     1      12.852  -6.260  30.766  1.00  0.00    -0.288 NA
HETATM   21  H1  UNL     1      13.618  -6.610  30.202  1.00  0.00     0.125 HD
HETATM   22  H2  UNL     1      12.871  -5.266  30.963  1.00  0.00     0.125 HD
ENDBRANCH   1  20
BRANCH  11  23
HETATM   23  C13 UNL     1       6.807  -6.246  29.860  1.00  0.00     0.091 C 
HETATM   24  C14 UNL     1       5.742  -5.780  30.863  1.00  0.00     0.026 C 
HETATM   25  C15 UNL     1       4.562  -5.369  29.995  1.00  0.00     0.002 C 
HETATM   26  C16 UNL     1       5.226  -4.722  28.791  1.00  0.00     0.002 C 
HETATM   27  C17 UNL     1       6.431  -5.613  28.507  1.00  0.00     0.026 C 
ENDBRANCH  11  23
TORSDOF 4
ENDMDL
MODEL 8
REMARK minimizedAffinity -8.36294842
REMARK  4 active torsions:
REMARK  status: ('A' for Active; 'I' for Inactive)
REMARK    1  A    between atoms: N1_1  and  C1_2 
REMARK    2  A    between atoms: C5_10  and  C6_11 
REMARK    3  A    between atoms: C10_15  and  O1_16 
REMARK    4  A    between atoms: N4_19  and  C13_20 
ROOT
HETATM    1  C1  UNL     1       6.590  -3.307  31.161  1.00  0.00     0.093 A 
HETATM    2  N2  UNL     1       5.381  -3.267  30.567  1.00  0.00    -0.343 N 
ATOM      3  H2  UNL     1       4.705  -2.543  30.806  1.00  0.00     0.167 HD
HETATM    4  C2  UNL     1       5.090  -4.208  29.651  1.00  0.00     0.183 A 
HETATM    5  N3  UNL     1       5.858  -5.227  29.237  1.00  0.00    -0.338 N 
ATOM      6  H3  UNL     1       5.570  -5.914  28.541  1.00  0.00     0.168 HD
HETATM    7  C3  UNL     1       7.054  -5.233  29.850  1.00  0.00     0.123 A 
HETATM    8  C4  UNL     1       7.496  -4.320  30.802  1.00  0.00     0.059 A 
HETATM    9  C5  UNL     1       8.823  -4.712  31.166  1.00  0.00     0.007 A 
HETATM   10  C12 UNL     1       9.130  -5.846  30.436  1.00  0.00     0.106 A 
HETATM   11  N4  UNL     1       8.054  -6.152  29.638  1.00  0.00    -0.337 N 
ENDROOT
BRANCH   9  12
HETATM   12  C6  UNL     1       9.767  -4.098  32.082  1.00  0.00    -0.021 A 
HETATM   13  C7  UNL     1       9.738  -4.411  33.449  1.00  0.00     0.012 A 
HETATM   14  C8  UNL     1      10.643  -3.813  34.328  1.00  0.00     0.004 A 
HETATM   15  C9  UNL     1      11.581  -2.900  33.848  1.00  0.00     0.036 A 
HETATM   16  C10 UNL     1      11.610  -2.592  32.493  1.00  0.00     0.066 A 
HETATM   17  C11 UNL     1      10.716  -3.186  31.604  1.00  0.00     0.049 A 
BRANCH  16  18
HETATM   18  O1  UNL     1      12.540  -1.691  32.065  1.00  0.00    -0.361 OA
HETATM   19  H7  UNL     1      12.427  -1.561  31.108  1.00  0.00     0.217 HD
ENDBRANCH  16  18
ENDBRANCH   9  12
BRANCH   1  20
HETATM   20  N1  UNL     1       6.842  -2.334  32.120  1.00  0.00    -0.288 NA
HETATM   21  H1  UNL     1       5.971  -1.913  32.423  1.00  0.00     0.125 HD
HETATM   22  H2  UNL     1       7.462  -2.640  32.861  1.00  0.00     0.125 HD
ENDBRANCH   1  20
BRANCH  11  23
HETATM   23  C13 UNL     1       8.011  -7.278  28.721  1.00  0.00     0.091 C 
HETATM   24  C14 UNL     1       9.350  -8.018  28.584  1.00  0.00     0.026 C 
HETATM   25  C15 UNL     1       8.954  -9.465  28.328  1.00  0.00     0.002 C 
HETATM   26  C16 UNL     1       7.734  -9.653  29.215  1.00  0.00     0.002 C 
HETATM   27  C17 UNL     1       6.959  -8.349  29.063  1.00  0.00     0.026 C 
ENDBRANCH  11  23
TORSDOF 4
ENDMDL
MODEL 9
REMARK minimizedAffinity -8.25535107
REMARK  4 active torsions:
REMARK  status: ('A' for Active; 'I' for Inactive)
REMARK    1  A    between atoms: N1_1  and  C1_2 
REMARK    2  A    between atoms: C5_10  and  C6_11 
REMARK    3  A    between atoms: C10_15  and  O1_16 
REMARK    4  A    between atoms: N4_19  and  C13_20 
ROOT
HETATM    1  C1  UNL     1      11.153  -3.617  29.334  1.00  0.00     0.093 A 
HETATM    2  N2  UNL     1      11.547  -3.431  28.059  1.00  0.00    -0.343 N 
ATOM      3  H2  UNL     1      12.297  -2.778  27.833  1.00  0.00     0.167 HD
HETATM    4  C2  UNL     1      10.925  -4.128  27.092  1.00  0.00     0.183 A 
HETATM    5  N3  UNL     1       9.921  -5.009  27.221  1.00  0.00    -0.338 N 
ATOM      6  H3  UNL     1       9.486  -5.498  26.439  1.00  0.00     0.168 HD
HETATM    7  C3  UNL     1       9.556  -5.167  28.504  1.00  0.00     0.123 A 
HETATM    8  C4  UNL     1      10.117  -4.527  29.604  1.00  0.00     0.059 A 
HETATM    9  C5  UNL     1       9.423  -5.007  30.760  1.00  0.00     0.007 A 
HETATM   10  C12 UNL     1       8.466  -5.904  30.321  1.00  0.00     0.106 A 
HETATM   11  N4  UNL     1       8.558  -5.998  28.953  1.00  0.00    -0.337 N 
ENDROOT
BRANCH   9  12
HETATM   12  C6  UNL     1       9.619  -4.708  32.167  1.00  0.00    -0.021 A 
HETATM   13  C7  UNL     1       8.594  -4.944  33.094  1.00  0.00     0.012 A 
HETATM   14  C8  UNL     1       8.783  -4.648  34.446  1.00  0.00     0.004 A 
HETATM   15  C9  UNL     1       9.996  -4.114  34.878  1.00  0.00     0.036 A 
HETATM   16  C10 UNL     1      11.012  -3.881  33.958  1.00  0.00     0.066 A 
HETATM   17  C11 UNL     1      10.838  -4.177  32.608  1.00  0.00     0.049 A 
BRANCH  16  18
HETATM   18  O1  UNL     1      12.181  -3.353  34.422  1.00  0.00    -0.361 OA
HETATM   19  H7  UNL     1      12.784  -3.227  33.669  1.00  0.00     0.217 HD
ENDBRANCH  16  18
ENDBRANCH   9  12
BRANCH   1  20
HETATM   20  N1  UNL     1      11.803  -2.858  30.301  1.00  0.00    -0.288 NA
HETATM   21  H1  UNL     1      12.281  -2.078  29.864  1.00  0.00     0.125 HD
HETATM   22  H2  UNL     1      11.221  -2.625  31.097  1.00  0.00     0.125 HD
ENDBRANCH   1  20
BRANCH  11  23
HETATM   23  C13 UNL     1       7.716  -6.855  28.135  1.00  0.00     0.091 C 
HETATM   24  C14 UNL     1       7.378  -8.202  28.791  1.00  0.00     0.026 C 
HETATM   25  C15 UNL     1       5.987  -8.534  28.271  1.00  0.00     0.002 C 
HETATM   26  C16 UNL     1       5.298  -7.180  28.234  1.00  0.00     0.002 C 
HETATM   27  C17 UNL     1       6.372  -6.230  27.717  1.00  0.00     0.026 C 
ENDBRANCH  11  23
TORSDOF 4
ENDMDL
