MODEL 1
REMARK minimizedAffinity -7.49234581
REMARK  10 active torsions:
REMARK  status: ('A' for Active; 'I' for Inactive)
REMARK    1  A    between atoms: C7_7  and  N1_8 
REMARK    2  A    between atoms: N1_8  and  C8_9 
REMARK    3  A    between atoms: C14_18  and  O1_19 
REMARK    4  A    between atoms: O1_19  and  C15_20 
REMARK    5  A    between atoms: C15_20  and  C16_21 
REMARK    6  A    between atoms: C16_21  and  O2_22 
REMARK    7  A    between atoms: C18_24  and  O3_25 
REMARK    8  A    between atoms: O3_25  and  C19_26 
REMARK    9  A    between atoms: C19_26  and  C20_27 
REMARK   10  A    between atoms: C20_27  and  O4_28 
ROOT
HETATM    1  C1  UNL     1      12.272  -3.295  35.307  1.00  0.00     0.018 C 
HETATM    2  C2  UNL     1      11.454  -3.141  34.442  1.00  0.00    -0.078 C 
HETATM    3  C3  UNL     1      10.478  -2.957  33.412  1.00  0.00     0.019 A 
HETATM    4  C4  UNL     1      10.418  -1.751  32.716  1.00  0.00     0.021 A 
HETATM    5  C5  UNL     1       9.475  -1.582  31.704  1.00  0.00     0.004 A 
HETATM    6  C6  UNL     1       8.590  -2.616  31.391  1.00  0.00     0.029 A 
HETATM    7  C7  UNL     1       8.620  -3.827  32.096  1.00  0.00     0.034 A 
HETATM    8  C24 UNL     1       9.588  -3.990  33.099  1.00  0.00     0.050 A 
ENDROOT
BRANCH   7   9
HETATM    9  N1  UNL     1       7.790  -4.934  31.775  1.00  0.00    -0.354 N 
HETATM   10  H5  UNL     1       6.995  -4.962  32.414  1.00  0.00     0.166 HD
BRANCH   9  11
HETATM   11  C8  UNL     1       7.473  -5.404  30.466  1.00  0.00     0.067 A 
HETATM   12  C9  UNL     1       6.277  -5.021  29.842  1.00  0.00     0.087 A 
HETATM   13  C10 UNL     1       5.288  -4.224  30.495  1.00  0.00     0.103 C 
HETATM   14  C11 UNL     1       6.058  -5.429  28.540  1.00  0.00     0.113 A 
HETATM   15  N2  UNL     1       4.485  -3.594  31.046  1.00  0.00    -0.191 NA
HETATM   16  N3  UNL     1       6.932  -6.172  27.824  1.00  0.00    -0.364 N 
HETATM   17  C12 UNL     1       8.080  -6.546  28.408  1.00  0.00     0.047 A 
ATOM     18  H3  UNL     1       6.723  -6.441  26.863  1.00  0.00     0.165 HD
HETATM   19  C13 UNL     1       8.974  -7.315  27.678  1.00  0.00     0.070 A 
HETATM   20  C23 UNL     1       8.409  -6.192  29.734  1.00  0.00     0.022 A 
HETATM   21  C14 UNL     1      10.184  -7.760  28.217  1.00  0.00     0.104 A 
HETATM   22  C18 UNL     1      10.540  -7.392  29.514  1.00  0.00     0.103 A 
HETATM   23  C22 UNL     1       9.636  -6.647  30.274  1.00  0.00     0.055 A 
BRANCH  21  24
HETATM   24  O1  UNL     1      10.967  -8.486  27.359  1.00  0.00    -0.346 OA
BRANCH  24  25
HETATM   25  C15 UNL     1      11.418  -7.761  26.205  1.00  0.00     0.201 C 
BRANCH  25  26
HETATM   26  C16 UNL     1      11.994  -6.417  26.664  1.00  0.00     0.193 C 
BRANCH  26  27
HETATM   27  O2  UNL     1      11.181  -5.300  26.288  1.00  0.00    -0.394 OA
HETATM   28  C17 UNL     1      11.500  -4.108  26.992  1.00  0.00     0.201 C 
ENDBRANCH  26  27
ENDBRANCH  25  26
ENDBRANCH  24  25
ENDBRANCH  21  24
BRANCH  22  29
HETATM   29  O3  UNL     1      11.749  -7.797  30.007  1.00  0.00    -0.346 OA
BRANCH  29  30
HETATM   30  C19 UNL     1      12.046  -9.188  29.818  1.00  0.00     0.201 C 
BRANCH  30  31
HETATM   31  C20 UNL     1      13.304  -9.531  30.621  1.00  0.00     0.193 C 
BRANCH  31  32
HETATM   32  O4  UNL     1      13.052 -10.478  31.664  1.00  0.00    -0.394 OA
HETATM   33  C21 UNL     1      12.364 -11.637  31.215  1.00  0.00     0.201 C 
ENDBRANCH  31  32
ENDBRANCH  30  31
ENDBRANCH  29  30
ENDBRANCH  22  29
ENDBRANCH   9  11
ENDBRANCH   7   9
TORSDOF 10
ENDMDL
MODEL 2
REMARK minimizedAffinity -7.48681164
REMARK  10 active torsions:
REMARK  status: ('A' for Active; 'I' for Inactive)
REMARK    1  A    between atoms: C7_7  and  N1_8 
REMARK    2  A    between atoms: N1_8  and  C8_9 
REMARK    3  A    between atoms: C14_18  and  O1_19 
REMARK    4  A    between atoms: O1_19  and  C15_20 
REMARK    5  A    between atoms: C15_20  and  C16_21 
REMARK    6  A    between atoms: C16_21  and  O2_22 
REMARK    7  A    between atoms: C18_24  and  O3_25 
REMARK    8  A    between atoms: O3_25  and  C19_26 
REMARK    9  A    between atoms: C19_26  and  C20_27 
REMARK   10  A    between atoms: C20_27  and  O4_28 
ROOT
HETATM    1  C1  UNL     1      12.653  -2.610  35.491  1.00  0.00     0.018 C 
HETATM    2  C2  UNL     1      11.764  -3.209  34.951  1.00  0.00    -0.078 C 
HETATM    3  C3  UNL     1      10.705  -3.922  34.306  1.00  0.00     0.019 A 
HETATM    4  C4  UNL     1       9.616  -4.374  35.048  1.00  0.00     0.021 A 
HETATM    5  C5  UNL     1       8.580  -5.056  34.413  1.00  0.00     0.004 A 
HETATM    6  C6  UNL     1       8.636  -5.291  33.037  1.00  0.00     0.029 A 
HETATM    7  C7  UNL     1       9.735  -4.865  32.278  1.00  0.00     0.034 A 
HETATM    8  C24 UNL     1      10.760  -4.162  32.929  1.00  0.00     0.050 A 
ENDROOT
BRANCH   7   9
HETATM    9  N1  UNL     1       9.811  -5.018  30.869  1.00  0.00    -0.354 N 
HETATM   10  H5  UNL     1      10.483  -4.350  30.488  1.00  0.00     0.166 HD
BRANCH   9  11
HETATM   11  C8  UNL     1       9.773  -6.247  30.146  1.00  0.00     0.067 A 
HETATM   12  C9  UNL     1      10.928  -7.031  30.012  1.00  0.00     0.087 A 
HETATM   13  C10 UNL     1      12.202  -6.618  30.508  1.00  0.00     0.103 C 
HETATM   14  C11 UNL     1      10.818  -8.256  29.381  1.00  0.00     0.113 A 
HETATM   15  N2  UNL     1      13.233  -6.258  30.898  1.00  0.00    -0.191 NA
HETATM   16  N3  UNL     1       9.661  -8.750  28.888  1.00  0.00    -0.364 N 
HETATM   17  C12 UNL     1       8.547  -8.011  29.007  1.00  0.00     0.047 A 
ATOM     18  H3  UNL     1       9.635  -9.664  28.435  1.00  0.00     0.165 HD
HETATM   19  C13 UNL     1       7.361  -8.514  28.495  1.00  0.00     0.070 A 
HETATM   20  C23 UNL     1       8.541  -6.744  29.629  1.00  0.00     0.022 A 
HETATM   21  C14 UNL     1       6.162  -7.800  28.563  1.00  0.00     0.104 A 
HETATM   22  C18 UNL     1       6.129  -6.561  29.203  1.00  0.00     0.103 A 
HETATM   23  C22 UNL     1       7.321  -6.027  29.695  1.00  0.00     0.055 A 
BRANCH  21  24
HETATM   24  O1  UNL     1       5.074  -8.446  28.036  1.00  0.00    -0.346 OA
BRANCH  24  25
HETATM   25  C15 UNL     1       5.153  -8.693  26.624  1.00  0.00     0.201 C 
BRANCH  25  26
HETATM   26  C16 UNL     1       4.186  -9.827  26.270  1.00  0.00     0.193 C 
BRANCH  26  27
HETATM   27  O2  UNL     1       4.241 -10.202  24.889  1.00  0.00    -0.394 OA
HETATM   28  C17 UNL     1       3.190  -9.648  24.111  1.00  0.00     0.201 C 
ENDBRANCH  26  27
ENDBRANCH  25  26
ENDBRANCH  24  25
ENDBRANCH  21  24
BRANCH  22  29
HETATM   29  O3  UNL     1       4.937  -5.901  29.303  1.00  0.00    -0.346 OA
BRANCH  29  30
HETATM   30  C19 UNL     1       5.038  -4.470  29.347  1.00  0.00     0.201 C 
BRANCH  30  31
HETATM   31  C20 UNL     1       4.577  -3.992  30.726  1.00  0.00     0.193 C 
BRANCH  31  32
HETATM   32  O4  UNL     1       5.086  -2.696  31.059  1.00  0.00    -0.394 OA
HETATM   33  C21 UNL     1       6.453  -2.714  31.447  1.00  0.00     0.201 C 
ENDBRANCH  31  32
ENDBRANCH  30  31
ENDBRANCH  29  30
ENDBRANCH  22  29
ENDBRANCH   9  11
ENDBRANCH   7   9
TORSDOF 10
ENDMDL
MODEL 3
REMARK minimizedAffinity -7.37276554
REMARK  10 active torsions:
REMARK  status: ('A' for Active; 'I' for Inactive)
REMARK    1  A    between atoms: C7_7  and  N1_8 
REMARK    2  A    between atoms: N1_8  and  C8_9 
REMARK    3  A    between atoms: C14_18  and  O1_19 
REMARK    4  A    between atoms: O1_19  and  C15_20 
REMARK    5  A    between atoms: C15_20  and  C16_21 
REMARK    6  A    between atoms: C16_21  and  O2_22 
REMARK    7  A    between atoms: C18_24  and  O3_25 
REMARK    8  A    between atoms: O3_25  and  C19_26 
REMARK    9  A    between atoms: C19_26  and  C20_27 
REMARK   10  A    between atoms: C20_27  and  O4_28 
ROOT
HETATM    1  C1  UNL     1       8.771  -4.659  35.165  1.00  0.00     0.018 C 
HETATM    2  C2  UNL     1       9.203  -4.310  34.100  1.00  0.00    -0.078 C 
HETATM    3  C3  UNL     1       9.718  -3.895  32.831  1.00  0.00     0.019 A 
HETATM    4  C4  UNL     1       9.551  -2.578  32.409  1.00  0.00     0.021 A 
HETATM    5  C5  UNL     1      10.066  -2.175  31.178  1.00  0.00     0.004 A 
HETATM    6  C6  UNL     1      10.744  -3.091  30.369  1.00  0.00     0.029 A 
HETATM    7  C7  UNL     1      10.901  -4.425  30.767  1.00  0.00     0.034 A 
HETATM    8  C24 UNL     1      10.394  -4.810  32.018  1.00  0.00     0.050 A 
ENDROOT
BRANCH   7   9
HETATM    9  N1  UNL     1      11.638  -5.378  30.016  1.00  0.00    -0.354 N 
HETATM   10  H5  UNL     1      12.629  -5.306  30.251  1.00  0.00     0.166 HD
BRANCH   9  11
HETATM   11  C8  UNL     1      11.232  -6.710  29.706  1.00  0.00     0.067 A 
HETATM   12  C9  UNL     1      12.146  -7.771  29.786  1.00  0.00     0.087 A 
HETATM   13  C10 UNL     1      13.527  -7.577  30.095  1.00  0.00     0.103 C 
HETATM   14  C11 UNL     1      11.681  -9.054  29.564  1.00  0.00     0.113 A 
HETATM   15  N2  UNL     1      14.649  -7.400  30.327  1.00  0.00    -0.191 NA
HETATM   16  N3  UNL     1      10.394  -9.352  29.278  1.00  0.00    -0.364 N 
HETATM   17  C12 UNL     1       9.508  -8.347  29.197  1.00  0.00     0.047 A 
ATOM     18  H3  UNL     1      10.103 -10.318  29.128  1.00  0.00     0.165 HD
HETATM   19  C13 UNL     1       8.189  -8.651  28.897  1.00  0.00     0.070 A 
HETATM   20  C23 UNL     1       9.869  -6.998  29.401  1.00  0.00     0.022 A 
HETATM   21  C14 UNL     1       7.208  -7.662  28.777  1.00  0.00     0.104 A 
HETATM   22  C18 UNL     1       7.540  -6.327  29.009  1.00  0.00     0.103 A 
HETATM   23  C22 UNL     1       8.870  -6.002  29.279  1.00  0.00     0.055 A 
BRANCH  21  24
HETATM   24  O1  UNL     1       5.949  -8.127  28.504  1.00  0.00    -0.346 OA
BRANCH  24  25
HETATM   25  C15 UNL     1       5.419  -7.708  27.237  1.00  0.00     0.201 C 
BRANCH  25  26
HETATM   26  C16 UNL     1       6.163  -8.454  26.124  1.00  0.00     0.193 C 
BRANCH  26  27
HETATM   27  O2  UNL     1       6.970  -7.592  25.314  1.00  0.00    -0.394 OA
HETATM   28  C17 UNL     1       8.200  -8.180  24.915  1.00  0.00     0.201 C 
ENDBRANCH  26  27
ENDBRANCH  25  26
ENDBRANCH  24  25
ENDBRANCH  21  24
BRANCH  22  29
HETATM   29  O3  UNL     1       6.557  -5.381  28.935  1.00  0.00    -0.346 OA
BRANCH  29  30
HETATM   30  C19 UNL     1       5.773  -5.226  30.126  1.00  0.00     0.201 C 
BRANCH  30  31
HETATM   31  C20 UNL     1       4.798  -4.063  29.921  1.00  0.00     0.193 C 
BRANCH  31  32
HETATM   32  O4  UNL     1       4.826  -3.123  31.000  1.00  0.00    -0.394 OA
HETATM   33  C21 UNL     1       6.129  -2.634  31.285  1.00  0.00     0.201 C 
ENDBRANCH  31  32
ENDBRANCH  30  31
ENDBRANCH  29  30
ENDBRANCH  22  29
ENDBRANCH   9  11
ENDBRANCH   7   9
TORSDOF 10
ENDMDL
MODEL 4
REMARK minimizedAffinity -7.33495331
REMARK  10 active torsions:
REMARK  status: ('A' for Active; 'I' for Inactive)
REMARK    1  A    between atoms: C7_7  and  N1_8 
REMARK    2  A    between atoms: N1_8  and  C8_9 
REMARK    3  A    between atoms: C14_18  and  O1_19 
REMARK    4  A    between atoms: O1_19  and  C15_20 
REMARK    5  A    between atoms: C15_20  and  C16_21 
REMARK    6  A    between atoms: C16_21  and  O2_22 
REMARK    7  A    between atoms: C18_24  and  O3_25 
REMARK    8  A    between atoms: O3_25  and  C19_26 
REMARK    9  A    between atoms: C19_26  and  C20_27 
REMARK   10  A    between atoms: C20_27  and  O4_28 
ROOT
HETATM    1  C1  UNL     1      12.849  -2.793  35.752  1.00  0.00     0.018 C 
HETATM    2  C2  UNL     1      11.833  -3.216  35.274  1.00  0.00    -0.078 C 
HETATM    3  C3  UNL     1      10.622  -3.721  34.704  1.00  0.00     0.019 A 
HETATM    4  C4  UNL     1       9.756  -4.494  35.476  1.00  0.00     0.021 A 
HETATM    5  C5  UNL     1       8.571  -4.971  34.920  1.00  0.00     0.004 A 
HETATM    6  C6  UNL     1       8.254  -4.680  33.591  1.00  0.00     0.029 A 
HETATM    7  C7  UNL     1       9.123  -3.924  32.792  1.00  0.00     0.034 A 
HETATM    8  C24 UNL     1      10.303  -3.433  33.372  1.00  0.00     0.050 A 
ENDROOT
BRANCH   7   9
HETATM    9  N1  UNL     1       8.818  -3.542  31.459  1.00  0.00    -0.354 N 
HETATM   10  H5  UNL     1       8.436  -2.596  31.453  1.00  0.00     0.166 HD
BRANCH   9  11
HETATM   11  C8  UNL     1       9.586  -3.842  30.294  1.00  0.00     0.067 A 
HETATM   12  C9  UNL     1      10.756  -3.124  30.007  1.00  0.00     0.087 A 
HETATM   13  C10 UNL     1      11.196  -2.019  30.799  1.00  0.00     0.103 C 
HETATM   14  C11 UNL     1      11.512  -3.513  28.918  1.00  0.00     0.113 A 
HETATM   15  N2  UNL     1      11.528  -1.111  31.439  1.00  0.00    -0.191 NA
HETATM   16  N3  UNL     1      11.197  -4.551  28.112  1.00  0.00    -0.364 N 
HETATM   17  C12 UNL     1      10.080  -5.248  28.373  1.00  0.00     0.047 A 
ATOM     18  H3  UNL     1      11.794  -4.800  27.323  1.00  0.00     0.165 HD
HETATM   19  C13 UNL     1       9.751  -6.308  27.542  1.00  0.00     0.070 A 
HETATM   20  C23 UNL     1       9.228  -4.938  29.456  1.00  0.00     0.022 A 
HETATM   21  C14 UNL     1       8.597  -7.072  27.735  1.00  0.00     0.104 A 
HETATM   22  C18 UNL     1       7.762  -6.803  28.819  1.00  0.00     0.103 A 
HETATM   23  C22 UNL     1       8.062  -5.718  29.645  1.00  0.00     0.055 A 
BRANCH  21  24
HETATM   24  O1  UNL     1       8.430  -8.100  26.846  1.00  0.00    -0.346 OA
BRANCH  24  25
HETATM   25  C15 UNL     1       8.543  -7.721  25.466  1.00  0.00     0.201 C 
BRANCH  25  26
HETATM   26  C16 UNL     1       8.785  -8.981  24.628  1.00  0.00     0.193 C 
BRANCH  26  27
HETATM   27  O2  UNL     1       9.105  -8.694  23.262  1.00  0.00    -0.394 OA
HETATM   28  C17 UNL     1      10.015  -9.621  22.689  1.00  0.00     0.201 C 
ENDBRANCH  26  27
ENDBRANCH  25  26
ENDBRANCH  24  25
ENDBRANCH  21  24
BRANCH  22  29
HETATM   29  O3  UNL     1       6.665  -7.592  29.019  1.00  0.00    -0.346 OA
BRANCH  29  30
HETATM   30  C19 UNL     1       5.575  -7.356  28.115  1.00  0.00     0.201 C 
BRANCH  30  31
HETATM   31  C20 UNL     1       4.559  -6.442  28.804  1.00  0.00     0.193 C 
BRANCH  31  32
HETATM   32  O4  UNL     1       4.803  -5.054  28.548  1.00  0.00    -0.394 OA
HETATM   33  C21 UNL     1       4.813  -4.260  29.726  1.00  0.00     0.201 C 
ENDBRANCH  31  32
ENDBRANCH  30  31
ENDBRANCH  29  30
ENDBRANCH  22  29
ENDBRANCH   9  11
ENDBRANCH   7   9
TORSDOF 10
ENDMDL
MODEL 5
REMARK minimizedAffinity -7.25045013
REMARK  10 active torsions:
REMARK  status: ('A' for Active; 'I' for Inactive)
REMARK    1  A    between atoms: C7_7  and  N1_8 
REMARK    2  A    between atoms: N1_8  and  C8_9 
REMARK    3  A    between atoms: C14_18  and  O1_19 
REMARK    4  A    between atoms: O1_19  and  C15_20 
REMARK    5  A    between atoms: C15_20  and  C16_21 
REMARK    6  A    between atoms: C16_21  and  O2_22 
REMARK    7  A    between atoms: C18_24  and  O3_25 
REMARK    8  A    between atoms: O3_25  and  C19_26 
REMARK    9  A    between atoms: C19_26  and  C20_27 
REMARK   10  A    between atoms: C20_27  and  O4_28 
ROOT
HETATM    1  C1  UNL     1       9.228  -4.375  36.056  1.00  0.00     0.018 C 
HETATM    2  C2  UNL     1       9.372  -4.188  34.879  1.00  0.00    -0.078 C 
HETATM    3  C3  UNL     1       9.543  -3.964  33.476  1.00  0.00     0.019 A 
HETATM    4  C4  UNL     1      10.486  -3.042  33.027  1.00  0.00     0.021 A 
HETATM    5  C5  UNL     1      10.658  -2.837  31.660  1.00  0.00     0.004 A 
HETATM    6  C6  UNL     1       9.884  -3.551  30.742  1.00  0.00     0.029 A 
HETATM    7  C7  UNL     1       8.914  -4.466  31.175  1.00  0.00     0.034 A 
HETATM    8  C24 UNL     1       8.767  -4.675  32.555  1.00  0.00     0.050 A 
ENDROOT
BRANCH   7   9
HETATM    9  N1  UNL     1       8.149  -5.266  30.287  1.00  0.00    -0.354 N 
HETATM   10  H5  UNL     1       8.511  -6.220  30.288  1.00  0.00     0.166 HD
BRANCH   9  11
HETATM   11  C8  UNL     1       6.737  -5.204  30.092  1.00  0.00     0.067 A 
HETATM   12  C9  UNL     1       6.003  -4.097  30.542  1.00  0.00     0.087 A 
HETATM   13  C10 UNL     1       6.597  -3.026  31.277  1.00  0.00     0.103 C 
HETATM   14  C11 UNL     1       4.654  -4.043  30.249  1.00  0.00     0.113 A 
HETATM   15  N2  UNL     1       7.091  -2.175  31.892  1.00  0.00    -0.191 NA
HETATM   16  N3  UNL     1       3.995  -4.992  29.548  1.00  0.00    -0.364 N 
HETATM   17  C12 UNL     1       4.683  -6.058  29.112  1.00  0.00     0.047 A 
ATOM     18  H3  UNL     1       2.997  -4.900  29.354  1.00  0.00     0.165 HD
HETATM   19  C13 UNL     1       4.006  -7.037  28.399  1.00  0.00     0.070 A 
HETATM   20  C23 UNL     1       6.064  -6.222  29.355  1.00  0.00     0.022 A 
HETATM   21  C14 UNL     1       4.646  -8.186  27.925  1.00  0.00     0.104 A 
HETATM   22  C18 UNL     1       6.016  -8.348  28.127  1.00  0.00     0.103 A 
HETATM   23  C22 UNL     1       6.704  -7.388  28.871  1.00  0.00     0.055 A 
BRANCH  21  24
HETATM   24  O1  UNL     1       3.844  -9.042  27.216  1.00  0.00    -0.346 OA
BRANCH  24  25
HETATM   25  C15 UNL     1       2.441  -8.749  27.294  1.00  0.00     0.201 C 
BRANCH  25  26
HETATM   26  C16 UNL     1       1.812  -8.995  25.919  1.00  0.00     0.193 C 
BRANCH  26  27
HETATM   27  O2  UNL     1       0.566  -8.310  25.741  1.00  0.00    -0.394 OA
HETATM   28  C17 UNL     1       0.159  -8.223  24.383  1.00  0.00     0.201 C 
ENDBRANCH  26  27
ENDBRANCH  25  26
ENDBRANCH  24  25
ENDBRANCH  21  24
BRANCH  22  29
HETATM   29  O3  UNL     1       6.632  -9.455  27.614  1.00  0.00    -0.346 OA
BRANCH  29  30
HETATM   30  C19 UNL     1       7.040  -9.341  26.243  1.00  0.00     0.201 C 
BRANCH  30  31
HETATM   31  C20 UNL     1       8.554  -9.115  26.202  1.00  0.00     0.193 C 
BRANCH  31  32
HETATM   32  O4  UNL     1       8.926  -8.020  25.358  1.00  0.00    -0.394 OA
HETATM   33  C21 UNL     1       8.969  -6.775  26.042  1.00  0.00     0.201 C 
ENDBRANCH  31  32
ENDBRANCH  30  31
ENDBRANCH  29  30
ENDBRANCH  22  29
ENDBRANCH   9  11
ENDBRANCH   7   9
TORSDOF 10
ENDMDL
MODEL 6
REMARK minimizedAffinity -7.23695564
REMARK  10 active torsions:
REMARK  status: ('A' for Active; 'I' for Inactive)
REMARK    1  A    between atoms: C7_7  and  N1_8 
REMARK    2  A    between atoms: N1_8  and  C8_9 
REMARK    3  A    between atoms: C14_18  and  O1_19 
REMARK    4  A    between atoms: O1_19  and  C15_20 
REMARK    5  A    between atoms: C15_20  and  C16_21 
REMARK    6  A    between atoms: C16_21  and  O2_22 
REMARK    7  A    between atoms: C18_24  and  O3_25 
REMARK    8  A    between atoms: O3_25  and  C19_26 
REMARK    9  A    between atoms: C19_26  and  C20_27 
REMARK   10  A    between atoms: C20_27  and  O4_28 
ROOT
HETATM    1  C1  UNL     1      12.070  -1.663  32.311  1.00  0.00     0.018 C 
HETATM    2  C2  UNL     1      11.515  -2.398  31.541  1.00  0.00    -0.078 C 
HETATM    3  C3  UNL     1      10.854  -3.274  30.624  1.00  0.00     0.019 A 
HETATM    4  C4  UNL     1      11.344  -3.427  29.328  1.00  0.00     0.021 A 
HETATM    5  C5  UNL     1      10.704  -4.291  28.443  1.00  0.00     0.004 A 
HETATM    6  C6  UNL     1       9.571  -5.000  28.851  1.00  0.00     0.029 A 
HETATM    7  C7  UNL     1       9.050  -4.842  30.143  1.00  0.00     0.034 A 
HETATM    8  C24 UNL     1       9.718  -3.983  31.029  1.00  0.00     0.050 A 
ENDROOT
BRANCH   7   9
HETATM    9  N1  UNL     1       7.944  -5.587  30.631  1.00  0.00    -0.354 N 
HETATM   10  H5  UNL     1       8.008  -5.668  31.646  1.00  0.00     0.166 HD
BRANCH   9  11
HETATM   11  C8  UNL     1       6.600  -5.516  30.159  1.00  0.00     0.067 A 
HETATM   12  C9  UNL     1       5.807  -4.392  30.431  1.00  0.00     0.087 A 
HETATM   13  C10 UNL     1       6.258  -3.311  31.247  1.00  0.00     0.103 C 
HETATM   14  C11 UNL     1       4.543  -4.332  29.875  1.00  0.00     0.113 A 
HETATM   15  N2  UNL     1       6.631  -2.450  31.930  1.00  0.00    -0.191 NA
HETATM   16  N3  UNL     1       4.023  -5.291  29.077  1.00  0.00    -0.364 N 
HETATM   17  C12 UNL     1       4.769  -6.374  28.808  1.00  0.00     0.047 A 
ATOM     18  H3  UNL     1       3.085  -5.194  28.687  1.00  0.00     0.165 HD
HETATM   19  C13 UNL     1       4.234  -7.362  27.996  1.00  0.00     0.070 A 
HETATM   20  C23 UNL     1       6.072  -6.545  29.324  1.00  0.00     0.022 A 
HETATM   21  C14 UNL     1       4.939  -8.527  27.682  1.00  0.00     0.104 A 
HETATM   22  C18 UNL     1       6.239  -8.698  28.155  1.00  0.00     0.103 A 
HETATM   23  C22 UNL     1       6.780  -7.728  29.001  1.00  0.00     0.055 A 
BRANCH  21  24
HETATM   24  O1  UNL     1       4.282  -9.392  26.846  1.00  0.00    -0.346 OA
BRANCH  24  25
HETATM   25  C15 UNL     1       3.917  -8.833  25.576  1.00  0.00     0.201 C 
BRANCH  25  26
HETATM   26  C16 UNL     1       2.455  -9.187  25.285  1.00  0.00     0.193 C 
BRANCH  26  27
HETATM   27  O2  UNL     1       1.531  -8.210  25.778  1.00  0.00    -0.394 OA
HETATM   28  C17 UNL     1       0.363  -8.085  24.980  1.00  0.00     0.201 C 
ENDBRANCH  26  27
ENDBRANCH  25  26
ENDBRANCH  24  25
ENDBRANCH  21  24
BRANCH  22  29
HETATM   29  O3  UNL     1       6.930  -9.822  27.797  1.00  0.00    -0.346 OA
BRANCH  29  30
HETATM   30  C19 UNL     1       7.430  -9.824  26.452  1.00  0.00     0.201 C 
BRANCH  30  31
HETATM   31  C20 UNL     1       8.717  -8.996  26.409  1.00  0.00     0.193 C 
BRANCH  31  32
HETATM   32  O4  UNL     1       8.603  -7.841  25.571  1.00  0.00    -0.394 OA
HETATM   33  C21 UNL     1       9.726  -6.976  25.653  1.00  0.00     0.201 C 
ENDBRANCH  31  32
ENDBRANCH  30  31
ENDBRANCH  29  30
ENDBRANCH  22  29
ENDBRANCH   9  11
ENDBRANCH   7   9
TORSDOF 10
ENDMDL
MODEL 7
REMARK minimizedAffinity -7.23484325
REMARK  10 active torsions:
REMARK  status: ('A' for Active; 'I' for Inactive)
REMARK    1  A    between atoms: C7_7  and  N1_8 
REMARK    2  A    between atoms: N1_8  and  C8_9 
REMARK    3  A    between atoms: C14_18  and  O1_19 
REMARK    4  A    between atoms: O1_19  and  C15_20 
REMARK    5  A    between atoms: C15_20  and  C16_21 
REMARK    6  A    between atoms: C16_21  and  O2_22 
REMARK    7  A    between atoms: C18_24  and  O3_25 
REMARK    8  A    between atoms: O3_25  and  C19_26 
REMARK    9  A    between atoms: C19_26  and  C20_27 
REMARK   10  A    between atoms: C20_27  and  O4_28 
ROOT
HETATM    1  C1  UNL     1      11.359  -3.118  26.651  1.00  0.00     0.018 C 
HETATM    2  C2  UNL     1      11.129  -3.521  27.758  1.00  0.00    -0.078 C 
HETATM    3  C3  UNL     1      10.854  -4.001  29.078  1.00  0.00     0.019 A 
HETATM    4  C4  UNL     1      11.734  -3.718  30.120  1.00  0.00     0.021 A 
HETATM    5  C5  UNL     1      11.455  -4.176  31.406  1.00  0.00     0.004 A 
HETATM    6  C6  UNL     1      10.298  -4.921  31.649  1.00  0.00     0.029 A 
HETATM    7  C7  UNL     1       9.413  -5.235  30.608  1.00  0.00     0.034 A 
HETATM    8  C24 UNL     1       9.698  -4.750  29.323  1.00  0.00     0.050 A 
ENDROOT
BRANCH   7   9
HETATM    9  N1  UNL     1       8.191  -5.929  30.811  1.00  0.00    -0.354 N 
HETATM   10  H5  UNL     1       8.176  -6.327  31.751  1.00  0.00     0.166 HD
BRANCH   9  11
HETATM   11  C8  UNL     1       6.901  -5.526  30.354  1.00  0.00     0.067 A 
HETATM   12  C9  UNL     1       6.392  -4.261  30.680  1.00  0.00     0.087 A 
HETATM   13  C10 UNL     1       7.081  -3.351  31.538  1.00  0.00     0.103 C 
HETATM   14  C11 UNL     1       5.178  -3.884  30.137  1.00  0.00     0.113 A 
HETATM   15  N2  UNL     1       7.644  -2.632  32.254  1.00  0.00    -0.191 NA
HETATM   16  N3  UNL     1       4.450  -4.659  29.304  1.00  0.00    -0.364 N 
HETATM   17  C12 UNL     1       4.923  -5.873  28.983  1.00  0.00     0.047 A 
ATOM     18  H3  UNL     1       3.561  -4.329  28.927  1.00  0.00     0.165 HD
HETATM   19  C13 UNL     1       4.174  -6.673  28.134  1.00  0.00     0.070 A 
HETATM   20  C23 UNL     1       6.149  -6.366  29.481  1.00  0.00     0.022 A 
HETATM   21  C14 UNL     1       4.587  -7.956  27.765  1.00  0.00     0.104 A 
HETATM   22  C18 UNL     1       5.811  -8.446  28.219  1.00  0.00     0.103 A 
HETATM   23  C22 UNL     1       6.562  -7.666  29.101  1.00  0.00     0.055 A 
BRANCH  21  24
HETATM   24  O1  UNL     1       3.749  -8.607  26.898  1.00  0.00    -0.346 OA
BRANCH  24  25
HETATM   25  C15 UNL     1       2.352  -8.471  27.204  1.00  0.00     0.201 C 
BRANCH  25  26
HETATM   26  C16 UNL     1       1.591  -8.195  25.904  1.00  0.00     0.193 C 
BRANCH  26  27
HETATM   27  O2  UNL     1       2.073  -8.963  24.795  1.00  0.00    -0.394 OA
HETATM   28  C17 UNL     1       1.232  -8.897  23.653  1.00  0.00     0.201 C 
ENDBRANCH  26  27
ENDBRANCH  25  26
ENDBRANCH  24  25
ENDBRANCH  21  24
BRANCH  22  29
HETATM   29  O3  UNL     1       6.221  -9.683  27.808  1.00  0.00    -0.346 OA
BRANCH  29  30
HETATM   30  C19 UNL     1       7.625  -9.937  27.955  1.00  0.00     0.201 C 
BRANCH  30  31
HETATM   31  C20 UNL     1       8.280  -9.865  26.573  1.00  0.00     0.193 C 
BRANCH  31  32
HETATM   32  O4  UNL     1       9.611  -9.339  26.619  1.00  0.00    -0.394 OA
HETATM   33  C21 UNL     1       9.884  -8.411  25.578  1.00  0.00     0.201 C 
ENDBRANCH  31  32
ENDBRANCH  30  31
ENDBRANCH  29  30
ENDBRANCH  22  29
ENDBRANCH   9  11
ENDBRANCH   7   9
TORSDOF 10
ENDMDL
MODEL 8
REMARK minimizedAffinity -7.17601824
REMARK  10 active torsions:
REMARK  status: ('A' for Active; 'I' for Inactive)
REMARK    1  A    between atoms: C7_7  and  N1_8 
REMARK    2  A    between atoms: N1_8  and  C8_9 
REMARK    3  A    between atoms: C14_18  and  O1_19 
REMARK    4  A    between atoms: O1_19  and  C15_20 
REMARK    5  A    between atoms: C15_20  and  C16_21 
REMARK    6  A    between atoms: C16_21  and  O2_22 
REMARK    7  A    between atoms: C18_24  and  O3_25 
REMARK    8  A    between atoms: O3_25  and  C19_26 
REMARK    9  A    between atoms: C19_26  and  C20_27 
REMARK   10  A    between atoms: C20_27  and  O4_28 
ROOT
HETATM    1  C1  UNL     1       8.714  -4.528  35.347  1.00  0.00     0.018 C 
HETATM    2  C2  UNL     1       8.953  -4.807  34.204  1.00  0.00    -0.078 C 
HETATM    3  C3  UNL     1       9.239  -5.139  32.842  1.00  0.00     0.019 A 
HETATM    4  C4  UNL     1      10.387  -5.863  32.526  1.00  0.00     0.021 A 
HETATM    5  C5  UNL     1      10.653  -6.195  31.200  1.00  0.00     0.004 A 
HETATM    6  C6  UNL     1       9.774  -5.800  30.189  1.00  0.00     0.029 A 
HETATM    7  C7  UNL     1       8.626  -5.052  30.484  1.00  0.00     0.034 A 
HETATM    8  C24 UNL     1       8.362  -4.742  31.827  1.00  0.00     0.050 A 
ENDROOT
BRANCH   7   9
HETATM    9  N1  UNL     1       7.665  -4.684  29.506  1.00  0.00    -0.354 N 
HETATM   10  H5  UNL     1       8.118  -4.605  28.595  1.00  0.00     0.166 HD
BRANCH   9  11
HETATM   11  C8  UNL     1       6.319  -5.148  29.423  1.00  0.00     0.067 A 
HETATM   12  C9  UNL     1       5.275  -4.417  30.008  1.00  0.00     0.087 A 
HETATM   13  C10 UNL     1       5.499  -3.234  30.776  1.00  0.00     0.103 C 
HETATM   14  C11 UNL     1       3.980  -4.861  29.822  1.00  0.00     0.113 A 
HETATM   15  N2  UNL     1       5.700  -2.287  31.415  1.00  0.00    -0.191 NA
HETATM   16  N3  UNL     1       3.654  -5.958  29.102  1.00  0.00    -0.364 N 
HETATM   17  C12 UNL     1       4.641  -6.669  28.537  1.00  0.00     0.047 A 
ATOM     18  H3  UNL     1       2.679  -6.239  28.992  1.00  0.00     0.165 HD
HETATM   19  C13 UNL     1       4.309  -7.798  27.805  1.00  0.00     0.070 A 
HETATM   20  C23 UNL     1       6.001  -6.313  28.663  1.00  0.00     0.022 A 
HETATM   21  C14 UNL     1       5.278  -8.602  27.199  1.00  0.00     0.104 A 
HETATM   22  C18 UNL     1       6.624  -8.247  27.285  1.00  0.00     0.103 A 
HETATM   23  C22 UNL     1       6.977  -7.132  28.046  1.00  0.00     0.055 A 
BRANCH  21  24
HETATM   24  O1  UNL     1       4.786  -9.666  26.489  1.00  0.00    -0.346 OA
BRANCH  24  25
HETATM   25  C15 UNL     1       4.264  -9.330  25.195  1.00  0.00     0.201 C 
BRANCH  25  26
HETATM   26  C16 UNL     1       2.742  -9.505  25.219  1.00  0.00     0.193 C 
BRANCH  26  27
HETATM   27  O2  UNL     1       2.044  -8.457  24.537  1.00  0.00    -0.394 OA
HETATM   28  C17 UNL     1       0.695  -8.310  24.956  1.00  0.00     0.201 C 
ENDBRANCH  26  27
ENDBRANCH  25  26
ENDBRANCH  24  25
ENDBRANCH  21  24
BRANCH  22  29
HETATM   29  O3  UNL     1       7.552  -9.019  26.645  1.00  0.00    -0.346 OA
BRANCH  29  30
HETATM   30  C19 UNL     1       7.885  -8.591  25.316  1.00  0.00     0.201 C 
BRANCH  30  31
HETATM   31  C20 UNL     1       9.369  -8.217  25.282  1.00  0.00     0.193 C 
BRANCH  31  32
HETATM   32  O4  UNL     1       9.588  -6.810  25.435  1.00  0.00    -0.394 OA
HETATM   33  C21 UNL     1      10.308  -6.480  26.614  1.00  0.00     0.201 C 
ENDBRANCH  31  32
ENDBRANCH  30  31
ENDBRANCH  29  30
ENDBRANCH  22  29
ENDBRANCH   9  11
ENDBRANCH   7   9
TORSDOF 10
ENDMDL
MODEL 9
REMARK minimizedAffinity -7.0966363
REMARK  10 active torsions:
REMARK  status: ('A' for Active; 'I' for Inactive)
REMARK    1  A    between atoms: C7_7  and  N1_8 
REMARK    2  A    between atoms: N1_8  and  C8_9 
REMARK    3  A    between atoms: C14_18  and  O1_19 
REMARK    4  A    between atoms: O1_19  and  C15_20 
REMARK    5  A    between atoms: C15_20  and  C16_21 
REMARK    6  A    between atoms: C16_21  and  O2_22 
REMARK    7  A    between atoms: C18_24  and  O3_25 
REMARK    8  A    between atoms: O3_25  and  C19_26 
REMARK    9  A    between atoms: C19_26  and  C20_27 
REMARK   10  A    between atoms: C20_27  and  O4_28 
ROOT
HETATM    1  C1  UNL     1      10.900  -7.481  25.095  1.00  0.00     0.018 C 
HETATM    2  C2  UNL     1      10.715  -6.756  26.033  1.00  0.00    -0.078 C 
HETATM    3  C3  UNL     1      10.495  -5.891  27.152  1.00  0.00     0.019 A 
HETATM    4  C4  UNL     1      11.203  -4.696  27.259  1.00  0.00     0.021 A 
HETATM    5  C5  UNL     1      10.975  -3.851  28.343  1.00  0.00     0.004 A 
HETATM    6  C6  UNL     1      10.042  -4.204  29.322  1.00  0.00     0.029 A 
HETATM    7  C7  UNL     1       9.338  -5.413  29.243  1.00  0.00     0.034 A 
HETATM    8  C24 UNL     1       9.565  -6.244  28.135  1.00  0.00     0.050 A 
ENDROOT
BRANCH   7   9
HETATM    9  N1  UNL     1       8.332  -5.789  30.173  1.00  0.00    -0.354 N 
HETATM   10  H5  UNL     1       8.727  -5.809  31.114  1.00  0.00     0.166 HD
BRANCH   9  11
HETATM   11  C8  UNL     1       6.964  -5.387  30.149  1.00  0.00     0.067 A 
HETATM   12  C9  UNL     1       6.555  -4.211  30.794  1.00  0.00     0.087 A 
HETATM   13  C10 UNL     1       7.446  -3.405  31.566  1.00  0.00     0.103 C 
HETATM   14  C11 UNL     1       5.236  -3.818  30.665  1.00  0.00     0.113 A 
HETATM   15  N2  UNL     1       8.178  -2.773  32.206  1.00  0.00    -0.191 NA
HETATM   16  N3  UNL     1       4.313  -4.496  29.948  1.00  0.00    -0.364 N 
HETATM   17  C12 UNL     1       4.689  -5.624  29.325  1.00  0.00     0.047 A 
ATOM     18  H3  UNL     1       3.352  -4.159  29.881  1.00  0.00     0.165 HD
HETATM   19  C13 UNL     1       3.741  -6.325  28.596  1.00  0.00     0.070 A 
HETATM   20  C23 UNL     1       6.007  -6.124  29.390  1.00  0.00     0.022 A 
HETATM   21  C14 UNL     1       4.046  -7.517  27.933  1.00  0.00     0.104 A 
HETATM   22  C18 UNL     1       5.352  -8.008  27.958  1.00  0.00     0.103 A 
HETATM   23  C22 UNL     1       6.309  -7.331  28.716  1.00  0.00     0.055 A 
BRANCH  21  24
HETATM   24  O1  UNL     1       3.007  -8.073  27.234  1.00  0.00    -0.346 OA
BRANCH  24  25
HETATM   25  C15 UNL     1       1.715  -7.543  27.564  1.00  0.00     0.201 C 
BRANCH  25  26
HETATM   26  C16 UNL     1       0.669  -8.646  27.375  1.00  0.00     0.193 C 
BRANCH  26  27
HETATM   27  O2  UNL     1      -0.259  -8.733  28.463  1.00  0.00    -0.394 OA
HETATM   28  C17 UNL     1      -1.078  -9.892  28.416  1.00  0.00     0.201 C 
ENDBRANCH  26  27
ENDBRANCH  25  26
ENDBRANCH  24  25
ENDBRANCH  21  24
BRANCH  22  29
HETATM   29  O3  UNL     1       5.642  -9.148  27.263  1.00  0.00    -0.346 OA
BRANCH  29  30
HETATM   30  C19 UNL     1       6.988  -9.234  26.774  1.00  0.00     0.201 C 
BRANCH  30  31
HETATM   31  C20 UNL     1       7.622 -10.518  27.315  1.00  0.00     0.193 C 
BRANCH  31  32
HETATM   32  O4  UNL     1       8.773 -10.924  26.567  1.00  0.00    -0.394 OA
HETATM   33  C21 UNL     1       9.988 -10.389  27.074  1.00  0.00     0.201 C 
ENDBRANCH  31  32
ENDBRANCH  30  31
ENDBRANCH  29  30
ENDBRANCH  22  29
ENDBRANCH   9  11
ENDBRANCH   7   9
TORSDOF 10
ENDMDL
