MODEL 1
REMARK minimizedAffinity -7.77588511
REMARK  9 active torsions:
REMARK  status: ('A' for Active; 'I' for Inactive)
REMARK    1  A    between atoms: O1_1  and  C1_2 
REMARK    2  A    between atoms: C1_2  and  C2_3 
REMARK    3  A    between atoms: C6_7  and  C7_8 
REMARK    4  A    between atoms: C8_9  and  C9_10 
REMARK    5  A    between atoms: C12_17  and  N3_18 
REMARK    6  A    between atoms: N3_18  and  C13_19 
REMARK    7  A    between atoms: C16_22  and  O2_23 
REMARK    8  A    between atoms: O2_23  and  C17_24 
REMARK    9  A    between atoms: C17_24  and  C18_25 
ROOT
HETATM    1  C9  UNL     1      15.950  37.207  15.195  1.00  0.00     0.077 A 
HETATM    2  C10 UNL     1      15.992  38.587  15.164  1.00  0.00     0.113 A 
HETATM    3  N1  UNL     1      16.912  39.292  14.479  1.00  0.00    -0.361 N 
ATOM      4  H1  UNL     1      16.925  40.312  14.474  1.00  0.00     0.166 HD
HETATM    5  C11 UNL     1      17.807  38.560  13.805  1.00  0.00     0.181 A 
HETATM    6  N2  UNL     1      17.861  37.220  13.761  1.00  0.00    -0.337 N 
ATOM      7  H2  UNL     1      18.576  36.736  13.218  1.00  0.00     0.168 HD
HETATM    8  C12 UNL     1      16.933  36.537  14.463  1.00  0.00     0.127 A 
ENDROOT
BRANCH   8   9
HETATM    9  N3  UNL     1      16.918  35.116  14.436  1.00  0.00    -0.341 N 
HETATM   10  H9  UNL     1      16.817  34.751  15.378  1.00  0.00     0.167 HD
BRANCH   9  11
HETATM   11  C13 UNL     1      17.577  34.209  13.581  1.00  0.00     0.035 A 
HETATM   12  C14 UNL     1      16.890  33.731  12.456  1.00  0.00     0.032 A 
HETATM   13  C15 UNL     1      17.498  32.868  11.535  1.00  0.00     0.041 A 
HETATM   14  C16 UNL     1      18.826  32.477  11.705  1.00  0.00     0.091 A 
HETATM   15  C24 UNL     1      19.531  32.979  12.810  1.00  0.00     0.069 A 
HETATM   16 CL1  UNL     1      21.191  32.561  13.077  1.00  0.00    -0.081 Cl
HETATM   17  C25 UNL     1      18.917  33.844  13.726  1.00  0.00     0.056 A 
BRANCH  14  18
HETATM   18  O2  UNL     1      19.505  31.633  10.869  1.00  0.00    -0.345 OA
BRANCH  18  19
HETATM   19  C17 UNL     1      18.882  30.399  10.517  1.00  0.00     0.214 C 
BRANCH  19  20
HETATM   20  C18 UNL     1      18.458  30.445   9.067  1.00  0.00    -0.031 A 
HETATM   21  C19 UNL     1      18.577  31.628   8.318  1.00  0.00     0.009 A 
HETATM   22  C20 UNL     1      18.152  31.677   6.987  1.00  0.00     0.004 A 
HETATM   23  C21 UNL     1      17.595  30.547   6.391  1.00  0.00     0.042 A 
HETATM   24  C22 UNL     1      17.467  29.378   7.133  1.00  0.00     0.117 A 
HETATM   25  F1  UNL     1      16.924  28.293   6.565  1.00  0.00    -0.206 F 
HETATM   26  C23 UNL     1      17.886  29.317   8.459  1.00  0.00     0.051 A 
ENDBRANCH  19  20
ENDBRANCH  18  19
ENDBRANCH  14  18
ENDBRANCH   9  11
ENDBRANCH   8   9
BRANCH   1  27
HETATM   27  C8  UNL     1      14.947  36.527  15.958  1.00  0.00    -0.055 C 
HETATM   28  C7  UNL     1      14.094  36.018  16.633  1.00  0.00    -0.043 C 
BRANCH  28  29
HETATM   29  C6  UNL     1      13.077  35.484  17.478  1.00  0.00     0.087 A 
HETATM   30  C5  UNL     1      13.350  34.505  18.419  1.00  0.00     0.039 A 
HETATM   31  C4  UNL     1      12.297  34.039  19.200  1.00  0.00     0.005 A 
HETATM   32  C3  UNL     1      11.020  34.567  19.015  1.00  0.00     0.027 A 
HETATM   33  C2  UNL     1      10.836  35.549  18.046  1.00  0.00     0.033 A 
HETATM   34  N4  UNL     1      11.851  36.015  17.268  1.00  0.00    -0.351 N 
ATOM     35  H4  UNL     1      11.695  36.732  16.559  1.00  0.00     0.166 HD
BRANCH  33  36
HETATM   36  C1  UNL     1       9.469  36.159  17.818  1.00  0.00     0.221 C 
BRANCH  36  37
HETATM   37  O1  UNL     1       9.047  35.973  16.464  1.00  0.00    -0.395 OA
HETATM   38  H1  UNL     1       9.802  35.520  16.033  1.00  0.00     0.209 HD
ENDBRANCH  36  37
ENDBRANCH  33  36
ENDBRANCH  28  29
ENDBRANCH   1  27
TORSDOF 9
ENDMDL
MODEL 2
REMARK minimizedAffinity -7.58051872
REMARK  9 active torsions:
REMARK  status: ('A' for Active; 'I' for Inactive)
REMARK    1  A    between atoms: O1_1  and  C1_2 
REMARK    2  A    between atoms: C1_2  and  C2_3 
REMARK    3  A    between atoms: C6_7  and  C7_8 
REMARK    4  A    between atoms: C8_9  and  C9_10 
REMARK    5  A    between atoms: C12_17  and  N3_18 
REMARK    6  A    between atoms: N3_18  and  C13_19 
REMARK    7  A    between atoms: C16_22  and  O2_23 
REMARK    8  A    between atoms: O2_23  and  C17_24 
REMARK    9  A    between atoms: C17_24  and  C18_25 
ROOT
HETATM    1  C9  UNL     1      17.431  37.036  13.051  1.00  0.00     0.077 A 
HETATM    2  C10 UNL     1      17.658  36.727  11.725  1.00  0.00     0.113 A 
HETATM    3  N1  UNL     1      17.810  35.472  11.263  1.00  0.00    -0.361 N 
ATOM      4  H1  UNL     1      17.981  35.269  10.278  1.00  0.00     0.166 HD
HETATM    5  C11 UNL     1      17.719  34.510  12.189  1.00  0.00     0.181 A 
HETATM    6  N2  UNL     1      17.500  34.690  13.500  1.00  0.00    -0.337 N 
ATOM      7  H2  UNL     1      17.440  33.899  14.141  1.00  0.00     0.168 HD
HETATM    8  C12 UNL     1      17.360  35.959  13.938  1.00  0.00     0.127 A 
ENDROOT
BRANCH   8   9
HETATM    9  N3  UNL     1      17.097  36.217  15.310  1.00  0.00    -0.341 N 
HETATM   10  H9  UNL     1      17.850  35.850  15.884  1.00  0.00     0.167 HD
BRANCH   9  11
HETATM   11  C13 UNL     1      15.877  36.284  16.012  1.00  0.00     0.035 A 
HETATM   12  C14 UNL     1      14.685  36.360  15.276  1.00  0.00     0.032 A 
HETATM   13  C15 UNL     1      13.432  36.378  15.904  1.00  0.00     0.041 A 
HETATM   14  C16 UNL     1      13.339  36.295  17.293  1.00  0.00     0.091 A 
HETATM   15  C24 UNL     1      14.525  36.184  18.035  1.00  0.00     0.069 A 
HETATM   16 CL1  UNL     1      14.492  36.051  19.761  1.00  0.00    -0.081 Cl
HETATM   17  C25 UNL     1      15.774  36.164  17.400  1.00  0.00     0.056 A 
BRANCH  14  18
HETATM   18  O2  UNL     1      12.167  36.313  18.000  1.00  0.00    -0.345 OA
BRANCH  18  19
HETATM   19  C17 UNL     1      11.273  35.213  17.836  1.00  0.00     0.214 C 
BRANCH  19  20
HETATM   20  C18 UNL     1      10.027  35.451  18.658  1.00  0.00    -0.031 A 
HETATM   21  C19 UNL     1       9.840  34.800  19.889  1.00  0.00     0.009 A 
HETATM   22  C20 UNL     1       8.671  34.996  20.631  1.00  0.00     0.004 A 
HETATM   23  C21 UNL     1       7.672  35.840  20.148  1.00  0.00     0.042 A 
HETATM   24  C22 UNL     1       7.852  36.480  18.926  1.00  0.00     0.117 A 
HETATM   25  F1  UNL     1       6.889  37.284  18.456  1.00  0.00    -0.206 F 
HETATM   26  C23 UNL     1       9.011  36.291  18.178  1.00  0.00     0.051 A 
ENDBRANCH  19  20
ENDBRANCH  18  19
ENDBRANCH  14  18
ENDBRANCH   9  11
ENDBRANCH   8   9
BRANCH   1  27
HETATM   27  C8  UNL     1      17.293  38.399  13.468  1.00  0.00    -0.055 C 
HETATM   28  C7  UNL     1      17.209  39.524  13.880  1.00  0.00    -0.043 C 
BRANCH  28  29
HETATM   29  C6  UNL     1      17.138  40.833  14.442  1.00  0.00     0.087 A 
HETATM   30  C5  UNL     1      17.602  41.945  13.760  1.00  0.00     0.039 A 
HETATM   31  C4  UNL     1      17.496  43.184  14.384  1.00  0.00     0.005 A 
HETATM   32  C3  UNL     1      16.931  43.265  15.657  1.00  0.00     0.027 A 
HETATM   33  C2  UNL     1      16.491  42.095  16.268  1.00  0.00     0.033 A 
HETATM   34  N4  UNL     1      16.590  40.873  15.677  1.00  0.00    -0.351 N 
ATOM     35  H4  UNL     1      16.266  40.026  16.145  1.00  0.00     0.166 HD
BRANCH  33  36
HETATM   36  C1  UNL     1      15.862  42.137  17.645  1.00  0.00     0.221 C 
BRANCH  36  37
HETATM   37  O1  UNL     1      14.436  42.175  17.553  1.00  0.00    -0.395 OA
HETATM   38  H1  UNL     1      14.254  42.202  16.590  1.00  0.00     0.209 HD
ENDBRANCH  36  37
ENDBRANCH  33  36
ENDBRANCH  28  29
ENDBRANCH   1  27
TORSDOF 9
ENDMDL
MODEL 3
REMARK minimizedAffinity -7.47886658
REMARK  9 active torsions:
REMARK  status: ('A' for Active; 'I' for Inactive)
REMARK    1  A    between atoms: O1_1  and  C1_2 
REMARK    2  A    between atoms: C1_2  and  C2_3 
REMARK    3  A    between atoms: C6_7  and  C7_8 
REMARK    4  A    between atoms: C8_9  and  C9_10 
REMARK    5  A    between atoms: C12_17  and  N3_18 
REMARK    6  A    between atoms: N3_18  and  C13_19 
REMARK    7  A    between atoms: C16_22  and  O2_23 
REMARK    8  A    between atoms: O2_23  and  C17_24 
REMARK    9  A    between atoms: C17_24  and  C18_25 
ROOT
HETATM    1  C9  UNL     1      19.370  35.888  16.725  1.00  0.00     0.077 A 
HETATM    2  C10 UNL     1      20.282  36.923  16.670  1.00  0.00     0.113 A 
HETATM    3  N1  UNL     1      20.597  37.699  17.724  1.00  0.00    -0.361 N 
ATOM      4  H1  UNL     1      21.272  38.462  17.658  1.00  0.00     0.166 HD
HETATM    5  C11 UNL     1      19.962  37.400  18.863  1.00  0.00     0.181 A 
HETATM    6  N2  UNL     1      19.062  36.420  19.033  1.00  0.00    -0.337 N 
ATOM      7  H2  UNL     1      18.624  36.254  19.940  1.00  0.00     0.168 HD
HETATM    8  C12 UNL     1      18.757  35.661  17.960  1.00  0.00     0.127 A 
ENDROOT
BRANCH   8   9
HETATM    9  N3  UNL     1      17.833  34.589  18.080  1.00  0.00    -0.341 N 
HETATM   10  H9  UNL     1      18.152  33.792  17.538  1.00  0.00     0.167 HD
BRANCH   9  11
HETATM   11  C13 UNL     1      16.432  34.600  18.235  1.00  0.00     0.035 A 
HETATM   12  C14 UNL     1      15.636  34.829  17.103  1.00  0.00     0.032 A 
HETATM   13  C15 UNL     1      14.236  34.804  17.171  1.00  0.00     0.041 A 
HETATM   14  C16 UNL     1      13.594  34.524  18.377  1.00  0.00     0.091 A 
HETATM   15  C24 UNL     1      14.384  34.260  19.506  1.00  0.00     0.069 A 
HETATM   16 CL1  UNL     1      13.662  33.878  21.034  1.00  0.00    -0.081 Cl
HETATM   17  C25 UNL     1      15.783  34.284  19.430  1.00  0.00     0.056 A 
BRANCH  14  18
HETATM   18  O2  UNL     1      12.236  34.485  18.548  1.00  0.00    -0.345 OA
BRANCH  18  19
HETATM   19  C17 UNL     1      11.454  35.491  17.906  1.00  0.00     0.214 C 
BRANCH  19  20
HETATM   20  C18 UNL     1      10.129  35.628  18.620  1.00  0.00    -0.031 A 
HETATM   21  C19 UNL     1       9.844  34.867  19.766  1.00  0.00     0.009 A 
HETATM   22  C20 UNL     1       8.604  34.971  20.404  1.00  0.00     0.004 A 
HETATM   23  C21 UNL     1       7.631  35.832  19.899  1.00  0.00     0.042 A 
HETATM   24  C22 UNL     1       7.907  36.580  18.759  1.00  0.00     0.117 A 
HETATM   25  F1  UNL     1       6.970  37.401  18.267  1.00  0.00    -0.206 F 
HETATM   26  C23 UNL     1       9.137  36.483  18.115  1.00  0.00     0.051 A 
ENDBRANCH  19  20
ENDBRANCH  18  19
ENDBRANCH  14  18
ENDBRANCH   9  11
ENDBRANCH   8   9
BRANCH   1  27
HETATM   27  C8  UNL     1      19.078  35.113  15.557  1.00  0.00    -0.055 C 
HETATM   28  C7  UNL     1      18.788  34.423  14.617  1.00  0.00    -0.043 C 
BRANCH  28  29
HETATM   29  C6  UNL     1      18.402  33.554  13.554  1.00  0.00     0.087 A 
HETATM   30  C5  UNL     1      17.222  33.742  12.852  1.00  0.00     0.039 A 
HETATM   31  C4  UNL     1      16.922  32.846  11.831  1.00  0.00     0.005 A 
HETATM   32  C3  UNL     1      17.806  31.805  11.549  1.00  0.00     0.027 A 
HETATM   33  C2  UNL     1      18.969  31.692  12.306  1.00  0.00     0.033 A 
HETATM   34  N4  UNL     1      19.279  32.555  13.312  1.00  0.00    -0.351 N 
ATOM     35  H4  UNL     1      20.134  32.452  13.859  1.00  0.00     0.166 HD
BRANCH  33  36
HETATM   36  C1  UNL     1      19.962  30.584  12.029  1.00  0.00     0.221 C 
BRANCH  36  37
HETATM   37  O1  UNL     1      19.366  29.550  11.242  1.00  0.00    -0.395 OA
HETATM   38  H1  UNL     1      18.435  29.836  11.128  1.00  0.00     0.209 HD
ENDBRANCH  36  37
ENDBRANCH  33  36
ENDBRANCH  28  29
ENDBRANCH   1  27
TORSDOF 9
ENDMDL
MODEL 4
REMARK minimizedAffinity -7.41505718
REMARK  9 active torsions:
REMARK  status: ('A' for Active; 'I' for Inactive)
REMARK    1  A    between atoms: O1_1  and  C1_2 
REMARK    2  A    between atoms: C1_2  and  C2_3 
REMARK    3  A    between atoms: C6_7  and  C7_8 
REMARK    4  A    between atoms: C8_9  and  C9_10 
REMARK    5  A    between atoms: C12_17  and  N3_18 
REMARK    6  A    between atoms: N3_18  and  C13_19 
REMARK    7  A    between atoms: C16_22  and  O2_23 
REMARK    8  A    between atoms: O2_23  and  C17_24 
REMARK    9  A    between atoms: C17_24  and  C18_25 
ROOT
HETATM    1  C9  UNL     1      12.299  57.195  -2.175  1.00  0.00     0.077 A 
HETATM    2  C10 UNL     1      11.561  57.864  -3.131  1.00  0.00     0.113 A 
HETATM    3  N1  UNL     1      11.437  59.203  -3.179  1.00  0.00    -0.361 N 
ATOM      4  H1  UNL     1      10.883  59.675  -3.894  1.00  0.00     0.166 HD
HETATM    5  C11 UNL     1      12.093  59.871  -2.223  1.00  0.00     0.181 A 
HETATM    6  N2  UNL     1      12.839  59.329  -1.248  1.00  0.00    -0.337 N 
ATOM      7  H2  UNL     1      13.313  59.912  -0.557  1.00  0.00     0.168 HD
HETATM    8  C12 UNL     1      12.940  57.984  -1.217  1.00  0.00     0.127 A 
ENDROOT
BRANCH   8   9
HETATM    9  N3  UNL     1      13.738  57.349  -0.228  1.00  0.00    -0.341 N 
HETATM   10  H9  UNL     1      13.985  56.411  -0.530  1.00  0.00     0.167 HD
BRANCH   9  11
HETATM   11  C13 UNL     1      13.725  57.470   1.176  1.00  0.00     0.035 A 
HETATM   12  C14 UNL     1      13.498  58.736   1.736  1.00  0.00     0.032 A 
HETATM   13  C15 UNL     1      13.421  58.924   3.122  1.00  0.00     0.041 A 
HETATM   14  C16 UNL     1      13.545  57.838   3.989  1.00  0.00     0.091 A 
HETATM   15  C24 UNL     1      13.738  56.563   3.436  1.00  0.00     0.069 A 
HETATM   16 CL1  UNL     1      13.876  55.161   4.443  1.00  0.00    -0.081 Cl
HETATM   17  C25 UNL     1      13.812  56.383   2.048  1.00  0.00     0.056 A 
BRANCH  14  18
HETATM   18  O2  UNL     1      13.493  57.919   5.355  1.00  0.00    -0.345 OA
BRANCH  18  19
HETATM   19  C17 UNL     1      13.645  59.205   5.953  1.00  0.00     0.214 C 
BRANCH  19  20
HETATM   20  C18 UNL     1      12.691  59.334   7.118  1.00  0.00    -0.031 A 
HETATM   21  C19 UNL     1      11.501  60.070   6.997  1.00  0.00     0.009 A 
HETATM   22  C20 UNL     1      10.637  60.216   8.087  1.00  0.00     0.004 A 
HETATM   23  C21 UNL     1      10.956  59.633   9.312  1.00  0.00     0.042 A 
HETATM   24  C22 UNL     1      12.137  58.911   9.436  1.00  0.00     0.117 A 
HETATM   25  F1  UNL     1      12.451  58.358  10.616  1.00  0.00    -0.206 F 
HETATM   26  C23 UNL     1      13.006  58.760   8.359  1.00  0.00     0.051 A 
ENDBRANCH  19  20
ENDBRANCH  18  19
ENDBRANCH  14  18
ENDBRANCH   9  11
ENDBRANCH   8   9
BRANCH   1  27
HETATM   27  C8  UNL     1      12.373  55.765  -2.182  1.00  0.00    -0.055 C 
HETATM   28  C7  UNL     1      12.506  54.571  -2.202  1.00  0.00    -0.043 C 
BRANCH  28  29
HETATM   29  C6  UNL     1      12.742  53.165  -2.250  1.00  0.00     0.087 A 
HETATM   30  C5  UNL     1      14.020  52.645  -2.375  1.00  0.00     0.039 A 
HETATM   31  C4  UNL     1      14.160  51.261  -2.416  1.00  0.00     0.005 A 
HETATM   32  C3  UNL     1      13.025  50.455  -2.328  1.00  0.00     0.027 A 
HETATM   33  C2  UNL     1      11.780  51.064  -2.204  1.00  0.00     0.033 A 
HETATM   34  N4  UNL     1      11.621  52.415  -2.167  1.00  0.00    -0.351 N 
ATOM     35  H4  UNL     1      10.699  52.842  -2.081  1.00  0.00     0.166 HD
BRANCH  33  36
HETATM   36  C1  UNL     1      10.523  50.227  -2.095  1.00  0.00     0.221 C 
BRANCH  36  37
HETATM   37  O1  UNL     1       9.804  50.223  -3.331  1.00  0.00    -0.395 OA
HETATM   38  H1  UNL     1      10.322  50.814  -3.917  1.00  0.00     0.209 HD
ENDBRANCH  36  37
ENDBRANCH  33  36
ENDBRANCH  28  29
ENDBRANCH   1  27
TORSDOF 9
ENDMDL
MODEL 5
REMARK minimizedAffinity -7.4114728
REMARK  9 active torsions:
REMARK  status: ('A' for Active; 'I' for Inactive)
REMARK    1  A    between atoms: O1_1  and  C1_2 
REMARK    2  A    between atoms: C1_2  and  C2_3 
REMARK    3  A    between atoms: C6_7  and  C7_8 
REMARK    4  A    between atoms: C8_9  and  C9_10 
REMARK    5  A    between atoms: C12_17  and  N3_18 
REMARK    6  A    between atoms: N3_18  and  C13_19 
REMARK    7  A    between atoms: C16_22  and  O2_23 
REMARK    8  A    between atoms: O2_23  and  C17_24 
REMARK    9  A    between atoms: C17_24  and  C18_25 
ROOT
HETATM    1  C9  UNL     1      18.626  51.729   7.018  1.00  0.00     0.077 A 
HETATM    2  C10 UNL     1      19.677  51.876   7.900  1.00  0.00     0.113 A 
HETATM    3  N1  UNL     1      20.182  53.068   8.272  1.00  0.00    -0.361 N 
ATOM      4  H1  UNL     1      20.963  53.151   8.923  1.00  0.00     0.166 HD
HETATM    5  C11 UNL     1      19.586  54.134   7.726  1.00  0.00     0.181 A 
HETATM    6  N2  UNL     1      18.560  54.112   6.862  1.00  0.00    -0.337 N 
ATOM      7  H2  UNL     1      18.158  54.975   6.493  1.00  0.00     0.168 HD
HETATM    8  C12 UNL     1      18.078  52.905   6.499  1.00  0.00     0.127 A 
ENDROOT
BRANCH   8   9
HETATM    9  N3  UNL     1      16.974  52.812   5.610  1.00  0.00    -0.341 N 
HETATM   10  H9  UNL     1      17.050  51.971   5.046  1.00  0.00     0.167 HD
BRANCH   9  11
HETATM   11  C13 UNL     1      16.233  53.821   4.962  1.00  0.00     0.035 A 
HETATM   12  C14 UNL     1      14.837  53.825   5.109  1.00  0.00     0.032 A 
HETATM   13  C15 UNL     1      14.040  54.825   4.537  1.00  0.00     0.041 A 
HETATM   14  C16 UNL     1      14.625  55.868   3.818  1.00  0.00     0.091 A 
HETATM   15  C24 UNL     1      16.023  55.890   3.696  1.00  0.00     0.069 A 
HETATM   16 CL1  UNL     1      16.826  57.165   2.841  1.00  0.00    -0.081 Cl
HETATM   17  C25 UNL     1      16.814  54.888   4.273  1.00  0.00     0.056 A 
BRANCH  14  18
HETATM   18  O2  UNL     1      13.935  56.885   3.215  1.00  0.00    -0.345 OA
BRANCH  18  19
HETATM   19  C17 UNL     1      13.723  56.804   1.806  1.00  0.00     0.214 C 
BRANCH  19  20
HETATM   20  C18 UNL     1      13.315  58.161   1.281  1.00  0.00    -0.031 A 
HETATM   21  C19 UNL     1      13.003  58.344  -0.076  1.00  0.00     0.009 A 
HETATM   22  C20 UNL     1      12.658  59.608  -0.566  1.00  0.00     0.004 A 
HETATM   23  C21 UNL     1      12.630  60.705   0.294  1.00  0.00     0.042 A 
HETATM   24  C22 UNL     1      12.948  60.527   1.636  1.00  0.00     0.117 A 
HETATM   25  F1  UNL     1      12.930  61.581   2.463  1.00  0.00    -0.206 F 
HETATM   26  C23 UNL     1      13.293  59.274   2.135  1.00  0.00     0.051 A 
ENDBRANCH  19  20
ENDBRANCH  18  19
ENDBRANCH  14  18
ENDBRANCH   9  11
ENDBRANCH   8   9
BRANCH   1  27
HETATM   27  C8  UNL     1      18.152  50.426   6.661  1.00  0.00    -0.055 C 
HETATM   28  C7  UNL     1      17.755  49.353   6.293  1.00  0.00    -0.043 C 
BRANCH  28  29
HETATM   29  C6  UNL     1      17.276  48.112   5.779  1.00  0.00     0.087 A 
HETATM   30  C5  UNL     1      16.753  48.006   4.500  1.00  0.00     0.039 A 
HETATM   31  C4  UNL     1      16.308  46.756   4.080  1.00  0.00     0.005 A 
HETATM   32  C3  UNL     1      16.403  45.667   4.946  1.00  0.00     0.027 A 
HETATM   33  C2  UNL     1      16.942  45.866   6.214  1.00  0.00     0.033 A 
HETATM   34  N4  UNL     1      17.379  47.080   6.646  1.00  0.00    -0.351 N 
ATOM     35  H4  UNL     1      17.767  47.206   7.581  1.00  0.00     0.166 HD
BRANCH  33  36
HETATM   36  C1  UNL     1      17.074  44.711   7.182  1.00  0.00     0.221 C 
BRANCH  36  37
HETATM   37  O1  UNL     1      16.007  44.717   8.133  1.00  0.00    -0.395 OA
HETATM   38  H1  UNL     1      15.486  45.518   7.910  1.00  0.00     0.209 HD
ENDBRANCH  36  37
ENDBRANCH  33  36
ENDBRANCH  28  29
ENDBRANCH   1  27
TORSDOF 9
ENDMDL
MODEL 6
REMARK minimizedAffinity -7.37912941
REMARK  9 active torsions:
REMARK  status: ('A' for Active; 'I' for Inactive)
REMARK    1  A    between atoms: O1_1  and  C1_2 
REMARK    2  A    between atoms: C1_2  and  C2_3 
REMARK    3  A    between atoms: C6_7  and  C7_8 
REMARK    4  A    between atoms: C8_9  and  C9_10 
REMARK    5  A    between atoms: C12_17  and  N3_18 
REMARK    6  A    between atoms: N3_18  and  C13_19 
REMARK    7  A    between atoms: C16_22  and  O2_23 
REMARK    8  A    between atoms: O2_23  and  C17_24 
REMARK    9  A    between atoms: C17_24  and  C18_25 
ROOT
HETATM    1  C9  UNL     1      18.941  51.438   7.254  1.00  0.00     0.077 A 
HETATM    2  C10 UNL     1      19.927  51.462   8.219  1.00  0.00     0.113 A 
HETATM    3  N1  UNL     1      20.373  52.588   8.806  1.00  0.00    -0.361 N 
ATOM      4  H1  UNL     1      21.107  52.581   9.515  1.00  0.00     0.166 HD
HETATM    5  C11 UNL     1      19.785  53.718   8.394  1.00  0.00     0.181 A 
HETATM    6  N2  UNL     1      18.818  53.814   7.469  1.00  0.00    -0.337 N 
ATOM      7  H2  UNL     1      18.418  54.718   7.213  1.00  0.00     0.168 HD
HETATM    8  C12 UNL     1      18.395  52.672   6.889  1.00  0.00     0.127 A 
ENDROOT
BRANCH   8   9
HETATM    9  N3  UNL     1      17.354  52.702   5.923  1.00  0.00    -0.341 N 
HETATM   10  H9  UNL     1      17.325  51.823   5.415  1.00  0.00     0.167 HD
BRANCH   9  11
HETATM   11  C13 UNL     1      16.841  53.773   5.163  1.00  0.00     0.035 A 
HETATM   12  C14 UNL     1      17.742  54.590   4.465  1.00  0.00     0.032 A 
HETATM   13  C15 UNL     1      17.301  55.641   3.649  1.00  0.00     0.041 A 
HETATM   14  C16 UNL     1      15.937  55.888   3.492  1.00  0.00     0.091 A 
HETATM   15  C24 UNL     1      15.029  55.053   4.160  1.00  0.00     0.069 A 
HETATM   16 CL1  UNL     1      13.319  55.277   3.996  1.00  0.00    -0.081 Cl
HETATM   17  C25 UNL     1      15.477  54.002   4.972  1.00  0.00     0.056 A 
BRANCH  14  18
HETATM   18  O2  UNL     1      15.408  56.892   2.727  1.00  0.00    -0.345 OA
BRANCH  18  19
HETATM   19  C17 UNL     1      15.930  57.073   1.411  1.00  0.00     0.214 C 
BRANCH  19  20
HETATM   20  C18 UNL     1      15.035  56.373   0.415  1.00  0.00    -0.031 A 
HETATM   21  C19 UNL     1      15.576  55.562  -0.596  1.00  0.00     0.009 A 
HETATM   22  C20 UNL     1      14.748  54.943  -1.537  1.00  0.00     0.004 A 
HETATM   23  C21 UNL     1      13.368  55.134  -1.483  1.00  0.00     0.042 A 
HETATM   24  C22 UNL     1      12.830  55.943  -0.489  1.00  0.00     0.117 A 
HETATM   25  F1  UNL     1      11.505  56.136  -0.441  1.00  0.00    -0.206 F 
HETATM   26  C23 UNL     1      13.645  56.566   0.453  1.00  0.00     0.051 A 
ENDBRANCH  19  20
ENDBRANCH  18  19
ENDBRANCH  14  18
ENDBRANCH   9  11
ENDBRANCH   8   9
BRANCH   1  27
HETATM   27  C8  UNL     1      18.528  50.200   6.665  1.00  0.00    -0.055 C 
HETATM   28  C7  UNL     1      18.128  49.159   6.220  1.00  0.00    -0.043 C 
BRANCH  28  29
HETATM   29  C6  UNL     1      17.599  47.919   5.754  1.00  0.00     0.087 A 
HETATM   30  C5  UNL     1      17.142  47.764   4.455  1.00  0.00     0.039 A 
HETATM   31  C4  UNL     1      16.640  46.520   4.084  1.00  0.00     0.005 A 
HETATM   32  C3  UNL     1      16.614  45.485   5.018  1.00  0.00     0.027 A 
HETATM   33  C2  UNL     1      17.094  45.730   6.302  1.00  0.00     0.033 A 
HETATM   34  N4  UNL     1      17.585  46.940   6.686  1.00  0.00    -0.351 N 
ATOM     35  H4  UNL     1      17.927  47.102   7.633  1.00  0.00     0.166 HD
BRANCH  33  36
HETATM   36  C1  UNL     1      17.095  44.633   7.345  1.00  0.00     0.221 C 
BRANCH  36  37
HETATM   37  O1  UNL     1      15.946  44.731   8.190  1.00  0.00    -0.395 OA
HETATM   38  H1  UNL     1      15.478  45.532   7.873  1.00  0.00     0.209 HD
ENDBRANCH  36  37
ENDBRANCH  33  36
ENDBRANCH  28  29
ENDBRANCH   1  27
TORSDOF 9
ENDMDL
MODEL 7
REMARK minimizedAffinity -7.37221622
REMARK  9 active torsions:
REMARK  status: ('A' for Active; 'I' for Inactive)
REMARK    1  A    between atoms: O1_1  and  C1_2 
REMARK    2  A    between atoms: C1_2  and  C2_3 
REMARK    3  A    between atoms: C6_7  and  C7_8 
REMARK    4  A    between atoms: C8_9  and  C9_10 
REMARK    5  A    between atoms: C12_17  and  N3_18 
REMARK    6  A    between atoms: N3_18  and  C13_19 
REMARK    7  A    between atoms: C16_22  and  O2_23 
REMARK    8  A    between atoms: O2_23  and  C17_24 
REMARK    9  A    between atoms: C17_24  and  C18_25 
ROOT
HETATM    1  C9  UNL     1      18.515  51.580   7.099  1.00  0.00     0.077 A 
HETATM    2  C10 UNL     1      19.451  51.646   8.111  1.00  0.00     0.113 A 
HETATM    3  N1  UNL     1      19.972  52.797   8.576  1.00  0.00    -0.361 N 
ATOM      4  H1  UNL     1      20.667  52.821   9.323  1.00  0.00     0.166 HD
HETATM    5  C11 UNL     1      19.514  53.909   7.988  1.00  0.00     0.181 A 
HETATM    6  N2  UNL     1      18.607  53.965   7.000  1.00  0.00    -0.337 N 
ATOM      7  H2  UNL     1      18.306  54.858   6.607  1.00  0.00     0.168 HD
HETATM    8  C12 UNL     1      18.107  52.797   6.547  1.00  0.00     0.127 A 
ENDROOT
BRANCH   8   9
HETATM    9  N3  UNL     1      17.122  52.789   5.523  1.00  0.00    -0.341 N 
HETATM   10  H9  UNL     1      17.303  52.031   4.871  1.00  0.00     0.167 HD
BRANCH   9  11
HETATM   11  C13 UNL     1      16.417  53.851   4.922  1.00  0.00     0.035 A 
HETATM   12  C14 UNL     1      15.020  53.881   5.043  1.00  0.00     0.032 A 
HETATM   13  C15 UNL     1      14.258  54.932   4.515  1.00  0.00     0.041 A 
HETATM   14  C16 UNL     1      14.881  55.999   3.869  1.00  0.00     0.091 A 
HETATM   15  C24 UNL     1      16.281  55.994   3.773  1.00  0.00     0.069 A 
HETATM   16 CL1  UNL     1      17.131  57.295   3.008  1.00  0.00    -0.081 Cl
HETATM   17  C25 UNL     1      17.037  54.941   4.306  1.00  0.00     0.056 A 
BRANCH  14  18
HETATM   18  O2  UNL     1      14.227  57.066   3.314  1.00  0.00    -0.345 OA
BRANCH  18  19
HETATM   19  C17 UNL     1      14.791  57.660   2.146  1.00  0.00     0.214 C 
BRANCH  19  20
HETATM   20  C18 UNL     1      13.840  57.487   0.984  1.00  0.00    -0.031 A 
HETATM   21  C19 UNL     1      13.382  56.213   0.610  1.00  0.00     0.009 A 
HETATM   22  C20 UNL     1      12.529  56.053  -0.486  1.00  0.00     0.004 A 
HETATM   23  C21 UNL     1      12.129  57.165  -1.226  1.00  0.00     0.042 A 
HETATM   24  C22 UNL     1      12.588  58.426  -0.863  1.00  0.00     0.117 A 
HETATM   25  F1  UNL     1      12.213  59.495  -1.578  1.00  0.00    -0.206 F 
HETATM   26  C23 UNL     1      13.439  58.597   0.226  1.00  0.00     0.051 A 
ENDBRANCH  19  20
ENDBRANCH  18  19
ENDBRANCH  14  18
ENDBRANCH   9  11
ENDBRANCH   8   9
BRANCH   1  27
HETATM   27  C8  UNL     1      18.017  50.315   6.650  1.00  0.00    -0.055 C 
HETATM   28  C7  UNL     1      17.666  49.235   6.259  1.00  0.00    -0.043 C 
BRANCH  28  29
HETATM   29  C6  UNL     1      17.329  47.937   5.772  1.00  0.00     0.087 A 
HETATM   30  C5  UNL     1      16.977  47.724   4.450  1.00  0.00     0.039 A 
HETATM   31  C4  UNL     1      16.661  46.426   4.060  1.00  0.00     0.005 A 
HETATM   32  C3  UNL     1      16.710  45.396   5.000  1.00  0.00     0.027 A 
HETATM   33  C2  UNL     1      17.075  45.703   6.308  1.00  0.00     0.033 A 
HETATM   34  N4  UNL     1      17.383  46.966   6.711  1.00  0.00    -0.351 N 
ATOM     35  H4  UNL     1      17.642  47.170   7.675  1.00  0.00     0.166 HD
BRANCH  33  36
HETATM   36  C1  UNL     1      17.152  44.615   7.359  1.00  0.00     0.221 C 
BRANCH  36  37
HETATM   37  O1  UNL     1      15.986  44.622   8.187  1.00  0.00    -0.395 OA
HETATM   38  H1  UNL     1      15.457  45.379   7.858  1.00  0.00     0.209 HD
ENDBRANCH  36  37
ENDBRANCH  33  36
ENDBRANCH  28  29
ENDBRANCH   1  27
TORSDOF 9
ENDMDL
MODEL 8
REMARK minimizedAffinity -7.36152267
REMARK  9 active torsions:
REMARK  status: ('A' for Active; 'I' for Inactive)
REMARK    1  A    between atoms: O1_1  and  C1_2 
REMARK    2  A    between atoms: C1_2  and  C2_3 
REMARK    3  A    between atoms: C6_7  and  C7_8 
REMARK    4  A    between atoms: C8_9  and  C9_10 
REMARK    5  A    between atoms: C12_17  and  N3_18 
REMARK    6  A    between atoms: N3_18  and  C13_19 
REMARK    7  A    between atoms: C16_22  and  O2_23 
REMARK    8  A    between atoms: O2_23  and  C17_24 
REMARK    9  A    between atoms: C17_24  and  C18_25 
ROOT
HETATM    1  C9  UNL     1      13.974  35.351  18.756  1.00  0.00     0.077 A 
HETATM    2  C10 UNL     1      14.571  34.340  19.482  1.00  0.00     0.113 A 
HETATM    3  N1  UNL     1      15.892  34.080  19.459  1.00  0.00    -0.361 N 
ATOM      4  H1  UNL     1      16.309  33.324  20.002  1.00  0.00     0.166 HD
HETATM    5  C11 UNL     1      16.617  34.885  18.674  1.00  0.00     0.181 A 
HETATM    6  N2  UNL     1      16.148  35.896  17.928  1.00  0.00    -0.337 N 
ATOM      7  H2  UNL     1      16.772  36.467  17.356  1.00  0.00     0.168 HD
HETATM    8  C12 UNL     1      14.820  36.130  17.962  1.00  0.00     0.127 A 
ENDROOT
BRANCH   8   9
HETATM    9  N3  UNL     1      14.263  37.204  17.217  1.00  0.00    -0.341 N 
HETATM   10  H9  UNL     1      13.543  36.857  16.590  1.00  0.00     0.167 HD
BRANCH   9  11
HETATM   11  C13 UNL     1      14.853  38.394  16.744  1.00  0.00     0.035 A 
HETATM   12  C14 UNL     1      15.183  39.392  17.672  1.00  0.00     0.032 A 
HETATM   13  C15 UNL     1      15.818  40.579  17.281  1.00  0.00     0.041 A 
HETATM   14  C16 UNL     1      16.163  40.787  15.946  1.00  0.00     0.091 A 
HETATM   15  C24 UNL     1      15.867  39.778  15.016  1.00  0.00     0.069 A 
HETATM   16 CL1  UNL     1      16.285  39.950  13.344  1.00  0.00    -0.081 Cl
HETATM   17  C25 UNL     1      15.234  38.593  15.415  1.00  0.00     0.056 A 
BRANCH  14  18
HETATM   18  O2  UNL     1      16.776  41.912  15.463  1.00  0.00    -0.345 OA
BRANCH  18  19
HETATM   19  C17 UNL     1      18.160  42.095  15.756  1.00  0.00     0.214 C 
BRANCH  19  20
HETATM   20  C18 UNL     1      18.409  43.538  16.131  1.00  0.00    -0.031 A 
HETATM   21  C19 UNL     1      19.681  43.967  16.542  1.00  0.00     0.009 A 
HETATM   22  C20 UNL     1      19.900  45.296  16.921  1.00  0.00     0.004 A 
HETATM   23  C21 UNL     1      18.847  46.208  16.900  1.00  0.00     0.042 A 
HETATM   24  C22 UNL     1      17.584  45.783  16.502  1.00  0.00     0.117 A 
HETATM   25  F1  UNL     1      16.568  46.657  16.491  1.00  0.00    -0.206 F 
HETATM   26  C23 UNL     1      17.354  44.463  16.124  1.00  0.00     0.051 A 
ENDBRANCH  19  20
ENDBRANCH  18  19
ENDBRANCH  14  18
ENDBRANCH   9  11
ENDBRANCH   8   9
BRANCH   1  27
HETATM   27  C8  UNL     1      12.559  35.558  18.823  1.00  0.00    -0.055 C 
HETATM   28  C7  UNL     1      11.376  35.724  18.950  1.00  0.00    -0.043 C 
BRANCH  28  29
HETATM   29  C6  UNL     1       9.981  35.904  19.182  1.00  0.00     0.087 A 
HETATM   30  C5  UNL     1       9.130  36.365  18.190  1.00  0.00     0.039 A 
HETATM   31  C4  UNL     1       7.783  36.513  18.504  1.00  0.00     0.005 A 
HETATM   32  C3  UNL     1       7.338  36.195  19.786  1.00  0.00     0.027 A 
HETATM   33  C2  UNL     1       8.263  35.739  20.721  1.00  0.00     0.033 A 
HETATM   34  N4  UNL     1       9.586  35.592  20.436  1.00  0.00    -0.351 N 
ATOM     35  H4  UNL     1      10.249  35.261  21.137  1.00  0.00     0.166 HD
BRANCH  33  36
HETATM   36  C1  UNL     1       7.823  35.373  22.122  1.00  0.00     0.221 C 
BRANCH  36  37
HETATM   37  O1  UNL     1       6.690  36.149  22.521  1.00  0.00    -0.395 OA
HETATM   38  H1  UNL     1       6.529  36.751  21.764  1.00  0.00     0.209 HD
ENDBRANCH  36  37
ENDBRANCH  33  36
ENDBRANCH  28  29
ENDBRANCH   1  27
TORSDOF 9
ENDMDL
MODEL 9
REMARK minimizedAffinity -7.31105328
REMARK  9 active torsions:
REMARK  status: ('A' for Active; 'I' for Inactive)
REMARK    1  A    between atoms: O1_1  and  C1_2 
REMARK    2  A    between atoms: C1_2  and  C2_3 
REMARK    3  A    between atoms: C6_7  and  C7_8 
REMARK    4  A    between atoms: C8_9  and  C9_10 
REMARK    5  A    between atoms: C12_17  and  N3_18 
REMARK    6  A    between atoms: N3_18  and  C13_19 
REMARK    7  A    between atoms: C16_22  and  O2_23 
REMARK    8  A    between atoms: O2_23  and  C17_24 
REMARK    9  A    between atoms: C17_24  and  C18_25 
ROOT
HETATM    1  C9  UNL     1      13.400  58.144   2.373  1.00  0.00     0.077 A 
HETATM    2  C10 UNL     1      13.388  59.508   2.164  1.00  0.00     0.113 A 
HETATM    3  N1  UNL     1      13.225  60.415   3.145  1.00  0.00    -0.361 N 
ATOM      4  H1  UNL     1      13.216  61.419   2.965  1.00  0.00     0.166 HD
HETATM    5  C11 UNL     1      13.076  59.906   4.373  1.00  0.00     0.181 A 
HETATM    6  N2  UNL     1      13.072  58.603   4.695  1.00  0.00    -0.337 N 
ATOM      7  H2  UNL     1      12.956  58.296   5.661  1.00  0.00     0.168 HD
HETATM    8  C12 UNL     1      13.229  57.714   3.692  1.00  0.00     0.127 A 
ENDROOT
BRANCH   8   9
HETATM    9  N3  UNL     1      13.264  56.321   3.969  1.00  0.00    -0.341 N 
HETATM   10  H9  UNL     1      12.393  56.031   4.404  1.00  0.00     0.167 HD
BRANCH   9  11
HETATM   11  C13 UNL     1      14.341  55.484   4.324  1.00  0.00     0.035 A 
HETATM   12  C14 UNL     1      14.062  54.280   4.987  1.00  0.00     0.032 A 
HETATM   13  C15 UNL     1      15.076  53.374   5.326  1.00  0.00     0.041 A 
HETATM   14  C16 UNL     1      16.402  53.642   4.986  1.00  0.00     0.091 A 
HETATM   15  C24 UNL     1      16.685  54.829   4.292  1.00  0.00     0.069 A 
HETATM   16 CL1  UNL     1      18.303  55.221   3.812  1.00  0.00    -0.081 Cl
HETATM   17  C25 UNL     1      15.665  55.728   3.954  1.00  0.00     0.056 A 
BRANCH  14  18
HETATM   18  O2  UNL     1      17.463  52.828   5.278  1.00  0.00    -0.345 OA
BRANCH  18  19
HETATM   19  C17 UNL     1      17.216  51.428   5.401  1.00  0.00     0.214 C 
BRANCH  19  20
HETATM   20  C18 UNL     1      18.145  50.843   6.439  1.00  0.00    -0.031 A 
HETATM   21  C19 UNL     1      18.913  51.675   7.271  1.00  0.00     0.009 A 
HETATM   22  C20 UNL     1      19.797  51.129   8.207  1.00  0.00     0.004 A 
HETATM   23  C21 UNL     1      19.930  49.746   8.317  1.00  0.00     0.042 A 
HETATM   24  C22 UNL     1      19.177  48.921   7.489  1.00  0.00     0.117 A 
HETATM   25  F1  UNL     1      19.309  47.591   7.588  1.00  0.00    -0.206 F 
HETATM   26  C23 UNL     1      18.294  49.452   6.553  1.00  0.00     0.051 A 
ENDBRANCH  19  20
ENDBRANCH  18  19
ENDBRANCH  14  18
ENDBRANCH   9  11
ENDBRANCH   8   9
BRANCH   1  27
HETATM   27  C8  UNL     1      13.566  57.240   1.275  1.00  0.00    -0.055 C 
HETATM   28  C7  UNL     1      13.772  56.467   0.379  1.00  0.00    -0.043 C 
BRANCH  28  29
HETATM   29  C6  UNL     1      14.094  55.543  -0.659  1.00  0.00     0.087 A 
HETATM   30  C5  UNL     1      15.385  55.416  -1.146  1.00  0.00     0.039 A 
HETATM   31  C4  UNL     1      15.610  54.491  -2.161  1.00  0.00     0.005 A 
HETATM   32  C3  UNL     1      14.546  53.731  -2.645  1.00  0.00     0.027 A 
HETATM   33  C2  UNL     1      13.282  53.925  -2.096  1.00  0.00     0.033 A 
HETATM   34  N4  UNL     1      13.039  54.828  -1.107  1.00  0.00    -0.351 N 
ATOM     35  H4  UNL     1      12.104  54.958  -0.721  1.00  0.00     0.166 HD
BRANCH  33  36
HETATM   36  C1  UNL     1      12.100  53.115  -2.584  1.00  0.00     0.221 C 
BRANCH  36  37
HETATM   37  O1  UNL     1      11.329  53.856  -3.533  1.00  0.00    -0.395 OA
HETATM   38  H1  UNL     1      11.774  54.729  -3.579  1.00  0.00     0.209 HD
ENDBRANCH  36  37
ENDBRANCH  33  36
ENDBRANCH  28  29
ENDBRANCH   1  27
TORSDOF 9
ENDMDL
