MODEL 1
REMARK minimizedAffinity -7.41455078
REMARK  3 active torsions:
REMARK  status: ('A' for Active; 'I' for Inactive)
REMARK    1  A    between atoms: C5_5  and  N1_6 
REMARK    2  A    between atoms: N1_6  and  C6_7 
REMARK    3  A    between atoms: C15_21  and  O1_22 
ROOT
HETATM    1  C6  UNL     1      10.959  35.115  17.837  1.00  0.00     0.136 A 
HETATM    2  N2  UNL     1      10.171  35.687  16.974  1.00  0.00    -0.336 N 
ATOM      3  H2  UNL     1      10.498  35.855  16.022  1.00  0.00     0.168 HD
HETATM    4  C7  UNL     1       8.907  36.066  17.335  1.00  0.00     0.199 A 
HETATM    5  N3  UNL     1       8.350  35.914  18.493  1.00  0.00    -0.289 N 
ATOM      6  H3  UNL     1       7.396  36.210  18.697  1.00  0.00     0.188 HD
HETATM    7  N4  UNL     1       9.148  35.330  19.395  1.00  0.00    -0.262 N 
HETATM    8  C8  UNL     1       8.799  35.060  20.686  1.00  0.00     0.124 A 
HETATM    9  C9  UNL     1       9.879  34.488  21.328  1.00  0.00    -0.036 A 
HETATM   10  C10 UNL     1       9.918  34.055  22.751  1.00  0.00     0.050 C 
HETATM   11  C11 UNL     1      10.939  34.408  20.362  1.00  0.00    -0.022 A 
HETATM   12  C12 UNL     1      12.305  33.880  20.629  1.00  0.00     0.051 C 
HETATM   13  C13 UNL     1      10.432  34.921  19.170  1.00  0.00     0.106 A 
ENDROOT
BRANCH   1  14
HETATM   14  N1  UNL     1      12.226  34.681  17.499  1.00  0.00    -0.340 N 
HETATM   15  H6  UNL     1      12.377  33.686  17.533  1.00  0.00     0.167 HD
BRANCH  14  16
HETATM   16  C5  UNL     1      13.358  35.411  17.086  1.00  0.00     0.036 A 
HETATM   17  C4  UNL     1      14.673  35.050  17.390  1.00  0.00     0.030 A 
HETATM   18  C3  UNL     1      15.759  35.829  16.969  1.00  0.00     0.012 A 
HETATM   19  C2  UNL     1      15.554  37.000  16.233  1.00  0.00    -0.029 A 
HETATM   20  C1  UNL     1      16.718  37.834  15.787  1.00  0.00     0.051 C 
HETATM   21  C15 UNL     1      14.243  37.371  15.936  1.00  0.00     0.073 A 
HETATM   22  C14 UNL     1      13.160  36.594  16.354  1.00  0.00     0.066 A 
BRANCH  21  23
HETATM   23  O1  UNL     1      14.037  38.521  15.225  1.00  0.00    -0.360 OA
HETATM   24  H16 UNL     1      13.083  38.669  15.129  1.00  0.00     0.217 HD
ENDBRANCH  21  23
ENDBRANCH  14  16
ENDBRANCH   1  14
TORSDOF 3
ENDMDL
MODEL 2
REMARK minimizedAffinity -6.98698187
REMARK  3 active torsions:
REMARK  status: ('A' for Active; 'I' for Inactive)
REMARK    1  A    between atoms: C5_5  and  N1_6 
REMARK    2  A    between atoms: N1_6  and  C6_7 
REMARK    3  A    between atoms: C15_21  and  O1_22 
ROOT
HETATM    1  C6  UNL     1      10.682  35.095  17.980  1.00  0.00     0.136 A 
HETATM    2  N2  UNL     1       9.921  35.769  17.166  1.00  0.00    -0.336 N 
ATOM      3  H2  UNL     1      10.228  35.936  16.208  1.00  0.00     0.168 HD
HETATM    4  C7  UNL     1       8.714  36.254  17.588  1.00  0.00     0.199 A 
HETATM    5  N3  UNL     1       8.187  36.117  18.761  1.00  0.00    -0.289 N 
ATOM      6  H3  UNL     1       7.274  36.496  19.012  1.00  0.00     0.188 HD
HETATM    7  N4  UNL     1       8.957  35.430  19.614  1.00  0.00    -0.262 N 
HETATM    8  C8  UNL     1       8.631  35.151  20.909  1.00  0.00     0.124 A 
HETATM    9  C9  UNL     1       9.673  34.458  21.491  1.00  0.00    -0.036 A 
HETATM   10  C10 UNL     1       9.722  33.977  22.898  1.00  0.00     0.050 C 
HETATM   11  C11 UNL     1      10.684  34.310  20.482  1.00  0.00    -0.022 A 
HETATM   12  C12 UNL     1      12.002  33.645  20.679  1.00  0.00     0.051 C 
HETATM   13  C13 UNL     1      10.187  34.908  19.326  1.00  0.00     0.106 A 
ENDROOT
BRANCH   1  14
HETATM   14  N1  UNL     1      11.887  34.554  17.580  1.00  0.00    -0.340 N 
HETATM   15  H6  UNL     1      11.854  33.612  17.227  1.00  0.00     0.167 HD
BRANCH  14  16
HETATM   16  C5  UNL     1      13.177  35.119  17.564  1.00  0.00     0.036 A 
HETATM   17  C4  UNL     1      13.438  36.464  17.282  1.00  0.00     0.030 A 
HETATM   18  C3  UNL     1      14.746  36.964  17.262  1.00  0.00     0.012 A 
HETATM   19  C2  UNL     1      15.835  36.125  17.516  1.00  0.00    -0.029 A 
HETATM   20  C1  UNL     1      17.235  36.663  17.488  1.00  0.00     0.051 C 
HETATM   21  C15 UNL     1      15.583  34.780  17.786  1.00  0.00     0.073 A 
HETATM   22  C14 UNL     1      14.278  34.281  17.810  1.00  0.00     0.066 A 
BRANCH  21  23
HETATM   23  O1  UNL     1      16.645  33.954  18.025  1.00  0.00    -0.360 OA
HETATM   24  H16 UNL     1      16.321  33.049  18.157  1.00  0.00     0.217 HD
ENDBRANCH  21  23
ENDBRANCH  14  16
ENDBRANCH   1  14
TORSDOF 3
ENDMDL
MODEL 3
REMARK minimizedAffinity -6.81926155
REMARK  3 active torsions:
REMARK  status: ('A' for Active; 'I' for Inactive)
REMARK    1  A    between atoms: C5_5  and  N1_6 
REMARK    2  A    between atoms: N1_6  and  C6_7 
REMARK    3  A    between atoms: C15_21  and  O1_22 
ROOT
HETATM    1  C6  UNL     1      12.969  35.472  17.152  1.00  0.00     0.136 A 
HETATM    2  N2  UNL     1      12.518  36.159  16.142  1.00  0.00    -0.336 N 
ATOM      3  H2  UNL     1      11.536  36.085  15.878  1.00  0.00     0.168 HD
HETATM    4  C7  UNL     1      13.353  36.979  15.434  1.00  0.00     0.199 A 
HETATM    5  N3  UNL     1      14.611  37.183  15.652  1.00  0.00    -0.289 N 
ATOM      6  H3  UNL     1      15.180  37.818  15.092  1.00  0.00     0.188 HD
HETATM    7  N4  UNL     1      15.095  36.482  16.685  1.00  0.00    -0.262 N 
HETATM    8  C8  UNL     1      16.388  36.518  17.116  1.00  0.00     0.124 A 
HETATM    9  C9  UNL     1      16.528  35.645  18.176  1.00  0.00    -0.036 A 
HETATM   10  C10 UNL     1      17.785  35.379  18.926  1.00  0.00     0.050 C 
HETATM   11  C11 UNL     1      15.239  35.051  18.394  1.00  0.00    -0.022 A 
HETATM   12  C12 UNL     1      14.932  34.023  19.427  1.00  0.00     0.051 C 
HETATM   13  C13 UNL     1      14.374  35.617  17.460  1.00  0.00     0.106 A 
ENDROOT
BRANCH   1  14
HETATM   14  N1  UNL     1      12.148  34.666  17.916  1.00  0.00    -0.340 N 
HETATM   15  H6  UNL     1      12.432  33.704  18.005  1.00  0.00     0.167 HD
BRANCH  14  16
HETATM   16  C5  UNL     1      10.970  34.977  18.622  1.00  0.00     0.036 A 
HETATM   17  C4  UNL     1      10.632  34.424  19.861  1.00  0.00     0.030 A 
HETATM   18  C3  UNL     1       9.435  34.757  20.506  1.00  0.00     0.012 A 
HETATM   19  C2  UNL     1       8.533  35.652  19.921  1.00  0.00    -0.029 A 
HETATM   20  C1  UNL     1       7.249  36.003  20.612  1.00  0.00     0.051 C 
HETATM   21  C15 UNL     1       8.859  36.198  18.679  1.00  0.00     0.073 A 
HETATM   22  C14 UNL     1      10.055  35.868  18.036  1.00  0.00     0.066 A 
BRANCH  21  23
HETATM   23  O1  UNL     1       7.976  37.066  18.098  1.00  0.00    -0.360 OA
HETATM   24  H16 UNL     1       8.317  37.330  17.229  1.00  0.00     0.217 HD
ENDBRANCH  21  23
ENDBRANCH  14  16
ENDBRANCH   1  14
TORSDOF 3
ENDMDL
MODEL 4
REMARK minimizedAffinity -6.78235054
REMARK  3 active torsions:
REMARK  status: ('A' for Active; 'I' for Inactive)
REMARK    1  A    between atoms: C5_5  and  N1_6 
REMARK    2  A    between atoms: N1_6  and  C6_7 
REMARK    3  A    between atoms: C15_21  and  O1_22 
ROOT
HETATM    1  C6  UNL     1      12.163  34.571  18.719  1.00  0.00     0.136 A 
HETATM    2  N2  UNL     1      12.953  34.017  19.592  1.00  0.00    -0.336 N 
ATOM      3  H2  UNL     1      13.874  33.685  19.304  1.00  0.00     0.168 HD
HETATM    4  C7  UNL     1      12.557  33.876  20.894  1.00  0.00     0.199 A 
HETATM    5  N3  UNL     1      11.432  34.253  21.410  1.00  0.00    -0.289 N 
ATOM      6  H3  UNL     1      11.199  34.128  22.395  1.00  0.00     0.188 HD
HETATM    7  N4  UNL     1      10.604  34.821  20.525  1.00  0.00    -0.262 N 
HETATM    8  C8  UNL     1       9.360  35.300  20.816  1.00  0.00     0.124 A 
HETATM    9  C9  UNL     1       8.786  35.782  19.657  1.00  0.00    -0.036 A 
HETATM   10  C10 UNL     1       7.429  36.379  19.539  1.00  0.00     0.050 C 
HETATM   11  C11 UNL     1       9.747  35.583  18.608  1.00  0.00    -0.022 A 
HETATM   12  C12 UNL     1       9.538  35.935  17.175  1.00  0.00     0.051 C 
HETATM   13  C13 UNL     1      10.869  35.005  19.198  1.00  0.00     0.106 A 
ENDROOT
BRANCH   1  14
HETATM   14  N1  UNL     1      12.543  34.768  17.406  1.00  0.00    -0.340 N 
HETATM   15  H6  UNL     1      11.969  34.325  16.708  1.00  0.00     0.167 HD
BRANCH  14  16
HETATM   16  C5  UNL     1      13.610  35.517  16.871  1.00  0.00     0.036 A 
HETATM   17  C4  UNL     1      14.953  35.139  16.962  1.00  0.00     0.030 A 
HETATM   18  C3  UNL     1      15.972  35.936  16.427  1.00  0.00     0.012 A 
HETATM   19  C2  UNL     1      15.674  37.143  15.789  1.00  0.00    -0.029 A 
HETATM   20  C1  UNL     1      16.768  37.998  15.220  1.00  0.00     0.051 C 
HETATM   21  C15 UNL     1      14.337  37.532  15.704  1.00  0.00     0.073 A 
HETATM   22  C14 UNL     1      13.319  36.736  16.236  1.00  0.00     0.066 A 
BRANCH  21  23
HETATM   23  O1  UNL     1      14.040  38.717  15.090  1.00  0.00    -0.360 OA
HETATM   24  H16 UNL     1      13.084  38.871  15.142  1.00  0.00     0.217 HD
ENDBRANCH  21  23
ENDBRANCH  14  16
ENDBRANCH   1  14
TORSDOF 3
ENDMDL
MODEL 5
REMARK minimizedAffinity -6.76678228
REMARK  3 active torsions:
REMARK  status: ('A' for Active; 'I' for Inactive)
REMARK    1  A    between atoms: C5_5  and  N1_6 
REMARK    2  A    between atoms: N1_6  and  C6_7 
REMARK    3  A    between atoms: C15_21  and  O1_22 
ROOT
HETATM    1  C6  UNL     1       9.815  36.688  19.761  1.00  0.00     0.136 A 
HETATM    2  N2  UNL     1       9.123  37.046  18.719  1.00  0.00    -0.336 N 
ATOM      3  H2  UNL     1       9.567  37.591  17.979  1.00  0.00     0.168 HD
HETATM    4  C7  UNL     1       7.805  36.697  18.607  1.00  0.00     0.199 A 
HETATM    5  N3  UNL     1       7.110  36.006  19.451  1.00  0.00    -0.289 N 
ATOM      6  H3  UNL     1       6.128  35.769  19.306  1.00  0.00     0.188 HD
HETATM    7  N4  UNL     1       7.803  35.631  20.533  1.00  0.00    -0.262 N 
HETATM    8  C8  UNL     1       7.300  34.899  21.568  1.00  0.00     0.124 A 
HETATM    9  C9  UNL     1       8.287  34.732  22.517  1.00  0.00    -0.036 A 
HETATM   10  C10 UNL     1       8.144  34.003  23.806  1.00  0.00     0.050 C 
HETATM   11  C11 UNL     1       9.455  35.404  22.020  1.00  0.00    -0.022 A 
HETATM   12  C12 UNL     1      10.758  35.505  22.735  1.00  0.00     0.051 C 
HETATM   13  C13 UNL     1       9.115  35.928  20.774  1.00  0.00     0.106 A 
ENDROOT
BRANCH   1  14
HETATM   14  N1  UNL     1      11.157  36.985  19.890  1.00  0.00    -0.340 N 
HETATM   15  H6  UNL     1      11.375  37.861  20.334  1.00  0.00     0.167 HD
BRANCH  14  16
HETATM   16  C5  UNL     1      12.293  36.242  19.514  1.00  0.00     0.036 A 
HETATM   17  C4  UNL     1      13.594  36.541  19.928  1.00  0.00     0.030 A 
HETATM   18  C3  UNL     1      14.688  35.777  19.504  1.00  0.00     0.012 A 
HETATM   19  C2  UNL     1      14.509  34.690  18.643  1.00  0.00    -0.029 A 
HETATM   20  C1  UNL     1      15.683  33.876  18.186  1.00  0.00     0.051 C 
HETATM   21  C15 UNL     1      13.214  34.393  18.217  1.00  0.00     0.073 A 
HETATM   22  C14 UNL     1      12.122  35.154  18.642  1.00  0.00     0.066 A 
BRANCH  21  23
HETATM   23  O1  UNL     1      13.034  33.337  17.367  1.00  0.00    -0.360 OA
HETATM   24  H16 UNL     1      12.096  33.277  17.129  1.00  0.00     0.217 HD
ENDBRANCH  21  23
ENDBRANCH  14  16
ENDBRANCH   1  14
TORSDOF 3
ENDMDL
MODEL 6
REMARK minimizedAffinity -6.72901821
REMARK  3 active torsions:
REMARK  status: ('A' for Active; 'I' for Inactive)
REMARK    1  A    between atoms: C5_5  and  N1_6 
REMARK    2  A    between atoms: N1_6  and  C6_7 
REMARK    3  A    between atoms: C15_21  and  O1_22 
ROOT
HETATM    1  C6  UNL     1      13.681  35.687  19.572  1.00  0.00     0.136 A 
HETATM    2  N2  UNL     1      13.886  35.002  20.660  1.00  0.00    -0.336 N 
ATOM      3  H2  UNL     1      13.277  35.139  21.467  1.00  0.00     0.168 HD
HETATM    4  C7  UNL     1      14.912  34.101  20.729  1.00  0.00     0.199 A 
HETATM    5  N3  UNL     1      15.757  33.811  19.793  1.00  0.00    -0.289 N 
ATOM      6  H3  UNL     1      16.498  33.119  19.903  1.00  0.00     0.188 HD
HETATM    7  N4  UNL     1      15.565  34.509  18.667  1.00  0.00    -0.262 N 
HETATM    8  C8  UNL     1      16.321  34.392  17.538  1.00  0.00     0.124 A 
HETATM    9  C9  UNL     1      15.856  35.286  16.596  1.00  0.00    -0.036 A 
HETATM   10  C10 UNL     1      16.413  35.485  15.231  1.00  0.00     0.050 C 
HETATM   11  C11 UNL     1      14.751  35.981  17.197  1.00  0.00    -0.022 A 
HETATM   12  C12 UNL     1      13.960  37.062  16.545  1.00  0.00     0.051 C 
HETATM   13  C13 UNL     1      14.592  35.449  18.475  1.00  0.00     0.106 A 
ENDROOT
BRANCH   1  14
HETATM   14  N1  UNL     1      12.631  36.575  19.451  1.00  0.00    -0.340 N 
HETATM   15  H6  UNL     1      12.880  37.546  19.368  1.00  0.00     0.167 HD
BRANCH  14  16
HETATM   16  C5  UNL     1      11.243  36.341  19.401  1.00  0.00     0.036 A 
HETATM   17  C4  UNL     1      10.402  36.390  20.518  1.00  0.00     0.030 A 
HETATM   18  C3  UNL     1       9.031  36.127  20.410  1.00  0.00     0.012 A 
HETATM   19  C2  UNL     1       8.462  35.799  19.176  1.00  0.00    -0.029 A 
HETATM   20  C1  UNL     1       6.993  35.514  19.064  1.00  0.00     0.051 C 
HETATM   21  C15 UNL     1       9.297  35.737  18.060  1.00  0.00     0.073 A 
HETATM   22  C14 UNL     1      10.665  36.001  18.167  1.00  0.00     0.066 A 
BRANCH  21  23
HETATM   23  O1  UNL     1       8.747  35.407  16.853  1.00  0.00    -0.360 OA
HETATM   24  H16 UNL     1       9.449  35.365  16.184  1.00  0.00     0.217 HD
ENDBRANCH  21  23
ENDBRANCH  14  16
ENDBRANCH   1  14
TORSDOF 3
ENDMDL
MODEL 7
REMARK minimizedAffinity -6.68703175
REMARK  3 active torsions:
REMARK  status: ('A' for Active; 'I' for Inactive)
REMARK    1  A    between atoms: C5_5  and  N1_6 
REMARK    2  A    between atoms: N1_6  and  C6_7 
REMARK    3  A    between atoms: C15_21  and  O1_22 
ROOT
HETATM    1  C6  UNL     1      11.600  34.647  18.964  1.00  0.00     0.136 A 
HETATM    2  N2  UNL     1      12.369  33.954  19.753  1.00  0.00    -0.336 N 
ATOM      3  H2  UNL     1      13.333  33.764  19.481  1.00  0.00     0.168 HD
HETATM    4  C7  UNL     1      11.892  33.480  20.944  1.00  0.00     0.199 A 
HETATM    5  N3  UNL     1      10.704  33.645  21.428  1.00  0.00    -0.289 N 
ATOM      6  H3  UNL     1      10.411  33.273  22.331  1.00  0.00     0.188 HD
HETATM    7  N4  UNL     1       9.896  34.352  20.628  1.00  0.00    -0.262 N 
HETATM    8  C8  UNL     1       8.598  34.662  20.907  1.00  0.00     0.124 A 
HETATM    9  C9  UNL     1       8.071  35.369  19.845  1.00  0.00    -0.036 A 
HETATM   10  C10 UNL     1       6.679  35.884  19.745  1.00  0.00     0.050 C 
HETATM   11  C11 UNL     1       9.119  35.492  18.871  1.00  0.00    -0.022 A 
HETATM   12  C12 UNL     1       8.986  36.162  17.547  1.00  0.00     0.051 C 
HETATM   13  C13 UNL     1      10.241  34.866  19.410  1.00  0.00     0.106 A 
ENDROOT
BRANCH   1  14
HETATM   14  N1  UNL     1      12.057  35.178  17.774  1.00  0.00    -0.340 N 
HETATM   15  H6  UNL     1      11.351  35.505  17.135  1.00  0.00     0.167 HD
BRANCH  14  16
HETATM   16  C5  UNL     1      13.372  35.361  17.305  1.00  0.00     0.036 A 
HETATM   17  C4  UNL     1      13.723  36.258  16.291  1.00  0.00     0.030 A 
HETATM   18  C3  UNL     1      15.047  36.381  15.853  1.00  0.00     0.012 A 
HETATM   19  C2  UNL     1      16.061  35.600  16.416  1.00  0.00    -0.029 A 
HETATM   20  C1  UNL     1      17.478  35.731  15.941  1.00  0.00     0.051 C 
HETATM   21  C15 UNL     1      15.716  34.696  17.420  1.00  0.00     0.073 A 
HETATM   22  C14 UNL     1      14.396  34.574  17.860  1.00  0.00     0.066 A 
BRANCH  21  23
HETATM   23  O1  UNL     1      16.702  33.923  17.966  1.00  0.00    -0.360 OA
HETATM   24  H16 UNL     1      16.310  33.320  18.618  1.00  0.00     0.217 HD
ENDBRANCH  21  23
ENDBRANCH  14  16
ENDBRANCH   1  14
TORSDOF 3
ENDMDL
MODEL 8
REMARK minimizedAffinity -6.59370613
REMARK  3 active torsions:
REMARK  status: ('A' for Active; 'I' for Inactive)
REMARK    1  A    between atoms: C5_5  and  N1_6 
REMARK    2  A    between atoms: N1_6  and  C6_7 
REMARK    3  A    between atoms: C15_21  and  O1_22 
ROOT
HETATM    1  C6  UNL     1      11.536  36.081  19.951  1.00  0.00     0.136 A 
HETATM    2  N2  UNL     1      12.225  35.911  21.042  1.00  0.00    -0.336 N 
ATOM      3  H2  UNL     1      13.225  36.111  21.047  1.00  0.00     0.168 HD
HETATM    4  C7  UNL     1      11.616  35.467  22.184  1.00  0.00     0.199 A 
HETATM    5  N3  UNL     1      10.364  35.181  22.337  1.00  0.00    -0.289 N 
ATOM      6  H3  UNL     1       9.966  34.863  23.220  1.00  0.00     0.188 HD
HETATM    7  N4  UNL     1       9.639  35.345  21.223  1.00  0.00    -0.262 N 
HETATM    8  C8  UNL     1       8.300  35.110  21.121  1.00  0.00     0.124 A 
HETATM    9  C9  UNL     1       7.902  35.353  19.822  1.00  0.00    -0.036 A 
HETATM   10  C10 UNL     1       6.521  35.204  19.290  1.00  0.00     0.050 C 
HETATM   11  C11 UNL     1       9.076  35.762  19.102  1.00  0.00    -0.022 A 
HETATM   12  C12 UNL     1       9.119  36.100  17.651  1.00  0.00     0.051 C 
HETATM   13  C13 UNL     1      10.126  35.765  20.017  1.00  0.00     0.106 A 
ENDROOT
BRANCH   1  14
HETATM   14  N1  UNL     1      12.107  36.567  18.791  1.00  0.00    -0.340 N 
HETATM   15  H6  UNL     1      11.612  37.315  18.335  1.00  0.00     0.167 HD
BRANCH  14  16
HETATM   16  C5  UNL     1      13.300  36.197  18.140  1.00  0.00     0.036 A 
HETATM   17  C4  UNL     1      14.516  35.989  18.796  1.00  0.00     0.030 A 
HETATM   18  C3  UNL     1      15.675  35.641  18.091  1.00  0.00     0.012 A 
HETATM   19  C2  UNL     1      15.649  35.500  16.701  1.00  0.00    -0.029 A 
HETATM   20  C1  UNL     1      16.893  35.133  15.947  1.00  0.00     0.051 C 
HETATM   21  C15 UNL     1      14.441  35.718  16.038  1.00  0.00     0.073 A 
HETATM   22  C14 UNL     1      13.284  36.062  16.741  1.00  0.00     0.066 A 
BRANCH  21  23
HETATM   23  O1  UNL     1      14.413  35.591  14.677  1.00  0.00    -0.360 OA
HETATM   24  H16 UNL     1      13.523  35.809  14.356  1.00  0.00     0.217 HD
ENDBRANCH  21  23
ENDBRANCH  14  16
ENDBRANCH   1  14
TORSDOF 3
ENDMDL
MODEL 9
REMARK minimizedAffinity -6.4929328
REMARK  3 active torsions:
REMARK  status: ('A' for Active; 'I' for Inactive)
REMARK    1  A    between atoms: C5_5  and  N1_6 
REMARK    2  A    between atoms: N1_6  and  C6_7 
REMARK    3  A    between atoms: C15_21  and  O1_22 
ROOT
HETATM    1  C6  UNL     1      14.904  35.942  15.611  1.00  0.00     0.136 A 
HETATM    2  N2  UNL     1      13.833  36.435  15.060  1.00  0.00    -0.336 N 
ATOM      3  H2  UNL     1      13.883  36.834  14.122  1.00  0.00     0.168 HD
HETATM    4  C7  UNL     1      12.640  36.422  15.729  1.00  0.00     0.199 A 
HETATM    5  N3  UNL     1      12.417  35.947  16.911  1.00  0.00    -0.289 N 
ATOM      6  H3  UNL     1      11.498  35.957  17.354  1.00  0.00     0.188 HD
HETATM    7  N4  UNL     1      13.508  35.439  17.497  1.00  0.00    -0.262 N 
HETATM    8  C8  UNL     1      13.539  34.880  18.741  1.00  0.00     0.124 A 
HETATM    9  C9  UNL     1      14.834  34.498  19.026  1.00  0.00    -0.036 A 
HETATM   10  C10 UNL     1      15.297  33.859  20.287  1.00  0.00     0.050 C 
HETATM   11  C11 UNL     1      15.628  34.846  17.880  1.00  0.00    -0.022 A 
HETATM   12  C12 UNL     1      17.098  34.637  17.760  1.00  0.00     0.051 C 
HETATM   13  C13 UNL     1      14.758  35.406  16.947  1.00  0.00     0.106 A 
ENDROOT
BRANCH   1  14
HETATM   14  N1  UNL     1      16.116  35.900  14.951  1.00  0.00    -0.340 N 
HETATM   15  H6  UNL     1      16.767  36.634  15.174  1.00  0.00     0.167 HD
BRANCH  14  16
HETATM   16  C5  UNL     1      16.610  34.970  14.015  1.00  0.00     0.036 A 
HETATM   17  C4  UNL     1      15.935  34.604  12.847  1.00  0.00     0.030 A 
HETATM   18  C3  UNL     1      16.468  33.658  11.963  1.00  0.00     0.012 A 
HETATM   19  C2  UNL     1      17.695  33.042  12.231  1.00  0.00    -0.029 A 
HETATM   20  C1  UNL     1      18.261  32.025  11.285  1.00  0.00     0.051 C 
HETATM   21  C15 UNL     1      18.367  33.394  13.401  1.00  0.00     0.073 A 
HETATM   22  C14 UNL     1      17.838  34.341  14.282  1.00  0.00     0.066 A 
BRANCH  21  23
HETATM   23  O1  UNL     1      19.562  32.788  13.672  1.00  0.00    -0.360 OA
HETATM   24  H16 UNL     1      19.890  33.101  14.530  1.00  0.00     0.217 HD
ENDBRANCH  21  23
ENDBRANCH  14  16
ENDBRANCH   1  14
TORSDOF 3
ENDMDL
