MODEL 1
REMARK minimizedAffinity -7.42804289
REMARK  3 active torsions:
REMARK  status: ('A' for Active; 'I' for Inactive)
REMARK    1  A    between atoms: N1_1  and  C1_2 
REMARK    2  A    between atoms: C6_11  and  N4_12 
REMARK    3  A    between atoms: N4_12  and  C7_13 
ROOT
HETATM    1  C1  UNL     1       8.936  35.955  17.822  1.00  0.00     0.006 A 
HETATM    2  C2  UNL     1       7.824  36.496  18.455  1.00  0.00     0.025 A 
HETATM    3  C3  UNL     1       7.644  36.335  19.833  1.00  0.00     0.032 A 
HETATM    4  C4  UNL     1       8.527  35.596  20.606  1.00  0.00     0.047 A 
HETATM    5  N2  UNL     1       8.298  35.494  21.917  1.00  0.00    -0.352 N 
ATOM      6  H2  UNL     1       7.499  35.950  22.359  1.00  0.00     0.166 HD
HETATM    7  C5  UNL     1       9.168  34.764  22.621  1.00  0.00     0.182 A 
HETATM    8  N3  UNL     1      10.232  34.118  22.136  1.00  0.00    -0.338 N 
ATOM      9  H3  UNL     1      10.851  33.579  22.742  1.00  0.00     0.168 HD
HETATM   10  C6  UNL     1      10.449  34.212  20.812  1.00  0.00     0.119 A 
HETATM   11  C16 UNL     1       9.614  34.978  19.973  1.00  0.00     0.036 A 
HETATM   12  C17 UNL     1       9.798  35.158  18.576  1.00  0.00     0.040 A 
ENDROOT
BRANCH  10  13
HETATM   13  N4  UNL     1      11.539  33.507  20.230  1.00  0.00    -0.342 N 
HETATM   14  H6  UNL     1      11.576  32.580  20.639  1.00  0.00     0.167 HD
BRANCH  13  15
HETATM   15  C7  UNL     1      12.837  33.983  19.928  1.00  0.00     0.034 A 
HETATM   16  C8  UNL     1      13.393  33.894  18.636  1.00  0.00     0.030 A 
HETATM   17  C9  UNL     1      14.708  34.300  18.371  1.00  0.00     0.010 A 
HETATM   18  C10 UNL     1      15.469  34.784  19.417  1.00  0.00    -0.052 A 
HETATM   19  C11 UNL     1      14.949  34.848  20.710  1.00  0.00    -0.050 A 
HETATM   20  C15 UNL     1      16.896  35.234  19.392  1.00  0.00     0.039 C 
HETATM   21  C12 UNL     1      13.652  34.436  20.981  1.00  0.00     0.037 A 
HETATM   22  C13 UNL     1      15.980  35.342  21.676  1.00  0.00     0.039 C 
HETATM   23  C14 UNL     1      16.992  35.994  20.723  1.00  0.00     0.009 C 
ENDBRANCH  13  15
ENDBRANCH  10  13
BRANCH   1  24
HETATM   24  N1  UNL     1       9.065  36.020  16.433  1.00  0.00    -0.303 NA
HETATM   25  H1  UNL     1       8.610  36.825  16.012  1.00  0.00     0.124 HD
HETATM   26  H2  UNL     1      10.016  35.902  16.096  1.00  0.00     0.124 HD
ENDBRANCH   1  24
TORSDOF 3
ENDMDL
MODEL 2
REMARK minimizedAffinity -7.36681557
REMARK  3 active torsions:
REMARK  status: ('A' for Active; 'I' for Inactive)
REMARK    1  A    between atoms: N1_1  and  C1_2 
REMARK    2  A    between atoms: C6_11  and  N4_12 
REMARK    3  A    between atoms: N4_12  and  C7_13 
ROOT
HETATM    1  C1  UNL     1      14.296  36.480  20.516  1.00  0.00     0.006 A 
HETATM    2  C2  UNL     1      15.359  37.276  20.104  1.00  0.00     0.025 A 
HETATM    3  C3  UNL     1      15.470  37.672  18.767  1.00  0.00     0.032 A 
HETATM    4  C4  UNL     1      14.569  37.252  17.800  1.00  0.00     0.047 A 
HETATM    5  N2  UNL     1      14.732  37.679  16.546  1.00  0.00    -0.352 N 
ATOM      6  H2  UNL     1      15.493  38.308  16.288  1.00  0.00     0.166 HD
HETATM    7  C5  UNL     1      13.847  37.241  15.645  1.00  0.00     0.182 A 
HETATM    8  N3  UNL     1      12.829  36.408  15.878  1.00  0.00    -0.338 N 
ATOM      9  H3  UNL     1      12.194  36.119  15.134  1.00  0.00     0.168 HD
HETATM   10  C6  UNL     1      12.679  35.969  17.141  1.00  0.00     0.119 A 
HETATM   11  C16 UNL     1      13.535  36.387  18.181  1.00  0.00     0.036 A 
HETATM   12  C17 UNL     1      13.420  36.000  19.543  1.00  0.00     0.040 A 
ENDROOT
BRANCH  10  13
HETATM   13  N4  UNL     1      11.642  35.044  17.442  1.00  0.00    -0.342 N 
HETATM   14  H6  UNL     1      11.494  34.454  16.630  1.00  0.00     0.167 HD
BRANCH  13  15
HETATM   15  C7  UNL     1      10.428  35.273  18.135  1.00  0.00     0.034 A 
HETATM   16  C8  UNL     1       9.406  36.092  17.616  1.00  0.00     0.030 A 
HETATM   17  C9  UNL     1       8.244  36.370  18.348  1.00  0.00     0.010 A 
HETATM   18  C10 UNL     1       8.119  35.830  19.613  1.00  0.00    -0.052 A 
HETATM   19  C11 UNL     1       9.135  35.044  20.158  1.00  0.00    -0.050 A 
HETATM   20  C15 UNL     1       7.003  36.016  20.591  1.00  0.00     0.039 C 
HETATM   21  C12 UNL     1      10.294  34.776  19.444  1.00  0.00     0.037 A 
HETATM   22  C13 UNL     1       8.799  34.634  21.557  1.00  0.00     0.039 C 
HETATM   23  C14 UNL     1       7.283  34.875  21.581  1.00  0.00     0.009 C 
ENDBRANCH  13  15
ENDBRANCH  10  13
BRANCH   1  24
HETATM   24  N1  UNL     1      14.239  35.994  21.824  1.00  0.00    -0.303 NA
HETATM   25  H1  UNL     1      14.692  36.592  22.509  1.00  0.00     0.124 HD
HETATM   26  H2  UNL     1      13.311  35.710  22.123  1.00  0.00     0.124 HD
ENDBRANCH   1  24
TORSDOF 3
ENDMDL
MODEL 3
REMARK minimizedAffinity -7.32914495
REMARK  3 active torsions:
REMARK  status: ('A' for Active; 'I' for Inactive)
REMARK    1  A    between atoms: N1_1  and  C1_2 
REMARK    2  A    between atoms: C6_11  and  N4_12 
REMARK    3  A    between atoms: N4_12  and  C7_13 
ROOT
HETATM    1  C1  UNL     1       9.187  35.936  17.719  1.00  0.00     0.006 A 
HETATM    2  C2  UNL     1       8.211  36.452  18.563  1.00  0.00     0.025 A 
HETATM    3  C3  UNL     1       8.364  36.379  19.951  1.00  0.00     0.032 A 
HETATM    4  C4  UNL     1       9.453  35.751  20.537  1.00  0.00     0.047 A 
HETATM    5  N2  UNL     1       9.537  35.729  21.870  1.00  0.00    -0.352 N 
ATOM      6  H2  UNL     1       8.829  36.166  22.459  1.00  0.00     0.166 HD
HETATM    7  C5  UNL     1      10.598  35.104  22.391  1.00  0.00     0.182 A 
HETATM    8  N3  UNL     1      11.568  34.491  21.708  1.00  0.00    -0.338 N 
ATOM      9  H3  UNL     1      12.348  34.035  22.182  1.00  0.00     0.168 HD
HETATM   10  C6  UNL     1      11.470  34.504  20.366  1.00  0.00     0.119 A 
HETATM   11  C16 UNL     1      10.409  35.156  19.704  1.00  0.00     0.036 A 
HETATM   12  C17 UNL     1      10.255  35.247  18.294  1.00  0.00     0.040 A 
ENDROOT
BRANCH  10  13
HETATM   13  N4  UNL     1      12.447  33.826  19.586  1.00  0.00    -0.342 N 
HETATM   14  H6  UNL     1      12.287  32.828  19.669  1.00  0.00     0.167 HD
BRANCH  13  15
HETATM   15  C7  UNL     1      13.828  34.112  19.459  1.00  0.00     0.034 A 
HETATM   16  C8  UNL     1      14.655  34.352  20.574  1.00  0.00     0.030 A 
HETATM   17  C9  UNL     1      16.002  34.709  20.427  1.00  0.00     0.010 A 
HETATM   18  C10 UNL     1      16.512  34.839  19.150  1.00  0.00    -0.052 A 
HETATM   19  C11 UNL     1      15.700  34.640  18.033  1.00  0.00    -0.050 A 
HETATM   20  C15 UNL     1      17.892  35.247  18.743  1.00  0.00     0.039 C 
HETATM   21  C12 UNL     1      14.362  34.299  18.171  1.00  0.00     0.037 A 
HETATM   22  C13 UNL     1      16.458  34.902  16.770  1.00  0.00     0.039 C 
HETATM   23  C14 UNL     1      17.908  34.814  17.269  1.00  0.00     0.009 C 
ENDBRANCH  13  15
ENDBRANCH  10  13
BRANCH   1  24
HETATM   24  N1  UNL     1       8.990  35.909  16.336  1.00  0.00    -0.303 NA
HETATM   25  H1  UNL     1       8.392  36.654  15.989  1.00  0.00     0.124 HD
HETATM   26  H2  UNL     1       9.845  35.825  15.795  1.00  0.00     0.124 HD
ENDBRANCH   1  24
TORSDOF 3
ENDMDL
MODEL 4
REMARK minimizedAffinity -7.3092289
REMARK  3 active torsions:
REMARK  status: ('A' for Active; 'I' for Inactive)
REMARK    1  A    between atoms: N1_1  and  C1_2 
REMARK    2  A    between atoms: C6_11  and  N4_12 
REMARK    3  A    between atoms: N4_12  and  C7_13 
ROOT
HETATM    1  C1  UNL     1      14.499  37.447  15.822  1.00  0.00     0.006 A 
HETATM    2  C2  UNL     1      15.646  36.709  15.558  1.00  0.00     0.025 A 
HETATM    3  C3  UNL     1      15.993  35.624  16.368  1.00  0.00     0.032 A 
HETATM    4  C4  UNL     1      15.247  35.274  17.484  1.00  0.00     0.047 A 
HETATM    5  N2  UNL     1      15.633  34.219  18.206  1.00  0.00    -0.352 N 
ATOM      6  H2  UNL     1      16.451  33.665  17.952  1.00  0.00     0.166 HD
HETATM    7  C5  UNL     1      14.890  33.924  19.278  1.00  0.00     0.182 A 
HETATM    8  N3  UNL     1      13.814  34.592  19.701  1.00  0.00    -0.338 N 
ATOM      9  H3  UNL     1      13.299  34.303  20.533  1.00  0.00     0.168 HD
HETATM   10  C6  UNL     1      13.440  35.664  18.979  1.00  0.00     0.119 A 
HETATM   11  C16 UNL     1      14.130  36.053  17.812  1.00  0.00     0.036 A 
HETATM   12  C17 UNL     1      13.775  37.145  16.976  1.00  0.00     0.040 A 
ENDROOT
BRANCH  10  13
HETATM   13  N4  UNL     1      12.330  36.443  19.406  1.00  0.00    -0.342 N 
HETATM   14  H6  UNL     1      12.543  36.829  20.320  1.00  0.00     0.167 HD
BRANCH  13  15
HETATM   15  C7  UNL     1      10.949  36.155  19.284  1.00  0.00     0.034 A 
HETATM   16  C8  UNL     1      10.298  36.094  18.035  1.00  0.00     0.030 A 
HETATM   17  C9  UNL     1       8.917  35.884  17.935  1.00  0.00     0.010 A 
HETATM   18  C10 UNL     1       8.187  35.747  19.100  1.00  0.00    -0.052 A 
HETATM   19  C11 UNL     1       8.807  35.839  20.347  1.00  0.00    -0.050 A 
HETATM   20  C15 UNL     1       6.711  35.560  19.250  1.00  0.00     0.039 C 
HETATM   21  C12 UNL     1      10.173  36.061  20.452  1.00  0.00     0.037 A 
HETATM   22  C13 UNL     1       7.803  35.727  21.451  1.00  0.00     0.039 C 
HETATM   23  C14 UNL     1       6.617  35.094  20.710  1.00  0.00     0.009 C 
ENDBRANCH  13  15
ENDBRANCH  10  13
BRANCH   1  24
HETATM   24  N1  UNL     1      14.206  38.595  15.082  1.00  0.00    -0.303 NA
HETATM   25  H1  UNL     1      14.565  38.578  14.132  1.00  0.00     0.124 HD
HETATM   26  H2  UNL     1      13.230  38.875  15.115  1.00  0.00     0.124 HD
ENDBRANCH   1  24
TORSDOF 3
ENDMDL
MODEL 5
REMARK minimizedAffinity -7.20025587
REMARK  3 active torsions:
REMARK  status: ('A' for Active; 'I' for Inactive)
REMARK    1  A    between atoms: N1_1  and  C1_2 
REMARK    2  A    between atoms: C6_11  and  N4_12 
REMARK    3  A    between atoms: N4_12  and  C7_13 
ROOT
HETATM    1  C1  UNL     1       9.696  34.630  22.077  1.00  0.00     0.006 A 
HETATM    2  C2  UNL     1       8.469  35.282  22.040  1.00  0.00     0.025 A 
HETATM    3  C3  UNL     1       7.960  35.767  20.831  1.00  0.00     0.032 A 
HETATM    4  C4  UNL     1       8.671  35.666  19.644  1.00  0.00     0.047 A 
HETATM    5  N2  UNL     1       8.117  36.143  18.526  1.00  0.00    -0.352 N 
ATOM      6  H2  UNL     1       7.190  36.568  18.525  1.00  0.00     0.166 HD
HETATM    7  C5  UNL     1       8.842  36.035  17.407  1.00  0.00     0.182 A 
HETATM    8  N3  UNL     1      10.066  35.511  17.307  1.00  0.00    -0.338 N 
ATOM      9  H3  UNL     1      10.555  35.465  16.413  1.00  0.00     0.168 HD
HETATM   10  C6  UNL     1      10.625  35.047  18.440  1.00  0.00     0.119 A 
HETATM   11  C16 UNL     1       9.943  35.082  19.674  1.00  0.00     0.036 A 
HETATM   12  C17 UNL     1      10.447  34.579  20.903  1.00  0.00     0.040 A 
ENDROOT
BRANCH  10  13
HETATM   13  N4  UNL     1      11.945  34.521  18.405  1.00  0.00    -0.342 N 
HETATM   14  H6  UNL     1      12.135  34.074  19.295  1.00  0.00     0.167 HD
BRANCH  13  15
HETATM   15  C7  UNL     1      13.116  35.111  17.871  1.00  0.00     0.034 A 
HETATM   16  C8  UNL     1      13.090  36.319  17.146  1.00  0.00     0.030 A 
HETATM   17  C9  UNL     1      14.246  36.850  16.559  1.00  0.00     0.010 A 
HETATM   18  C10 UNL     1      15.430  36.151  16.691  1.00  0.00    -0.052 A 
HETATM   19  C11 UNL     1      15.471  34.936  17.375  1.00  0.00    -0.050 A 
HETATM   20  C15 UNL     1      16.772  36.490  16.124  1.00  0.00     0.039 C 
HETATM   21  C12 UNL     1      14.326  34.399  17.948  1.00  0.00     0.037 A 
HETATM   22  C13 UNL     1      16.843  34.341  17.326  1.00  0.00     0.039 C 
HETATM   23  C14 UNL     1      17.685  35.568  16.946  1.00  0.00     0.009 C 
ENDBRANCH  13  15
ENDBRANCH  10  13
BRANCH   1  24
HETATM   24  N1  UNL     1      10.257  34.240  23.295  1.00  0.00    -0.303 NA
HETATM   25  H1  UNL     1       9.573  34.032  24.018  1.00  0.00     0.124 HD
HETATM   26  H2  UNL     1      10.960  33.512  23.217  1.00  0.00     0.124 HD
ENDBRANCH   1  24
TORSDOF 3
ENDMDL
MODEL 6
REMARK minimizedAffinity -7.095016
REMARK  3 active torsions:
REMARK  status: ('A' for Active; 'I' for Inactive)
REMARK    1  A    between atoms: N1_1  and  C1_2 
REMARK    2  A    between atoms: C6_11  and  N4_12 
REMARK    3  A    between atoms: N4_12  and  C7_13 
ROOT
HETATM    1  C1  UNL     1       8.247  34.494  22.286  1.00  0.00     0.006 A 
HETATM    2  C2  UNL     1       7.304  35.420  21.857  1.00  0.00     0.025 A 
HETATM    3  C3  UNL     1       7.412  36.009  20.594  1.00  0.00     0.032 A 
HETATM    4  C4  UNL     1       8.478  35.739  19.748  1.00  0.00     0.047 A 
HETATM    5  N2  UNL     1       8.510  36.331  18.551  1.00  0.00    -0.352 N 
ATOM      6  H2  UNL     1       7.771  36.965  18.246  1.00  0.00     0.166 HD
HETATM    7  C5  UNL     1       9.560  36.050  17.773  1.00  0.00     0.182 A 
HETATM    8  N3  UNL     1      10.582  35.249  18.085  1.00  0.00    -0.338 N 
ATOM      9  H3  UNL     1      11.350  35.085  17.433  1.00  0.00     0.168 HD
HETATM   10  C6  UNL     1      10.552  34.668  19.298  1.00  0.00     0.119 A 
HETATM   11  C16 UNL     1       9.480  34.868  20.193  1.00  0.00     0.036 A 
HETATM   12  C17 UNL     1       9.356  34.262  21.472  1.00  0.00     0.040 A 
ENDROOT
BRANCH  10  13
HETATM   13  N4  UNL     1      11.635  33.842  19.706  1.00  0.00    -0.342 N 
HETATM   14  H6  UNL     1      11.342  33.305  20.514  1.00  0.00     0.167 HD
BRANCH  13  15
HETATM   15  C7  UNL     1      13.012  34.165  19.781  1.00  0.00     0.034 A 
HETATM   16  C8  UNL     1      13.617  34.617  20.970  1.00  0.00     0.030 A 
HETATM   17  C9  UNL     1      14.963  35.006  21.009  1.00  0.00     0.010 A 
HETATM   18  C10 UNL     1      15.696  34.951  19.840  1.00  0.00    -0.052 A 
HETATM   19  C11 UNL     1      15.106  34.539  18.644  1.00  0.00    -0.050 A 
HETATM   20  C15 UNL     1      17.122  35.349  19.623  1.00  0.00     0.039 C 
HETATM   21  C12 UNL     1      13.771  34.166  18.597  1.00  0.00     0.037 A 
HETATM   22  C13 UNL     1      16.079  34.628  17.511  1.00  0.00     0.039 C 
HETATM   23  C14 UNL     1      17.414  34.686  18.269  1.00  0.00     0.009 C 
ENDBRANCH  13  15
ENDBRANCH  10  13
BRANCH   1  24
HETATM   24  N1  UNL     1       8.204  33.984  23.585  1.00  0.00    -0.303 NA
HETATM   25  H1  UNL     1       7.270  33.947  23.984  1.00  0.00     0.124 HD
HETATM   26  H2  UNL     1       8.705  33.109  23.708  1.00  0.00     0.124 HD
ENDBRANCH   1  24
TORSDOF 3
ENDMDL
MODEL 7
REMARK minimizedAffinity -7.0319109
REMARK  3 active torsions:
REMARK  status: ('A' for Active; 'I' for Inactive)
REMARK    1  A    between atoms: N1_1  and  C1_2 
REMARK    2  A    between atoms: C6_11  and  N4_12 
REMARK    3  A    between atoms: N4_12  and  C7_13 
ROOT
HETATM    1  C1  UNL     1      17.394  47.269   5.983  1.00  0.00     0.006 A 
HETATM    2  C2  UNL     1      18.544  46.894   6.668  1.00  0.00     0.025 A 
HETATM    3  C3  UNL     1      19.306  47.848   7.350  1.00  0.00     0.032 A 
HETATM    4  C4  UNL     1      18.981  49.197   7.329  1.00  0.00     0.047 A 
HETATM    5  N2  UNL     1      19.749  50.049   8.013  1.00  0.00    -0.352 N 
ATOM      6  H2  UNL     1      20.556  49.733   8.550  1.00  0.00     0.166 HD
HETATM    7  C5  UNL     1      19.405  51.340   7.956  1.00  0.00     0.182 A 
HETATM    8  N3  UNL     1      18.380  51.855   7.271  1.00  0.00    -0.338 N 
ATOM      9  H3  UNL     1      18.183  52.856   7.278  1.00  0.00     0.168 HD
HETATM   10  C6  UNL     1      17.620  50.993   6.572  1.00  0.00     0.119 A 
HETATM   11  C16 UNL     1      17.870  49.605   6.580  1.00  0.00     0.036 A 
HETATM   12  C17 UNL     1      17.093  48.628   5.902  1.00  0.00     0.040 A 
ENDROOT
BRANCH  10  13
HETATM   13  N4  UNL     1      16.544  51.487   5.786  1.00  0.00    -0.342 N 
HETATM   14  H6  UNL     1      16.250  50.754   5.149  1.00  0.00     0.167 HD
BRANCH  13  15
HETATM   15  C7  UNL     1      16.396  52.765   5.195  1.00  0.00     0.034 A 
HETATM   16  C8  UNL     1      17.500  53.577   4.865  1.00  0.00     0.030 A 
HETATM   17  C9  UNL     1      17.335  54.870   4.353  1.00  0.00     0.010 A 
HETATM   18  C10 UNL     1      16.052  55.352   4.184  1.00  0.00    -0.052 A 
HETATM   19  C11 UNL     1      14.946  54.577   4.537  1.00  0.00    -0.050 A 
HETATM   20  C15 UNL     1      15.627  56.701   3.699  1.00  0.00     0.039 C 
HETATM   21  C12 UNL     1      15.103  53.301   5.058  1.00  0.00     0.037 A 
HETATM   22  C13 UNL     1      13.674  55.337   4.327  1.00  0.00     0.039 C 
HETATM   23  C14 UNL     1      14.146  56.449   3.379  1.00  0.00     0.009 C 
ENDBRANCH  13  15
ENDBRANCH  10  13
BRANCH   1  24
HETATM   24  N1  UNL     1      16.691  46.340   5.213  1.00  0.00    -0.303 NA
HETATM   25  H1  UNL     1      16.769  45.383   5.546  1.00  0.00     0.124 HD
HETATM   26  H2  UNL     1      15.728  46.599   5.023  1.00  0.00     0.124 HD
ENDBRANCH   1  24
TORSDOF 3
ENDMDL
MODEL 8
REMARK minimizedAffinity -6.97005701
REMARK  3 active torsions:
REMARK  status: ('A' for Active; 'I' for Inactive)
REMARK    1  A    between atoms: N1_1  and  C1_2 
REMARK    2  A    between atoms: C6_11  and  N4_12 
REMARK    3  A    between atoms: N4_12  and  C7_13 
ROOT
HETATM    1  C1  UNL     1      10.001  35.124  23.305  1.00  0.00     0.006 A 
HETATM    2  C2  UNL     1       8.747  34.638  23.654  1.00  0.00     0.025 A 
HETATM    3  C3  UNL     1       7.728  34.557  22.699  1.00  0.00     0.032 A 
HETATM    4  C4  UNL     1       7.907  34.999  21.397  1.00  0.00     0.047 A 
HETATM    5  N2  UNL     1       6.892  34.881  20.537  1.00  0.00    -0.352 N 
ATOM      6  H2  UNL     1       6.000  34.469  20.812  1.00  0.00     0.166 HD
HETATM    7  C5  UNL     1       7.105  35.330  19.296  1.00  0.00     0.182 A 
HETATM    8  N3  UNL     1       8.226  35.897  18.842  1.00  0.00    -0.338 N 
ATOM      9  H3  UNL     1       8.311  36.215  17.877  1.00  0.00     0.168 HD
HETATM   10  C6  UNL     1       9.239  36.027  19.718  1.00  0.00     0.119 A 
HETATM   11  C16 UNL     1       9.139  35.564  21.046  1.00  0.00     0.036 A 
HETATM   12  C17 UNL     1      10.175  35.630  22.017  1.00  0.00     0.040 A 
ENDROOT
BRANCH  10  13
HETATM   13  N4  UNL     1      10.442  36.666  19.307  1.00  0.00    -0.342 N 
HETATM   14  H6  UNL     1      10.202  37.423  18.676  1.00  0.00     0.167 HD
BRANCH  13  15
HETATM   15  C7  UNL     1      11.677  36.075  18.948  1.00  0.00     0.034 A 
HETATM   16  C8  UNL     1      11.999  35.746  17.616  1.00  0.00     0.030 A 
HETATM   17  C9  UNL     1      13.193  35.091  17.288  1.00  0.00     0.010 A 
HETATM   18  C10 UNL     1      14.060  34.755  18.310  1.00  0.00    -0.052 A 
HETATM   19  C11 UNL     1      13.744  35.041  19.638  1.00  0.00    -0.050 A 
HETATM   20  C15 UNL     1      15.361  34.024  18.214  1.00  0.00     0.039 C 
HETATM   21  C12 UNL     1      12.557  35.677  19.971  1.00  0.00     0.037 A 
HETATM   22  C13 UNL     1      14.802  34.522  20.561  1.00  0.00     0.039 C 
HETATM   23  C14 UNL     1      15.975  34.328  19.589  1.00  0.00     0.009 C 
ENDBRANCH  13  15
ENDBRANCH  10  13
BRANCH   1  24
HETATM   24  N1  UNL     1      10.988  35.308  24.277  1.00  0.00    -0.303 NA
HETATM   25  H1  UNL     1      10.915  34.672  25.066  1.00  0.00     0.124 HD
HETATM   26  H2  UNL     1      11.933  35.350  23.909  1.00  0.00     0.124 HD
ENDBRANCH   1  24
TORSDOF 3
ENDMDL
MODEL 9
REMARK minimizedAffinity -6.89031935
REMARK  3 active torsions:
REMARK  status: ('A' for Active; 'I' for Inactive)
REMARK    1  A    between atoms: N1_1  and  C1_2 
REMARK    2  A    between atoms: C6_11  and  N4_12 
REMARK    3  A    between atoms: N4_12  and  C7_13 
ROOT
HETATM    1  C1  UNL     1      11.668  35.727  21.159  1.00  0.00     0.006 A 
HETATM    2  C2  UNL     1      10.412  35.944  21.714  1.00  0.00     0.025 A 
HETATM    3  C3  UNL     1       9.280  36.019  20.896  1.00  0.00     0.032 A 
HETATM    4  C4  UNL     1       9.366  35.934  19.514  1.00  0.00     0.047 A 
HETATM    5  N2  UNL     1       8.241  36.004  18.798  1.00  0.00    -0.352 N 
ATOM      6  H2  UNL     1       7.328  36.109  19.241  1.00  0.00     0.166 HD
HETATM    7  C5  UNL     1       8.373  35.928  17.470  1.00  0.00     0.182 A 
HETATM    8  N3  UNL     1       9.519  35.805  16.795  1.00  0.00    -0.338 N 
ATOM      9  H3  UNL     1       9.536  35.754  15.776  1.00  0.00     0.168 HD
HETATM   10  C6  UNL     1      10.650  35.752  17.521  1.00  0.00     0.119 A 
HETATM   11  C16 UNL     1      10.632  35.793  18.931  1.00  0.00     0.036 A 
HETATM   12  C17 UNL     1      11.776  35.703  19.768  1.00  0.00     0.040 A 
ENDROOT
BRANCH  10  13
HETATM   13  N4  UNL     1      11.905  35.669  16.858  1.00  0.00    -0.342 N 
HETATM   14  H6  UNL     1      11.773  35.171  15.984  1.00  0.00     0.167 HD
BRANCH  13  15
HETATM   15  C7  UNL     1      13.179  35.397  17.411  1.00  0.00     0.034 A 
HETATM   16  C8  UNL     1      13.576  34.100  17.794  1.00  0.00     0.030 A 
HETATM   17  C9  UNL     1      14.811  33.861  18.410  1.00  0.00     0.010 A 
HETATM   18  C10 UNL     1      15.643  34.936  18.654  1.00  0.00    -0.052 A 
HETATM   19  C11 UNL     1      15.254  36.232  18.314  1.00  0.00    -0.050 A 
HETATM   20  C15 UNL     1      16.977  34.937  19.331  1.00  0.00     0.039 C 
HETATM   21  C12 UNL     1      14.027  36.478  17.716  1.00  0.00     0.037 A 
HETATM   22  C13 UNL     1      16.289  37.227  18.737  1.00  0.00     0.039 C 
HETATM   23  C14 UNL     1      17.513  36.319  18.928  1.00  0.00     0.009 C 
ENDBRANCH  13  15
ENDBRANCH  10  13
BRANCH   1  24
HETATM   24  N1  UNL     1      12.812  35.759  21.958  1.00  0.00    -0.303 NA
HETATM   25  H1  UNL     1      12.652  35.480  22.923  1.00  0.00     0.124 HD
HETATM   26  H2  UNL     1      13.616  35.286  21.555  1.00  0.00     0.124 HD
ENDBRANCH   1  24
TORSDOF 3
ENDMDL
