MODEL 1
REMARK minimizedAffinity -8.01187611
REMARK  9 active torsions:
REMARK  status: ('A' for Active; 'I' for Inactive)
REMARK    1  A    between atoms: N1_1  and  C1_2 
REMARK    2  A    between atoms: C3_8  and  N4_9 
REMARK    3  A    between atoms: N4_9  and  C4_10 
REMARK    4  A    between atoms: N6_18  and  C10_19 
REMARK    5  A    between atoms: C10_19  and  C11_20 
REMARK    6  A    between atoms: C18_28  and  C19_29 
REMARK    7  A    between atoms: N7_30  and  O1_32 
REMARK    8  A    between atoms: O1_32  and  C20_33 
REMARK    9  A    between atoms: C20_33  and  C21_34 
ROOT
HETATM    1  C1  UNL     1      17.018  39.285  14.431  1.00  0.00     0.094 A 
HETATM    2  N2  UNL     1      16.510  40.355  15.055  1.00  0.00    -0.342 N 
ATOM      3  H2  UNL     1      16.774  41.305  14.791  1.00  0.00     0.167 HD
HETATM    4  C2  UNL     1      15.641  40.117  16.043  1.00  0.00     0.183 A 
HETATM    5  N3  UNL     1      15.238  38.912  16.465  1.00  0.00    -0.338 N 
ATOM      6  H3  UNL     1      14.570  38.815  17.231  1.00  0.00     0.168 HD
HETATM    7  C3  UNL     1      15.748  37.833  15.841  1.00  0.00     0.121 A 
HETATM    8  C18 UNL     1      16.669  37.990  14.803  1.00  0.00     0.063 A 
ENDROOT
BRANCH   7   9
HETATM    9  N4  UNL     1      15.418  36.531  16.288  1.00  0.00    -0.342 N 
HETATM   10  H4  UNL     1      15.856  35.830  15.685  1.00  0.00     0.167 HD
BRANCH   9  11
HETATM   11  C4  UNL     1      14.302  36.026  16.988  1.00  0.00     0.034 A 
HETATM   12  C5  UNL     1      14.539  35.234  18.124  1.00  0.00     0.032 A 
HETATM   13  C6  UNL     1      13.504  34.721  18.919  1.00  0.00     0.034 A 
HETATM   14  C7  UNL     1      12.194  35.044  18.550  1.00  0.00     0.062 A 
HETATM   15  C8  UNL     1      11.916  35.844  17.447  1.00  0.00     0.011 A 
HETATM   16  N6  UNL     1      10.967  34.737  19.092  1.00  0.00    -0.288 N 
HETATM   17  C9  UNL     1      10.508  35.939  17.419  1.00  0.00     0.121 A 
HETATM   18  C17 UNL     1      12.976  36.350  16.669  1.00  0.00     0.044 A 
HETATM   19  N5  UNL     1       9.923  35.257  18.405  1.00  0.00    -0.308 N 
ATOM     20  H5  UNL     1       8.926  35.152  18.596  1.00  0.00     0.186 HD
BRANCH  16  21
HETATM   21  C10 UNL     1      10.709  33.913  20.267  1.00  0.00     0.187 C 
BRANCH  21  22
HETATM   22  C11 UNL     1       9.717  34.558  21.204  1.00  0.00    -0.035 A 
HETATM   23  C12 UNL     1       8.338  34.332  21.057  1.00  0.00     0.009 A 
HETATM   24  C13 UNL     1       7.420  34.932  21.926  1.00  0.00     0.004 A 
HETATM   25  C14 UNL     1       7.872  35.765  22.949  1.00  0.00     0.042 A 
HETATM   26  C15 UNL     1       9.233  35.995  23.094  1.00  0.00     0.117 A 
HETATM   27  F1  UNL     1       9.664  36.797  24.078  1.00  0.00    -0.206 F 
HETATM   28  C16 UNL     1      10.155  35.405  22.236  1.00  0.00     0.051 A 
ENDBRANCH  21  22
ENDBRANCH  16  21
ENDBRANCH   9  11
ENDBRANCH   7   9
BRANCH   8  29
HETATM   29  C19 UNL     1      17.235  36.846  14.078  1.00  0.00     0.132 C 
HETATM   30  N7  UNL     1      16.825  36.513  12.892  1.00  0.00    -0.277 N 
ATOM     31  H7  UNL     1      16.061  36.952  12.378  1.00  0.00     0.193 HD
BRANCH  30  32
HETATM   32  O1  UNL     1      17.617  35.441  12.437  1.00  0.00    -0.276 OA
BRANCH  32  33
HETATM   33  C20 UNL     1      16.997  34.197  12.798  1.00  0.00     0.239 C 
BRANCH  33  34
HETATM   34  C21 UNL     1      17.505  33.094  11.897  1.00  0.00    -0.032 A 
HETATM   35  C22 UNL     1      18.250  33.400  10.747  1.00  0.00     0.009 A 
HETATM   36  C23 UNL     1      18.772  32.379   9.952  1.00  0.00     0.001 A 
HETATM   37  C24 UNL     1      18.556  31.046  10.297  1.00  0.00     0.000 A 
HETATM   38  C25 UNL     1      17.819  30.730  11.439  1.00  0.00     0.001 A 
HETATM   39  C26 UNL     1      17.297  31.750  12.236  1.00  0.00     0.009 A 
ENDBRANCH  33  34
ENDBRANCH  32  33
ENDBRANCH  30  32
ENDBRANCH   8  29
BRANCH   1  40
HETATM   40  N1  UNL     1      17.890  39.569  13.370  1.00  0.00    -0.288 NA
HETATM   41  H1  UNL     1      18.818  39.194  13.543  1.00  0.00     0.125 HD
HETATM   42  H2  UNL     1      17.541  39.175  12.497  1.00  0.00     0.125 HD
ENDBRANCH   1  40
TORSDOF 9
ENDMDL
MODEL 2
REMARK minimizedAffinity -8.00386906
REMARK  9 active torsions:
REMARK  status: ('A' for Active; 'I' for Inactive)
REMARK    1  A    between atoms: N1_1  and  C1_2 
REMARK    2  A    between atoms: C3_8  and  N4_9 
REMARK    3  A    between atoms: N4_9  and  C4_10 
REMARK    4  A    between atoms: N6_18  and  C10_19 
REMARK    5  A    between atoms: C10_19  and  C11_20 
REMARK    6  A    between atoms: C18_28  and  C19_29 
REMARK    7  A    between atoms: N7_30  and  O1_32 
REMARK    8  A    between atoms: O1_32  and  C20_33 
REMARK    9  A    between atoms: C20_33  and  C21_34 
ROOT
HETATM    1  C1  UNL     1      18.040  39.094  15.039  1.00  0.00     0.094 A 
HETATM    2  N2  UNL     1      17.908  40.373  15.411  1.00  0.00    -0.342 N 
ATOM      3  H2  UNL     1      18.708  41.006  15.447  1.00  0.00     0.167 HD
HETATM    4  C2  UNL     1      16.676  40.780  15.733  1.00  0.00     0.183 A 
HETATM    5  N3  UNL     1      15.569  40.027  15.724  1.00  0.00    -0.338 N 
ATOM      6  H3  UNL     1      14.663  40.415  15.987  1.00  0.00     0.168 HD
HETATM    7  C3  UNL     1      15.698  38.739  15.352  1.00  0.00     0.121 A 
HETATM    8  C18 UNL     1      16.951  38.229  15.006  1.00  0.00     0.063 A 
ENDROOT
BRANCH   7   9
HETATM    9  N4  UNL     1      14.579  37.872  15.390  1.00  0.00    -0.342 N 
HETATM   10  H4  UNL     1      13.953  38.072  14.605  1.00  0.00     0.167 HD
BRANCH   9  11
HETATM   11  C4  UNL     1      13.926  37.217  16.454  1.00  0.00     0.034 A 
HETATM   12  C5  UNL     1      12.893  36.317  16.141  1.00  0.00     0.032 A 
HETATM   13  C6  UNL     1      12.211  35.578  17.118  1.00  0.00     0.034 A 
HETATM   14  C7  UNL     1      12.610  35.752  18.447  1.00  0.00     0.062 A 
HETATM   15  C8  UNL     1      13.643  36.615  18.799  1.00  0.00     0.011 A 
HETATM   16  N6  UNL     1      12.186  35.195  19.632  1.00  0.00    -0.288 N 
HETATM   17  C9  UNL     1      13.741  36.503  20.202  1.00  0.00     0.121 A 
HETATM   18  C17 UNL     1      14.315  37.342  17.796  1.00  0.00     0.044 A 
HETATM   19  N5  UNL     1      12.850  35.654  20.719  1.00  0.00    -0.308 N 
ATOM     20  H5  UNL     1      12.704  35.410  21.698  1.00  0.00     0.186 HD
BRANCH  16  21
HETATM   21  C10 UNL     1      11.113  34.224  19.809  1.00  0.00     0.187 C 
BRANCH  21  22
HETATM   22  C11 UNL     1       9.775  34.890  20.021  1.00  0.00    -0.035 A 
HETATM   23  C12 UNL     1       9.042  34.670  21.200  1.00  0.00     0.009 A 
HETATM   24  C13 UNL     1       7.802  35.289  21.393  1.00  0.00     0.004 A 
HETATM   25  C14 UNL     1       7.282  36.130  20.410  1.00  0.00     0.042 A 
HETATM   26  C15 UNL     1       8.001  36.346  19.242  1.00  0.00     0.117 A 
HETATM   27  F1  UNL     1       7.498  37.154  18.299  1.00  0.00    -0.206 F 
HETATM   28  C16 UNL     1       9.235  35.736  19.038  1.00  0.00     0.051 A 
ENDBRANCH  21  22
ENDBRANCH  16  21
ENDBRANCH   9  11
ENDBRANCH   7   9
BRANCH   8  29
HETATM   29  C19 UNL     1      17.137  36.838  14.573  1.00  0.00     0.132 C 
HETATM   30  N7  UNL     1      17.391  36.531  13.338  1.00  0.00    -0.277 N 
ATOM     31  H7  UNL     1      17.431  37.184  12.555  1.00  0.00     0.193 HD
BRANCH  30  32
HETATM   32  O1  UNL     1      17.603  35.140  13.264  1.00  0.00    -0.276 OA
BRANCH  32  33
HETATM   33  C20 UNL     1      16.757  34.578  12.248  1.00  0.00     0.239 C 
BRANCH  33  34
HETATM   34  C21 UNL     1      17.404  33.337  11.676  1.00  0.00    -0.032 A 
HETATM   35  C22 UNL     1      18.333  33.436  10.629  1.00  0.00     0.009 A 
HETATM   36  C23 UNL     1      18.976  32.296  10.145  1.00  0.00     0.001 A 
HETATM   37  C24 UNL     1      18.700  31.049  10.703  1.00  0.00     0.000 A 
HETATM   38  C25 UNL     1      17.780  30.939  11.747  1.00  0.00     0.001 A 
HETATM   39  C26 UNL     1      17.137  32.078  12.233  1.00  0.00     0.009 A 
ENDBRANCH  33  34
ENDBRANCH  32  33
ENDBRANCH  30  32
ENDBRANCH   8  29
BRANCH   1  40
HETATM   40  N1  UNL     1      19.336  38.710  14.663  1.00  0.00    -0.288 NA
HETATM   41  H1  UNL     1      19.694  37.975  15.265  1.00  0.00     0.125 HD
HETATM   42  H2  UNL     1      19.350  38.374  13.701  1.00  0.00     0.125 HD
ENDBRANCH   1  40
TORSDOF 9
ENDMDL
MODEL 3
REMARK minimizedAffinity -7.92525387
REMARK  9 active torsions:
REMARK  status: ('A' for Active; 'I' for Inactive)
REMARK    1  A    between atoms: N1_1  and  C1_2 
REMARK    2  A    between atoms: C3_8  and  N4_9 
REMARK    3  A    between atoms: N4_9  and  C4_10 
REMARK    4  A    between atoms: N6_18  and  C10_19 
REMARK    5  A    between atoms: C10_19  and  C11_20 
REMARK    6  A    between atoms: C18_28  and  C19_29 
REMARK    7  A    between atoms: N7_30  and  O1_32 
REMARK    8  A    between atoms: O1_32  and  C20_33 
REMARK    9  A    between atoms: C20_33  and  C21_34 
ROOT
HETATM    1  C1  UNL     1      18.803  49.415   7.025  1.00  0.00     0.094 A 
HETATM    2  N2  UNL     1      19.619  50.245   7.685  1.00  0.00    -0.342 N 
ATOM      3  H2  UNL     1      20.422  49.901   8.213  1.00  0.00     0.167 HD
HETATM    4  C2  UNL     1      19.329  51.549   7.619  1.00  0.00     0.183 A 
HETATM    5  N3  UNL     1      18.299  52.096   6.962  1.00  0.00    -0.338 N 
ATOM      6  H3  UNL     1      18.146  53.105   6.963  1.00  0.00     0.168 HD
HETATM    7  C3  UNL     1      17.474  51.263   6.299  1.00  0.00     0.121 A 
HETATM    8  C18 UNL     1      17.699  49.885   6.320  1.00  0.00     0.063 A 
ENDROOT
BRANCH   7   9
HETATM    9  N4  UNL     1      16.326  51.772   5.644  1.00  0.00    -0.342 N 
HETATM   10  H4  UNL     1      15.856  51.025   5.125  1.00  0.00     0.167 HD
BRANCH   9  11
HETATM   11  C4  UNL     1      16.007  53.057   5.157  1.00  0.00     0.034 A 
HETATM   12  C5  UNL     1      14.671  53.485   5.252  1.00  0.00     0.032 A 
HETATM   13  C6  UNL     1      14.255  54.759   4.842  1.00  0.00     0.034 A 
HETATM   14  C7  UNL     1      15.234  55.623   4.341  1.00  0.00     0.062 A 
HETATM   15  C8  UNL     1      16.571  55.248   4.253  1.00  0.00     0.011 A 
HETATM   16  N6  UNL     1      15.190  56.917   3.874  1.00  0.00    -0.288 N 
HETATM   17  C9  UNL     1      17.224  56.378   3.716  1.00  0.00     0.121 A 
HETATM   18  C17 UNL     1      16.962  53.962   4.676  1.00  0.00     0.044 A 
HETATM   19  N5  UNL     1      16.391  57.390   3.468  1.00  0.00    -0.308 N 
ATOM     20  H5  UNL     1      16.609  58.304   3.068  1.00  0.00     0.186 HD
BRANCH  16  21
HETATM   21  C10 UNL     1      14.011  57.766   3.756  1.00  0.00     0.187 C 
BRANCH  21  22
HETATM   22  C11 UNL     1      13.598  57.964   2.317  1.00  0.00    -0.035 A 
HETATM   23  C12 UNL     1      13.488  59.255   1.773  1.00  0.00     0.009 A 
HETATM   24  C13 UNL     1      13.104  59.435   0.439  1.00  0.00     0.004 A 
HETATM   25  C14 UNL     1      12.825  58.328  -0.362  1.00  0.00     0.042 A 
HETATM   26  C15 UNL     1      12.928  57.052   0.174  1.00  0.00     0.117 A 
HETATM   27  F1  UNL     1      12.658  55.990  -0.598  1.00  0.00    -0.206 F 
HETATM   28  C16 UNL     1      13.308  56.859   1.499  1.00  0.00     0.051 A 
ENDBRANCH  21  22
ENDBRANCH  16  21
ENDBRANCH   9  11
ENDBRANCH   7   9
BRANCH   8  29
HETATM   29  C19 UNL     1      16.841  48.941   5.595  1.00  0.00     0.132 C 
HETATM   30  N7  UNL     1      16.550  49.101   4.339  1.00  0.00    -0.277 N 
ATOM     31  H7  UNL     1      16.824  49.893   3.758  1.00  0.00     0.193 HD
BRANCH  30  32
HETATM   32  O1  UNL     1      15.790  47.992   3.918  1.00  0.00    -0.276 OA
BRANCH  32  33
HETATM   33  C20 UNL     1      15.912  46.932   4.880  1.00  0.00     0.239 C 
BRANCH  33  34
HETATM   34  C21 UNL     1      16.415  45.681   4.198  1.00  0.00    -0.032 A 
HETATM   35  C22 UNL     1      16.056  45.398   2.871  1.00  0.00     0.009 A 
HETATM   36  C23 UNL     1      16.573  44.276   2.222  1.00  0.00     0.001 A 
HETATM   37  C24 UNL     1      17.453  43.427   2.892  1.00  0.00     0.000 A 
HETATM   38  C25 UNL     1      17.819  43.698   4.210  1.00  0.00     0.001 A 
HETATM   39  C26 UNL     1      17.304  44.821   4.860  1.00  0.00     0.009 A 
ENDBRANCH  33  34
ENDBRANCH  32  33
ENDBRANCH  30  32
ENDBRANCH   8  29
BRANCH   1  40
HETATM   40  N1  UNL     1      19.159  48.059   7.075  1.00  0.00    -0.288 NA
HETATM   41  H1  UNL     1      18.434  47.501   7.516  1.00  0.00     0.125 HD
HETATM   42  H2  UNL     1      19.323  47.693   6.138  1.00  0.00     0.125 HD
ENDBRANCH   1  40
TORSDOF 9
ENDMDL
MODEL 4
REMARK minimizedAffinity -7.88983583
REMARK  9 active torsions:
REMARK  status: ('A' for Active; 'I' for Inactive)
REMARK    1  A    between atoms: N1_1  and  C1_2 
REMARK    2  A    between atoms: C3_8  and  N4_9 
REMARK    3  A    between atoms: N4_9  and  C4_10 
REMARK    4  A    between atoms: N6_18  and  C10_19 
REMARK    5  A    between atoms: C10_19  and  C11_20 
REMARK    6  A    between atoms: C18_28  and  C19_29 
REMARK    7  A    between atoms: N7_30  and  O1_32 
REMARK    8  A    between atoms: O1_32  and  C20_33 
REMARK    9  A    between atoms: C20_33  and  C21_34 
ROOT
HETATM    1  C1  UNL     1      18.651  49.153   6.873  1.00  0.00     0.094 A 
HETATM    2  N2  UNL     1      19.523  49.915   7.545  1.00  0.00    -0.342 N 
ATOM      3  H2  UNL     1      20.326  49.511   8.028  1.00  0.00     0.167 HD
HETATM    4  C2  UNL     1      19.288  51.231   7.551  1.00  0.00     0.183 A 
HETATM    5  N3  UNL     1      18.264  51.853   6.954  1.00  0.00    -0.338 N 
ATOM      6  H3  UNL     1      18.155  52.866   7.009  1.00  0.00     0.168 HD
HETATM    7  C3  UNL     1      17.383  51.089   6.279  1.00  0.00     0.121 A 
HETATM    8  C18 UNL     1      17.548  49.704   6.227  1.00  0.00     0.063 A 
ENDROOT
BRANCH   7   9
HETATM    9  N4  UNL     1      16.239  51.678   5.687  1.00  0.00    -0.342 N 
HETATM   10  H4  UNL     1      15.678  50.962   5.219  1.00  0.00     0.167 HD
BRANCH   9  11
HETATM   11  C4  UNL     1      15.993  52.975   5.191  1.00  0.00     0.034 A 
HETATM   12  C5  UNL     1      14.667  53.443   5.198  1.00  0.00     0.032 A 
HETATM   13  C6  UNL     1      14.318  54.732   4.772  1.00  0.00     0.034 A 
HETATM   14  C7  UNL     1      15.355  55.569   4.347  1.00  0.00     0.062 A 
HETATM   15  C8  UNL     1      16.683  55.154   4.346  1.00  0.00     0.011 A 
HETATM   16  N6  UNL     1      15.382  56.866   3.888  1.00  0.00    -0.288 N 
HETATM   17  C9  UNL     1      17.406  56.266   3.866  1.00  0.00     0.121 A 
HETATM   18  C17 UNL     1      17.006  53.854   4.785  1.00  0.00     0.044 A 
HETATM   19  N5  UNL     1      16.622  57.306   3.570  1.00  0.00    -0.308 N 
ATOM     20  H5  UNL     1      16.894  58.215   3.194  1.00  0.00     0.186 HD
BRANCH  16  21
HETATM   21  C10 UNL     1      14.241  57.752   3.697  1.00  0.00     0.187 C 
BRANCH  21  22
HETATM   22  C11 UNL     1      13.820  58.420   4.985  1.00  0.00    -0.035 A 
HETATM   23  C12 UNL     1      12.917  59.496   4.974  1.00  0.00     0.009 A 
HETATM   24  C13 UNL     1      12.530  60.113   6.169  1.00  0.00     0.004 A 
HETATM   25  C14 UNL     1      13.044  59.663   7.384  1.00  0.00     0.042 A 
HETATM   26  C15 UNL     1      13.941  58.603   7.398  1.00  0.00     0.117 A 
HETATM   27  F1  UNL     1      14.434  58.173   8.568  1.00  0.00    -0.206 F 
HETATM   28  C16 UNL     1      14.333  57.981   6.217  1.00  0.00     0.051 A 
ENDBRANCH  21  22
ENDBRANCH  16  21
ENDBRANCH   9  11
ENDBRANCH   7   9
BRANCH   8  29
HETATM   29  C19 UNL     1      16.627  48.833   5.486  1.00  0.00     0.132 C 
HETATM   30  N7  UNL     1      16.502  48.906   4.196  1.00  0.00    -0.277 N 
ATOM     31  H7  UNL     1      16.964  49.582   3.587  1.00  0.00     0.193 HD
BRANCH  30  32
HETATM   32  O1  UNL     1      15.619  47.889   3.781  1.00  0.00    -0.276 OA
BRANCH  32  33
HETATM   33  C20 UNL     1      15.702  46.780   4.689  1.00  0.00     0.239 C 
BRANCH  33  34
HETATM   34  C21 UNL     1      16.364  45.608   4.001  1.00  0.00    -0.032 A 
HETATM   35  C22 UNL     1      17.260  44.784   4.701  1.00  0.00     0.009 A 
HETATM   36  C23 UNL     1      17.820  43.665   4.083  1.00  0.00     0.001 A 
HETATM   37  C24 UNL     1      17.493  43.359   2.763  1.00  0.00     0.000 A 
HETATM   38  C25 UNL     1      16.602  44.169   2.058  1.00  0.00     0.001 A 
HETATM   39  C26 UNL     1      16.039  45.288   2.675  1.00  0.00     0.009 A 
ENDBRANCH  33  34
ENDBRANCH  32  33
ENDBRANCH  30  32
ENDBRANCH   8  29
BRANCH   1  40
HETATM   40  N1  UNL     1      18.949  47.783   6.846  1.00  0.00    -0.288 NA
HETATM   41  H1  UNL     1      18.215  47.235   7.284  1.00  0.00     0.125 HD
HETATM   42  H2  UNL     1      19.068  47.456   5.888  1.00  0.00     0.125 HD
ENDBRANCH   1  40
TORSDOF 9
ENDMDL
MODEL 5
REMARK minimizedAffinity -7.85058165
REMARK  9 active torsions:
REMARK  status: ('A' for Active; 'I' for Inactive)
REMARK    1  A    between atoms: N1_1  and  C1_2 
REMARK    2  A    between atoms: C3_8  and  N4_9 
REMARK    3  A    between atoms: N4_9  and  C4_10 
REMARK    4  A    between atoms: N6_18  and  C10_19 
REMARK    5  A    between atoms: C10_19  and  C11_20 
REMARK    6  A    between atoms: C18_28  and  C19_29 
REMARK    7  A    between atoms: N7_30  and  O1_32 
REMARK    8  A    between atoms: O1_32  and  C20_33 
REMARK    9  A    between atoms: C20_33  and  C21_34 
ROOT
HETATM    1  C1  UNL     1      13.253  60.973   0.943  1.00  0.00     0.094 A 
HETATM    2  N2  UNL     1      13.089  60.594  -0.330  1.00  0.00    -0.342 N 
ATOM      3  H2  UNL     1      13.107  61.268  -1.096  1.00  0.00     0.167 HD
HETATM    4  C2  UNL     1      12.902  59.288  -0.548  1.00  0.00     0.183 A 
HETATM    5  N3  UNL     1      12.856  58.331   0.386  1.00  0.00    -0.338 N 
ATOM      6  H3  UNL     1      12.706  57.353   0.136  1.00  0.00     0.168 HD
HETATM    7  C3  UNL     1      13.018  58.708   1.669  1.00  0.00     0.121 A 
HETATM    8  C18 UNL     1      13.212  60.054   1.988  1.00  0.00     0.063 A 
ENDROOT
BRANCH   7   9
HETATM    9  N4  UNL     1      12.909  57.754   2.710  1.00  0.00    -0.342 N 
HETATM   10  H4  UNL     1      12.267  58.092   3.431  1.00  0.00     0.167 HD
BRANCH   9  11
HETATM   11  C4  UNL     1      13.801  56.774   3.191  1.00  0.00     0.034 A 
HETATM   12  C5  UNL     1      15.167  56.922   2.895  1.00  0.00     0.032 A 
HETATM   13  C6  UNL     1      16.143  56.031   3.363  1.00  0.00     0.034 A 
HETATM   14  C7  UNL     1      15.711  54.974   4.170  1.00  0.00     0.062 A 
HETATM   15  C8  UNL     1      14.372  54.804   4.506  1.00  0.00     0.011 A 
HETATM   16  N6  UNL     1      16.376  53.946   4.800  1.00  0.00    -0.288 N 
HETATM   17  C9  UNL     1      14.352  53.653   5.322  1.00  0.00     0.121 A 
HETATM   18  C17 UNL     1      13.413  55.717   4.026  1.00  0.00     0.044 A 
HETATM   19  N5  UNL     1      15.562  53.116   5.494  1.00  0.00    -0.308 N 
ATOM     20  H5  UNL     1      15.813  52.280   6.021  1.00  0.00     0.186 HD
BRANCH  16  21
HETATM   21  C10 UNL     1      17.807  53.673   4.760  1.00  0.00     0.187 C 
BRANCH  21  22
HETATM   22  C11 UNL     1      18.237  52.744   5.870  1.00  0.00    -0.035 A 
HETATM   23  C12 UNL     1      18.784  53.253   7.060  1.00  0.00     0.009 A 
HETATM   24  C13 UNL     1      19.183  52.390   8.087  1.00  0.00     0.004 A 
HETATM   25  C14 UNL     1      19.041  51.011   7.933  1.00  0.00     0.042 A 
HETATM   26  C15 UNL     1      18.505  50.505   6.756  1.00  0.00     0.117 A 
HETATM   27  F1  UNL     1      18.370  49.180   6.611  1.00  0.00    -0.206 F 
HETATM   28  C16 UNL     1      18.105  51.353   5.728  1.00  0.00     0.051 A 
ENDBRANCH  21  22
ENDBRANCH  16  21
ENDBRANCH   9  11
ENDBRANCH   7   9
BRANCH   8  29
HETATM   29  C19 UNL     1      13.415  60.510   3.368  1.00  0.00     0.132 C 
HETATM   30  N7  UNL     1      12.556  61.272   3.973  1.00  0.00    -0.277 N 
ATOM     31  H7  UNL     1      11.711  61.667   3.559  1.00  0.00     0.193 HD
BRANCH  30  32
HETATM   32  O1  UNL     1      12.990  61.458   5.301  1.00  0.00    -0.276 OA
BRANCH  32  33
HETATM   33  C20 UNL     1      13.359  60.192   5.868  1.00  0.00     0.239 C 
BRANCH  33  34
HETATM   34  C21 UNL     1      12.507  59.912   7.085  1.00  0.00    -0.032 A 
HETATM   35  C22 UNL     1      11.203  60.423   7.175  1.00  0.00     0.009 A 
HETATM   36  C23 UNL     1      10.396  60.110   8.270  1.00  0.00     0.001 A 
HETATM   37  C24 UNL     1      10.881  59.285   9.283  1.00  0.00     0.000 A 
HETATM   38  C25 UNL     1      12.175  58.769   9.203  1.00  0.00     0.001 A 
HETATM   39  C26 UNL     1      12.984  59.079   8.108  1.00  0.00     0.009 A 
ENDBRANCH  33  34
ENDBRANCH  32  33
ENDBRANCH  30  32
ENDBRANCH   8  29
BRANCH   1  40
HETATM   40  N1  UNL     1      13.494  62.341   1.135  1.00  0.00    -0.288 NA
HETATM   41  H1  UNL     1      12.767  62.769   1.700  1.00  0.00     0.125 HD
HETATM   42  H2  UNL     1      14.391  62.490   1.595  1.00  0.00     0.125 HD
ENDBRANCH   1  40
TORSDOF 9
ENDMDL
MODEL 6
REMARK minimizedAffinity -7.54515266
REMARK  9 active torsions:
REMARK  status: ('A' for Active; 'I' for Inactive)
REMARK    1  A    between atoms: N1_1  and  C1_2 
REMARK    2  A    between atoms: C3_8  and  N4_9 
REMARK    3  A    between atoms: N4_9  and  C4_10 
REMARK    4  A    between atoms: N6_18  and  C10_19 
REMARK    5  A    between atoms: C10_19  and  C11_20 
REMARK    6  A    between atoms: C18_28  and  C19_29 
REMARK    7  A    between atoms: N7_30  and  O1_32 
REMARK    8  A    between atoms: O1_32  and  C20_33 
REMARK    9  A    between atoms: C20_33  and  C21_34 
ROOT
HETATM    1  C1  UNL     1      19.385  49.804   5.237  1.00  0.00     0.094 A 
HETATM    2  N2  UNL     1      18.922  48.858   4.410  1.00  0.00    -0.342 N 
ATOM      3  H2  UNL     1      19.528  48.122   4.047  1.00  0.00     0.167 HD
HETATM    4  C2  UNL     1      17.628  48.927   4.085  1.00  0.00     0.183 A 
HETATM    5  N3  UNL     1      16.757  49.854   4.503  1.00  0.00    -0.338 N 
ATOM      6  H3  UNL     1      15.782  49.838   4.205  1.00  0.00     0.168 HD
HETATM    7  C3  UNL     1      17.219  50.809   5.333  1.00  0.00     0.121 A 
HETATM    8  C18 UNL     1      18.561  50.817   5.719  1.00  0.00     0.063 A 
ENDROOT
BRANCH   7   9
HETATM    9  N4  UNL     1      16.367  51.859   5.754  1.00  0.00    -0.342 N 
HETATM   10  H4  UNL     1      15.626  51.491   6.357  1.00  0.00     0.167 HD
BRANCH   9  11
HETATM   11  C4  UNL     1      16.026  53.093   5.164  1.00  0.00     0.034 A 
HETATM   12  C5  UNL     1      14.672  53.472   5.161  1.00  0.00     0.032 A 
HETATM   13  C6  UNL     1      14.230  54.698   4.644  1.00  0.00     0.034 A 
HETATM   14  C7  UNL     1      15.201  55.565   4.135  1.00  0.00     0.062 A 
HETATM   15  C8  UNL     1      16.554  55.241   4.140  1.00  0.00     0.011 A 
HETATM   16  N6  UNL     1      15.133  56.822   3.577  1.00  0.00    -0.288 N 
HETATM   17  C9  UNL     1      17.192  56.358   3.561  1.00  0.00     0.121 A 
HETATM   18  C17 UNL     1      16.971  54.004   4.671  1.00  0.00     0.044 A 
HETATM   19  N5  UNL     1      16.336  57.317   3.201  1.00  0.00    -0.308 N 
ATOM     20  H5  UNL     1      16.540  58.209   2.751  1.00  0.00     0.186 HD
BRANCH  16  21
HETATM   21  C10 UNL     1      13.932  57.612   3.341  1.00  0.00     0.187 C 
BRANCH  21  22
HETATM   22  C11 UNL     1      13.528  57.608   1.886  1.00  0.00    -0.035 A 
HETATM   23  C12 UNL     1      13.252  58.811   1.215  1.00  0.00     0.009 A 
HETATM   24  C13 UNL     1      12.877  58.804  -0.134  1.00  0.00     0.004 A 
HETATM   25  C14 UNL     1      12.774  57.596  -0.822  1.00  0.00     0.042 A 
HETATM   26  C15 UNL     1      13.042  56.405  -0.160  1.00  0.00     0.117 A 
HETATM   27  F1  UNL     1      12.941  55.245  -0.824  1.00  0.00    -0.206 F 
HETATM   28  C16 UNL     1      13.415  56.399   1.180  1.00  0.00     0.051 A 
ENDBRANCH  21  22
ENDBRANCH  16  21
ENDBRANCH   9  11
ENDBRANCH   7   9
BRANCH   8  29
HETATM   29  C19 UNL     1      19.105  51.823   6.639  1.00  0.00     0.132 C 
HETATM   30  N7  UNL     1      18.654  51.963   7.849  1.00  0.00    -0.277 N 
ATOM     31  H7  UNL     1      17.871  51.454   8.258  1.00  0.00     0.193 HD
BRANCH  30  32
HETATM   32  O1  UNL     1      19.435  52.940   8.499  1.00  0.00    -0.276 OA
BRANCH  32  33
HETATM   33  C20 UNL     1      19.993  52.387   9.701  1.00  0.00     0.239 C 
BRANCH  33  34
HETATM   34  C21 UNL     1      19.640  53.268  10.878  1.00  0.00    -0.032 A 
HETATM   35  C22 UNL     1      19.409  54.640  10.697  1.00  0.00     0.009 A 
HETATM   36  C23 UNL     1      19.021  55.439  11.774  1.00  0.00     0.001 A 
HETATM   37  C24 UNL     1      18.860  54.876  13.039  1.00  0.00     0.000 A 
HETATM   38  C25 UNL     1      19.085  53.513  13.230  1.00  0.00     0.001 A 
HETATM   39  C26 UNL     1      19.472  52.711  12.155  1.00  0.00     0.009 A 
ENDBRANCH  33  34
ENDBRANCH  32  33
ENDBRANCH  30  32
ENDBRANCH   8  29
BRANCH   1  40
HETATM   40  N1  UNL     1      20.734  49.678   5.597  1.00  0.00    -0.288 NA
HETATM   41  H1  UNL     1      21.275  50.483   5.297  1.00  0.00     0.125 HD
HETATM   42  H2  UNL     1      20.833  49.581   6.607  1.00  0.00     0.125 HD
ENDBRANCH   1  40
TORSDOF 9
ENDMDL
MODEL 7
REMARK minimizedAffinity -7.49691725
REMARK  9 active torsions:
REMARK  status: ('A' for Active; 'I' for Inactive)
REMARK    1  A    between atoms: N1_1  and  C1_2 
REMARK    2  A    between atoms: C3_8  and  N4_9 
REMARK    3  A    between atoms: N4_9  and  C4_10 
REMARK    4  A    between atoms: N6_18  and  C10_19 
REMARK    5  A    between atoms: C10_19  and  C11_20 
REMARK    6  A    between atoms: C18_28  and  C19_29 
REMARK    7  A    between atoms: N7_30  and  O1_32 
REMARK    8  A    between atoms: O1_32  and  C20_33 
REMARK    9  A    between atoms: C20_33  and  C21_34 
ROOT
HETATM    1  C1  UNL     1       7.087  63.633 -11.059  1.00  0.00     0.094 A 
HETATM    2  N2  UNL     1       7.388  64.646 -11.881  1.00  0.00    -0.342 N 
ATOM      3  H2  UNL     1       7.449  64.515 -12.891  1.00  0.00     0.167 HD
HETATM    4  C2  UNL     1       7.604  65.836 -11.312  1.00  0.00     0.183 A 
HETATM    5  N3  UNL     1       7.553  66.105 -10.002  1.00  0.00    -0.338 N 
ATOM      6  H3  UNL     1       7.734  67.044  -9.646  1.00  0.00     0.168 HD
HETATM    7  C3  UNL     1       7.253  65.088  -9.171  1.00  0.00     0.121 A 
HETATM    8  C18 UNL     1       7.019  63.809  -9.680  1.00  0.00     0.063 A 
ENDROOT
BRANCH   7   9
HETATM    9  N4  UNL     1       7.254  65.291  -7.770  1.00  0.00    -0.342 N 
HETATM   10  H4  UNL     1       8.143  64.980  -7.369  1.00  0.00     0.167 HD
BRANCH   9  11
HETATM   11  C4  UNL     1       6.213  65.330  -6.819  1.00  0.00     0.034 A 
HETATM   12  C5  UNL     1       6.420  64.686  -5.587  1.00  0.00     0.032 A 
HETATM   13  C6  UNL     1       5.471  64.704  -4.555  1.00  0.00     0.034 A 
HETATM   14  C7  UNL     1       4.289  65.415  -4.785  1.00  0.00     0.062 A 
HETATM   15  C8  UNL     1       4.053  66.086  -5.980  1.00  0.00     0.011 A 
HETATM   16  N6  UNL     1       3.175  65.652  -4.012  1.00  0.00    -0.288 N 
HETATM   17  C9  UNL     1       2.781  66.673  -5.817  1.00  0.00     0.121 A 
HETATM   18  C17 UNL     1       5.027  66.055  -6.999  1.00  0.00     0.044 A 
HETATM   19  N5  UNL     1       2.232  66.402  -4.631  1.00  0.00    -0.308 N 
ATOM     20  H5  UNL     1       1.321  66.691  -4.275  1.00  0.00     0.186 HD
BRANCH  16  21
HETATM   21  C10 UNL     1       2.924  65.162  -2.663  1.00  0.00     0.187 C 
BRANCH  21  22
HETATM   22  C11 UNL     1       1.497  64.699  -2.485  1.00  0.00    -0.035 A 
HETATM   23  C12 UNL     1       1.061  63.485  -3.040  1.00  0.00     0.009 A 
HETATM   24  C13 UNL     1      -0.261  63.059  -2.874  1.00  0.00     0.004 A 
HETATM   25  C14 UNL     1      -1.161  63.844  -2.153  1.00  0.00     0.042 A 
HETATM   26  C15 UNL     1      -0.735  65.048  -1.607  1.00  0.00     0.117 A 
HETATM   27  F1  UNL     1      -1.601  65.801  -0.916  1.00  0.00    -0.206 F 
HETATM   28  C16 UNL     1       0.578  65.482  -1.766  1.00  0.00     0.051 A 
ENDBRANCH  21  22
ENDBRANCH  16  21
ENDBRANCH   9  11
ENDBRANCH   7   9
BRANCH   8  29
HETATM   29  C19 UNL     1       6.667  62.675  -8.817  1.00  0.00     0.132 C 
HETATM   30  N7  UNL     1       7.530  61.757  -8.502  1.00  0.00    -0.277 N 
ATOM     31  H7  UNL     1       8.487  61.692  -8.848  1.00  0.00     0.193 HD
BRANCH  30  32
HETATM   32  O1  UNL     1       6.916  60.866  -7.600  1.00  0.00    -0.276 OA
BRANCH  32  33
HETATM   33  C20 UNL     1       7.183  61.286  -6.253  1.00  0.00     0.239 C 
BRANCH  33  34
HETATM   34  C21 UNL     1       8.370  60.524  -5.708  1.00  0.00    -0.032 A 
HETATM   35  C22 UNL     1       8.225  59.199  -5.268  1.00  0.00     0.009 A 
HETATM   36  C23 UNL     1       9.334  58.477  -4.825  1.00  0.00     0.001 A 
HETATM   37  C24 UNL     1      10.595  59.069  -4.818  1.00  0.00     0.000 A 
HETATM   38  C25 UNL     1      10.752  60.385  -5.255  1.00  0.00     0.001 A 
HETATM   39  C26 UNL     1       9.645  61.109  -5.700  1.00  0.00     0.009 A 
ENDBRANCH  33  34
ENDBRANCH  32  33
ENDBRANCH  30  32
ENDBRANCH   8  29
BRANCH   1  40
HETATM   40  N1  UNL     1       6.820  62.409 -11.689  1.00  0.00    -0.288 NA
HETATM   41  H1  UNL     1       7.480  61.692 -11.401  1.00  0.00     0.125 HD
HETATM   42  H2  UNL     1       5.879  62.086 -11.471  1.00  0.00     0.125 HD
ENDBRANCH   1  40
TORSDOF 9
ENDMDL
MODEL 8
REMARK minimizedAffinity -7.487391
REMARK  9 active torsions:
REMARK  status: ('A' for Active; 'I' for Inactive)
REMARK    1  A    between atoms: N1_1  and  C1_2 
REMARK    2  A    between atoms: C3_8  and  N4_9 
REMARK    3  A    between atoms: N4_9  and  C4_10 
REMARK    4  A    between atoms: N6_18  and  C10_19 
REMARK    5  A    between atoms: C10_19  and  C11_20 
REMARK    6  A    between atoms: C18_28  and  C19_29 
REMARK    7  A    between atoms: N7_30  and  O1_32 
REMARK    8  A    between atoms: O1_32  and  C20_33 
REMARK    9  A    between atoms: C20_33  and  C21_34 
ROOT
HETATM    1  C1  UNL     1      13.026  59.430   1.503  1.00  0.00     0.094 A 
HETATM    2  N2  UNL     1      12.884  58.662   0.416  1.00  0.00    -0.342 N 
ATOM      3  H2  UNL     1      12.579  59.049  -0.478  1.00  0.00     0.167 HD
HETATM    4  C2  UNL     1      13.164  57.362   0.559  1.00  0.00     0.183 A 
HETATM    5  N3  UNL     1      13.564  56.761   1.686  1.00  0.00    -0.338 N 
ATOM      6  H3  UNL     1      13.755  55.759   1.712  1.00  0.00     0.168 HD
HETATM    7  C3  UNL     1      13.704  57.529   2.783  1.00  0.00     0.121 A 
HETATM    8  C18 UNL     1      13.427  58.896   2.725  1.00  0.00     0.063 A 
ENDROOT
BRANCH   7   9
HETATM    9  N4  UNL     1      14.055  56.941   4.023  1.00  0.00    -0.342 N 
HETATM   10  H4  UNL     1      14.012  57.641   4.769  1.00  0.00     0.167 HD
BRANCH   9  11
HETATM   11  C4  UNL     1      14.880  55.846   4.350  1.00  0.00     0.034 A 
HETATM   12  C5  UNL     1      14.275  54.707   4.908  1.00  0.00     0.032 A 
HETATM   13  C6  UNL     1      14.995  53.547   5.226  1.00  0.00     0.034 A 
HETATM   14  C7  UNL     1      16.365  53.548   4.948  1.00  0.00     0.062 A 
HETATM   15  C8  UNL     1      17.000  54.644   4.375  1.00  0.00     0.011 A 
HETATM   16  N6  UNL     1      17.353  52.603   5.111  1.00  0.00    -0.288 N 
HETATM   17  C9  UNL     1      18.350  54.253   4.251  1.00  0.00     0.121 A 
HETATM   18  C17 UNL     1      16.251  55.796   4.061  1.00  0.00     0.044 A 
HETATM   19  N5  UNL     1      18.577  53.020   4.709  1.00  0.00    -0.308 N 
ATOM     20  H5  UNL     1      19.462  52.513   4.748  1.00  0.00     0.186 HD
BRANCH  16  21
HETATM   21  C10 UNL     1      17.205  51.269   5.679  1.00  0.00     0.187 C 
BRANCH  21  22
HETATM   22  C11 UNL     1      18.290  50.958   6.683  1.00  0.00    -0.035 A 
HETATM   23  C12 UNL     1      18.610  51.872   7.701  1.00  0.00     0.009 A 
HETATM   24  C13 UNL     1      19.616  51.581   8.629  1.00  0.00     0.004 A 
HETATM   25  C14 UNL     1      20.313  50.376   8.547  1.00  0.00     0.042 A 
HETATM   26  C15 UNL     1      20.002  49.472   7.540  1.00  0.00     0.117 A 
HETATM   27  F1  UNL     1      20.674  48.315   7.463  1.00  0.00    -0.206 F 
HETATM   28  C16 UNL     1      19.004  49.750   6.611  1.00  0.00     0.051 A 
ENDBRANCH  21  22
ENDBRANCH  16  21
ENDBRANCH   9  11
ENDBRANCH   7   9
BRANCH   8  29
HETATM   29  C19 UNL     1      13.587  59.778   3.887  1.00  0.00     0.132 C 
HETATM   30  N7  UNL     1      12.643  60.580   4.277  1.00  0.00    -0.277 N 
ATOM     31  H7  UNL     1      11.748  60.723   3.809  1.00  0.00     0.193 HD
BRANCH  30  32
HETATM   32  O1  UNL     1      13.068  61.219   5.459  1.00  0.00    -0.276 OA
BRANCH  32  33
HETATM   33  C20 UNL     1      11.990  62.001   5.996  1.00  0.00     0.239 C 
BRANCH  33  34
HETATM   34  C21 UNL     1      11.523  61.397   7.301  1.00  0.00    -0.032 A 
HETATM   35  C22 UNL     1      11.639  62.116   8.501  1.00  0.00     0.009 A 
HETATM   36  C23 UNL     1      11.148  61.582   9.694  1.00  0.00     0.001 A 
HETATM   37  C24 UNL     1      10.538  60.329   9.699  1.00  0.00     0.000 A 
HETATM   38  C25 UNL     1      10.416  59.606   8.512  1.00  0.00     0.001 A 
HETATM   39  C26 UNL     1      10.904  60.139   7.318  1.00  0.00     0.009 A 
ENDBRANCH  33  34
ENDBRANCH  32  33
ENDBRANCH  30  32
ENDBRANCH   8  29
BRANCH   1  40
HETATM   40  N1  UNL     1      12.771  60.795   1.310  1.00  0.00    -0.288 NA
HETATM   41  H1  UNL     1      11.999  61.113   1.888  1.00  0.00     0.125 HD
HETATM   42  H2  UNL     1      13.593  61.353   1.535  1.00  0.00     0.125 HD
ENDBRANCH   1  40
TORSDOF 9
ENDMDL
MODEL 9
REMARK minimizedAffinity -7.44345474
REMARK  9 active torsions:
REMARK  status: ('A' for Active; 'I' for Inactive)
REMARK    1  A    between atoms: N1_1  and  C1_2 
REMARK    2  A    between atoms: C3_8  and  N4_9 
REMARK    3  A    between atoms: N4_9  and  C4_10 
REMARK    4  A    between atoms: N6_18  and  C10_19 
REMARK    5  A    between atoms: C10_19  and  C11_20 
REMARK    6  A    between atoms: C18_28  and  C19_29 
REMARK    7  A    between atoms: N7_30  and  O1_32 
REMARK    8  A    between atoms: O1_32  and  C20_33 
REMARK    9  A    between atoms: C20_33  and  C21_34 
ROOT
HETATM    1  C1  UNL     1      13.294  61.558   3.028  1.00  0.00     0.094 A 
HETATM    2  N2  UNL     1      13.316  61.828   4.339  1.00  0.00    -0.342 N 
ATOM      3  H2  UNL     1      13.310  62.786   4.689  1.00  0.00     0.167 HD
HETATM    4  C2  UNL     1      13.346  60.778   5.166  1.00  0.00     0.183 A 
HETATM    5  N3  UNL     1      13.362  59.489   4.806  1.00  0.00    -0.338 N 
ATOM      6  H3  UNL     1      13.387  58.744   5.502  1.00  0.00     0.168 HD
HETATM    7  C3  UNL     1      13.342  59.214   3.487  1.00  0.00     0.121 A 
HETATM    8  C18 UNL     1      13.318  60.250   2.552  1.00  0.00     0.063 A 
ENDROOT
BRANCH   7   9
HETATM    9  N4  UNL     1      13.430  57.873   3.039  1.00  0.00    -0.342 N 
HETATM   10  H4  UNL     1      12.546  57.587   2.610  1.00  0.00     0.167 HD
BRANCH   9  11
HETATM   11  C4  UNL     1      14.201  56.778   3.479  1.00  0.00     0.034 A 
HETATM   12  C5  UNL     1      15.590  56.821   3.265  1.00  0.00     0.032 A 
HETATM   13  C6  UNL     1      16.455  55.809   3.704  1.00  0.00     0.034 A 
HETATM   14  C7  UNL     1      15.885  54.735   4.395  1.00  0.00     0.062 A 
HETATM   15  C8  UNL     1      14.519  54.664   4.649  1.00  0.00     0.011 A 
HETATM   16  N6  UNL     1      16.418  53.602   4.968  1.00  0.00    -0.288 N 
HETATM   17  C9  UNL     1      14.349  53.458   5.362  1.00  0.00     0.121 A 
HETATM   18  C17 UNL     1      13.673  55.699   4.201  1.00  0.00     0.044 A 
HETATM   19  N5  UNL     1      15.495  52.799   5.547  1.00  0.00    -0.308 N 
ATOM     20  H5  UNL     1      15.640  51.903   6.013  1.00  0.00     0.186 HD
BRANCH  16  21
HETATM   21  C10 UNL     1      17.819  53.201   4.976  1.00  0.00     0.187 C 
BRANCH  21  22
HETATM   22  C11 UNL     1      18.412  53.245   6.364  1.00  0.00    -0.035 A 
HETATM   23  C12 UNL     1      18.691  54.473   6.987  1.00  0.00     0.009 A 
HETATM   24  C13 UNL     1      19.242  54.511   8.273  1.00  0.00     0.004 A 
HETATM   25  C14 UNL     1      19.521  53.322   8.947  1.00  0.00     0.042 A 
HETATM   26  C15 UNL     1      19.251  52.107   8.332  1.00  0.00     0.117 A 
HETATM   27  F1  UNL     1      19.521  50.966   8.982  1.00  0.00    -0.206 F 
HETATM   28  C16 UNL     1      18.704  52.056   7.054  1.00  0.00     0.051 A 
ENDBRANCH  21  22
ENDBRANCH  16  21
ENDBRANCH   9  11
ENDBRANCH   7   9
BRANCH   8  29
HETATM   29  C19 UNL     1      13.273  60.000   1.106  1.00  0.00     0.132 C 
HETATM   30  N7  UNL     1      12.187  60.165   0.414  1.00  0.00    -0.277 N 
ATOM     31  H7  UNL     1      11.273  60.419   0.787  1.00  0.00     0.193 HD
BRANCH  30  32
HETATM   32  O1  UNL     1      12.490  59.932  -0.942  1.00  0.00    -0.276 OA
BRANCH  32  33
HETATM   33  C20 UNL     1      12.547  58.518  -1.187  1.00  0.00     0.239 C 
BRANCH  33  34
HETATM   34  C21 UNL     1      11.559  58.149  -2.271  1.00  0.00    -0.032 A 
HETATM   35  C22 UNL     1      10.710  57.043  -2.114  1.00  0.00     0.009 A 
HETATM   36  C23 UNL     1       9.755  56.743  -3.087  1.00  0.00     0.001 A 
HETATM   37  C24 UNL     1       9.640  57.543  -4.223  1.00  0.00     0.000 A 
HETATM   38  C25 UNL     1      10.477  58.646  -4.388  1.00  0.00     0.001 A 
HETATM   39  C26 UNL     1      11.432  58.949  -3.416  1.00  0.00     0.009 A 
ENDBRANCH  33  34
ENDBRANCH  32  33
ENDBRANCH  30  32
ENDBRANCH   8  29
BRANCH   1  40
HETATM   40  N1  UNL     1      13.216  62.678   2.187  1.00  0.00    -0.288 NA
HETATM   41  H1  UNL     1      14.026  62.741   1.578  1.00  0.00     0.125 HD
HETATM   42  H2  UNL     1      12.379  62.639   1.607  1.00  0.00     0.125 HD
ENDBRANCH   1  40
TORSDOF 9
ENDMDL
