MODEL 1
REMARK minimizedAffinity -7.22625971
REMARK  4 active torsions:
REMARK  status: ('A' for Active; 'I' for Inactive)
REMARK    1  A    between atoms: N1_1  and  C1_2 
REMARK    2  A    between atoms: C1_2  and  N2_4 
REMARK    3  A    between atoms: C2_7  and  C3_8 
REMARK    4  A    between atoms: C10_16  and  C11_17 
ROOT
HETATM    1  N2  UNL     1       1.544  64.451  -3.576  1.00  0.00    -0.258 N 
HETATM    2  N3  UNL     1       1.797  64.570  -4.931  1.00  0.00    -0.299 N 
ATOM      3  H3  UNL     1       1.240  64.179  -5.691  1.00  0.00     0.187 HD
HETATM    4  C2  UNL     1       2.881  65.278  -5.048  1.00  0.00     0.038 C 
HETATM    5  C9  UNL     1       3.550  65.650  -3.750  1.00  0.00     0.091 C 
HETATM    6  C10 UNL     1       2.456  65.271  -2.758  1.00  0.00     0.150 C 
ENDROOT
BRANCH   6   7
HETATM    7  C11 UNL     1       1.823  66.525  -2.154  1.00  0.00    -0.022 A 
HETATM    8  C12 UNL     1       1.108  66.435  -0.942  1.00  0.00     0.010 A 
HETATM    9  C13 UNL     1       0.499  67.551  -0.381  1.00  0.00     0.002 A 
HETATM   10  C14 UNL     1       0.579  68.780  -1.023  1.00  0.00     0.012 A 
HETATM   11  C15 UNL     1       1.262  68.912  -2.239  1.00  0.00    -0.025 A 
HETATM   12  C16 UNL     1       1.315  70.165  -2.872  1.00  0.00     0.012 A 
HETATM   13  C20 UNL     1       1.894  67.785  -2.827  1.00  0.00    -0.018 A 
HETATM   14  C17 UNL     1       1.979  70.331  -4.084  1.00  0.00     0.001 A 
HETATM   15  C18 UNL     1       2.599  69.244  -4.680  1.00  0.00     0.001 A 
HETATM   16  C19 UNL     1       2.558  67.991  -4.062  1.00  0.00     0.013 A 
ENDBRANCH   6   7
BRANCH   1  17
HETATM   17  C1  UNL     1       0.556  63.592  -3.125  1.00  0.00     0.187 C 
HETATM   18  S1  UNL     1      -1.066  63.929  -2.945  1.00  0.00    -0.040 SA
BRANCH  17  19
HETATM   19  N1  UNL     1       1.018  62.349  -2.803  1.00  0.00    -0.375 N 
HETATM   20  H1  UNL     1       2.024  62.236  -2.790  1.00  0.00     0.158 HD
HETATM   21  H2  UNL     1       0.414  61.672  -2.362  1.00  0.00     0.158 HD
ENDBRANCH  17  19
ENDBRANCH   1  17
BRANCH   4  22
HETATM   22  C3  UNL     1       3.459  65.659  -6.359  1.00  0.00    -0.012 A 
HETATM   23  C4  UNL     1       4.851  65.795  -6.473  1.00  0.00     0.016 A 
HETATM   24  C5  UNL     1       5.424  66.152  -7.695  1.00  0.00     0.043 A 
HETATM   25  C6  UNL     1       4.606  66.374  -8.797  1.00  0.00     0.116 A 
HETATM   26  F1  UNL     1       5.155  66.717  -9.969  1.00  0.00    -0.206 F 
HETATM   27  C7  UNL     1       3.225  66.244  -8.699  1.00  0.00     0.043 A 
HETATM   28  C8  UNL     1       2.647  65.886  -7.478  1.00  0.00     0.016 A 
ENDBRANCH   4  22
TORSDOF 4
ENDMDL
MODEL 2
REMARK minimizedAffinity -7.19532967
REMARK  4 active torsions:
REMARK  status: ('A' for Active; 'I' for Inactive)
REMARK    1  A    between atoms: N1_1  and  C1_2 
REMARK    2  A    between atoms: C1_2  and  N2_4 
REMARK    3  A    between atoms: C2_7  and  C3_8 
REMARK    4  A    between atoms: C10_16  and  C11_17 
ROOT
HETATM    1  N2  UNL     1      12.986  35.503  21.740  1.00  0.00    -0.258 N 
HETATM    2  N3  UNL     1      11.706  35.973  21.507  1.00  0.00    -0.299 N 
ATOM      3  H3  UNL     1      11.305  36.845  21.852  1.00  0.00     0.187 HD
HETATM    4  C2  UNL     1      11.113  35.089  20.762  1.00  0.00     0.038 C 
HETATM    5  C9  UNL     1      11.916  33.846  20.475  1.00  0.00     0.091 C 
HETATM    6  C10 UNL     1      13.291  34.289  20.962  1.00  0.00     0.150 C 
ENDROOT
BRANCH   6   7
HETATM    7  C11 UNL     1      14.235  34.506  19.779  1.00  0.00    -0.022 A 
HETATM    8  C12 UNL     1      15.602  34.187  19.905  1.00  0.00     0.010 A 
HETATM    9  C13 UNL     1      16.491  34.397  18.858  1.00  0.00     0.002 A 
HETATM   10  C14 UNL     1      16.036  34.943  17.663  1.00  0.00     0.012 A 
HETATM   11  C15 UNL     1      14.689  35.293  17.500  1.00  0.00    -0.025 A 
HETATM   12  C16 UNL     1      14.261  35.855  16.286  1.00  0.00     0.012 A 
HETATM   13  C20 UNL     1      13.765  35.083  18.558  1.00  0.00    -0.018 A 
HETATM   14  C17 UNL     1      12.933  36.221  16.091  1.00  0.00     0.001 A 
HETATM   15  C18 UNL     1      12.013  36.030  17.111  1.00  0.00     0.001 A 
HETATM   16  C19 UNL     1      12.422  35.470  18.325  1.00  0.00     0.013 A 
ENDBRANCH   6   7
BRANCH   1  17
HETATM   17  C1  UNL     1      13.803  36.137  22.661  1.00  0.00     0.187 C 
HETATM   18  S1  UNL     1      15.468  36.102  22.721  1.00  0.00    -0.040 SA
BRANCH  17  19
HETATM   19  N1  UNL     1      13.118  36.850  23.600  1.00  0.00    -0.375 N 
HETATM   20  H1  UNL     1      12.113  36.724  23.611  1.00  0.00     0.158 HD
HETATM   21  H2  UNL     1      13.597  37.265  24.385  1.00  0.00     0.158 HD
ENDBRANCH  17  19
ENDBRANCH   1  17
BRANCH   4  22
HETATM   22  C3  UNL     1       9.726  35.253  20.262  1.00  0.00    -0.012 A 
HETATM   23  C4  UNL     1       8.750  34.323  20.650  1.00  0.00     0.016 A 
HETATM   24  C5  UNL     1       7.437  34.452  20.196  1.00  0.00     0.043 A 
HETATM   25  C6  UNL     1       7.104  35.507  19.354  1.00  0.00     0.116 A 
HETATM   26  F1  UNL     1       5.844  35.631  18.918  1.00  0.00    -0.206 F 
HETATM   27  C7  UNL     1       8.060  36.436  18.959  1.00  0.00     0.043 A 
HETATM   28  C8  UNL     1       9.376  36.311  19.413  1.00  0.00     0.016 A 
ENDBRANCH   4  22
TORSDOF 4
ENDMDL
MODEL 3
REMARK minimizedAffinity -7.16678429
REMARK  4 active torsions:
REMARK  status: ('A' for Active; 'I' for Inactive)
REMARK    1  A    between atoms: N1_1  and  C1_2 
REMARK    2  A    between atoms: C1_2  and  N2_4 
REMARK    3  A    between atoms: C2_7  and  C3_8 
REMARK    4  A    between atoms: C10_16  and  C11_17 
ROOT
HETATM    1  N2  UNL     1      14.174  34.914  19.273  1.00  0.00    -0.258 N 
HETATM    2  N3  UNL     1      12.908  35.193  19.756  1.00  0.00    -0.299 N 
ATOM      3  H3  UNL     1      12.667  35.473  20.707  1.00  0.00     0.187 HD
HETATM    4  C2  UNL     1      12.084  35.030  18.764  1.00  0.00     0.038 C 
HETATM    5  C9  UNL     1      12.706  34.521  17.488  1.00  0.00     0.091 C 
HETATM    6  C10 UNL     1      14.185  34.696  17.815  1.00  0.00     0.150 C 
ENDROOT
BRANCH   6   7
HETATM    7  C11 UNL     1      14.782  35.843  16.999  1.00  0.00    -0.022 A 
HETATM    8  C12 UNL     1      14.032  37.017  16.787  1.00  0.00     0.010 A 
HETATM    9  C13 UNL     1      14.536  38.067  16.028  1.00  0.00     0.002 A 
HETATM   10  C14 UNL     1      15.796  37.963  15.454  1.00  0.00     0.012 A 
HETATM   11  C15 UNL     1      16.570  36.807  15.622  1.00  0.00    -0.025 A 
HETATM   12  C16 UNL     1      17.835  36.725  15.018  1.00  0.00     0.012 A 
HETATM   13  C20 UNL     1      16.074  35.725  16.396  1.00  0.00    -0.018 A 
HETATM   14  C17 UNL     1      18.628  35.589  15.159  1.00  0.00     0.001 A 
HETATM   15  C18 UNL     1      18.162  34.518  15.906  1.00  0.00     0.001 A 
HETATM   16  C19 UNL     1      16.906  34.584  16.515  1.00  0.00     0.013 A 
ENDBRANCH   6   7
BRANCH   1  17
HETATM   17  C1  UNL     1      15.246  34.818  20.144  1.00  0.00     0.187 C 
HETATM   18  S1  UNL     1      15.543  35.765  21.482  1.00  0.00    -0.040 SA
BRANCH  17  19
HETATM   19  N1  UNL     1      16.127  33.828  19.820  1.00  0.00    -0.375 N 
HETATM   20  H1  UNL     1      15.983  33.378  18.923  1.00  0.00     0.158 HD
HETATM   21  H2  UNL     1      17.000  33.731  20.315  1.00  0.00     0.158 HD
ENDBRANCH  17  19
ENDBRANCH   1  17
BRANCH   4  22
HETATM   22  C3  UNL     1      10.626  35.275  18.876  1.00  0.00    -0.012 A 
HETATM   23  C4  UNL     1       9.974  35.969  17.845  1.00  0.00     0.016 A 
HETATM   24  C5  UNL     1       8.602  36.216  17.923  1.00  0.00     0.043 A 
HETATM   25  C6  UNL     1       7.888  35.771  19.028  1.00  0.00     0.116 A 
HETATM   26  F1  UNL     1       6.572  36.006  19.104  1.00  0.00    -0.206 F 
HETATM   27  C7  UNL     1       8.520  35.082  20.058  1.00  0.00     0.043 A 
HETATM   28  C8  UNL     1       9.893  34.833  19.984  1.00  0.00     0.016 A 
ENDBRANCH   4  22
TORSDOF 4
ENDMDL
MODEL 4
REMARK minimizedAffinity -7.15869713
REMARK  4 active torsions:
REMARK  status: ('A' for Active; 'I' for Inactive)
REMARK    1  A    between atoms: N1_1  and  C1_2 
REMARK    2  A    between atoms: C1_2  and  N2_4 
REMARK    3  A    between atoms: C2_7  and  C3_8 
REMARK    4  A    between atoms: C10_16  and  C11_17 
ROOT
HETATM    1  N2  UNL     1      12.755  59.545   7.509  1.00  0.00    -0.258 N 
HETATM    2  N3  UNL     1      12.897  58.906   8.728  1.00  0.00    -0.299 N 
ATOM      3  H3  UNL     1      12.161  58.729   9.411  1.00  0.00     0.187 HD
HETATM    4  C2  UNL     1      14.150  58.577   8.834  1.00  0.00     0.038 C 
HETATM    5  C9  UNL     1      15.036  59.047   7.709  1.00  0.00     0.091 C 
HETATM    6  C10 UNL     1      13.985  59.492   6.698  1.00  0.00     0.150 C 
ENDROOT
BRANCH   6   7
HETATM    7  C11 UNL     1      13.934  58.524   5.516  1.00  0.00    -0.022 A 
HETATM    8  C12 UNL     1      14.260  57.166   5.708  1.00  0.00     0.010 A 
HETATM    9  C13 UNL     1      14.248  56.266   4.649  1.00  0.00     0.002 A 
HETATM   10  C14 UNL     1      13.923  56.704   3.371  1.00  0.00     0.012 A 
HETATM   11  C15 UNL     1      13.611  58.049   3.131  1.00  0.00    -0.025 A 
HETATM   12  C16 UNL     1      13.298  58.466   1.826  1.00  0.00     0.012 A 
HETATM   13  C20 UNL     1      13.614  58.983   4.200  1.00  0.00    -0.018 A 
HETATM   14  C17 UNL     1      12.991  59.794   1.550  1.00  0.00     0.001 A 
HETATM   15  C18 UNL     1      12.993  60.726   2.577  1.00  0.00     0.001 A 
HETATM   16  C19 UNL     1      13.299  60.328   3.881  1.00  0.00     0.013 A 
ENDBRANCH   6   7
BRANCH   1  17
HETATM   17  C1  UNL     1      11.567  60.182   7.190  1.00  0.00     0.187 C 
HETATM   18  S1  UNL     1      11.383  61.715   6.565  1.00  0.00    -0.040 SA
BRANCH  17  19
HETATM   19  N1  UNL     1      10.458  59.427   7.441  1.00  0.00    -0.375 N 
HETATM   20  H1  UNL     1      10.610  58.567   7.954  1.00  0.00     0.158 HD
HETATM   21  H2  UNL     1       9.534  59.822   7.353  1.00  0.00     0.158 HD
ENDBRANCH  17  19
ENDBRANCH   1  17
BRANCH   4  22
HETATM   22  C3  UNL     1      14.693  57.833   9.995  1.00  0.00    -0.012 A 
HETATM   23  C4  UNL     1      13.810  57.102  10.806  1.00  0.00     0.016 A 
HETATM   24  C5  UNL     1      14.292  56.392  11.907  1.00  0.00     0.043 A 
HETATM   25  C6  UNL     1      15.651  56.415  12.195  1.00  0.00     0.116 A 
HETATM   26  F1  UNL     1      16.115  55.734  13.251  1.00  0.00    -0.206 F 
HETATM   27  C7  UNL     1      16.538  57.135  11.402  1.00  0.00     0.043 A 
HETATM   28  C8  UNL     1      16.060  57.847  10.299  1.00  0.00     0.016 A 
ENDBRANCH   4  22
TORSDOF 4
ENDMDL
MODEL 5
REMARK minimizedAffinity -6.96251297
REMARK  4 active torsions:
REMARK  status: ('A' for Active; 'I' for Inactive)
REMARK    1  A    between atoms: N1_1  and  C1_2 
REMARK    2  A    between atoms: C1_2  and  N2_4 
REMARK    3  A    between atoms: C2_7  and  C3_8 
REMARK    4  A    between atoms: C10_16  and  C11_17 
ROOT
HETATM    1  N2  UNL     1      13.556  59.200   5.172  1.00  0.00    -0.258 N 
HETATM    2  N3  UNL     1      13.712  57.866   5.503  1.00  0.00    -0.299 N 
ATOM      3  H3  UNL     1      13.118  57.320   6.127  1.00  0.00     0.187 HD
HETATM    4  C2  UNL     1      14.762  57.443   4.864  1.00  0.00     0.038 C 
HETATM    5  C9  UNL     1      15.505  58.493   4.080  1.00  0.00     0.091 C 
HETATM    6  C10 UNL     1      14.494  59.634   4.121  1.00  0.00     0.150 C 
ENDROOT
BRANCH   6   7
HETATM    7  C11 UNL     1      13.863  59.841   2.744  1.00  0.00    -0.022 A 
HETATM    8  C12 UNL     1      13.469  61.133   2.340  1.00  0.00     0.010 A 
HETATM    9  C13 UNL     1      12.869  61.350   1.106  1.00  0.00     0.002 A 
HETATM   10  C14 UNL     1      12.635  60.280   0.252  1.00  0.00     0.012 A 
HETATM   11  C15 UNL     1      12.992  58.976   0.620  1.00  0.00    -0.025 A 
HETATM   12  C16 UNL     1      12.731  57.911  -0.260  1.00  0.00     0.012 A 
HETATM   13  C20 UNL     1      13.610  58.734   1.875  1.00  0.00    -0.018 A 
HETATM   14  C17 UNL     1      13.065  56.603   0.076  1.00  0.00     0.001 A 
HETATM   15  C18 UNL     1      13.665  56.341   1.299  1.00  0.00     0.001 A 
HETATM   16  C19 UNL     1      13.933  57.389   2.184  1.00  0.00     0.013 A 
ENDBRANCH   6   7
BRANCH   1  17
HETATM   17  C1  UNL     1      12.630  59.980   5.844  1.00  0.00     0.187 C 
HETATM   18  S1  UNL     1      12.228  61.565   5.526  1.00  0.00    -0.040 SA
BRANCH  17  19
HETATM   19  N1  UNL     1      12.013  59.331   6.874  1.00  0.00    -0.375 N 
HETATM   20  H1  UNL     1      12.392  58.424   7.121  1.00  0.00     0.158 HD
HETATM   21  H2  UNL     1      11.400  59.826   7.503  1.00  0.00     0.158 HD
ENDBRANCH  17  19
ENDBRANCH   1  17
BRANCH   4  22
HETATM   22  C3  UNL     1      15.236  56.039   4.930  1.00  0.00    -0.012 A 
HETATM   23  C4  UNL     1      14.291  55.011   5.067  1.00  0.00     0.016 A 
HETATM   24  C5  UNL     1      14.707  53.679   5.132  1.00  0.00     0.043 A 
HETATM   25  C6  UNL     1      16.062  53.381   5.062  1.00  0.00     0.116 A 
HETATM   26  F1  UNL     1      16.462  52.104   5.124  1.00  0.00    -0.206 F 
HETATM   27  C7  UNL     1      17.010  54.389   4.927  1.00  0.00     0.043 A 
HETATM   28  C8  UNL     1      16.598  55.723   4.861  1.00  0.00     0.016 A 
ENDBRANCH   4  22
TORSDOF 4
ENDMDL
MODEL 6
REMARK minimizedAffinity -6.94246006
REMARK  4 active torsions:
REMARK  status: ('A' for Active; 'I' for Inactive)
REMARK    1  A    between atoms: N1_1  and  C1_2 
REMARK    2  A    between atoms: C1_2  and  N2_4 
REMARK    3  A    between atoms: C2_7  and  C3_8 
REMARK    4  A    between atoms: C10_16  and  C11_17 
ROOT
HETATM    1  N2  UNL     1       1.944  65.274  -4.923  1.00  0.00    -0.258 N 
HETATM    2  N3  UNL     1       2.960  64.977  -5.814  1.00  0.00    -0.299 N 
ATOM      3  H3  UNL     1       2.850  64.654  -6.776  1.00  0.00     0.187 HD
HETATM    4  C2  UNL     1       4.080  65.189  -5.190  1.00  0.00     0.038 C 
HETATM    5  C9  UNL     1       3.944  65.577  -3.740  1.00  0.00     0.091 C 
HETATM    6  C10 UNL     1       2.449  65.866  -3.671  1.00  0.00     0.150 C 
ENDROOT
BRANCH   6   7
HETATM    7  C11 UNL     1       2.199  67.367  -3.525  1.00  0.00    -0.022 A 
HETATM    8  C12 UNL     1       2.552  68.242  -4.572  1.00  0.00     0.010 A 
HETATM    9  C13 UNL     1       2.362  69.614  -4.460  1.00  0.00     0.002 A 
HETATM   10  C14 UNL     1       1.826  70.145  -3.293  1.00  0.00     0.012 A 
HETATM   11  C15 UNL     1       1.478  69.316  -2.219  1.00  0.00    -0.025 A 
HETATM   12  C16 UNL     1       0.951  69.883  -1.047  1.00  0.00     0.012 A 
HETATM   13  C20 UNL     1       1.662  67.911  -2.316  1.00  0.00    -0.018 A 
HETATM   14  C17 UNL     1       0.601  69.090   0.042  1.00  0.00     0.001 A 
HETATM   15  C18 UNL     1       0.776  67.716  -0.027  1.00  0.00     0.001 A 
HETATM   16  C19 UNL     1       1.298  67.135  -1.186  1.00  0.00     0.013 A 
ENDBRANCH   6   7
BRANCH   1  17
HETATM   17  C1  UNL     1       0.631  64.966  -5.236  1.00  0.00     0.187 C 
HETATM   18  S1  UNL     1      -0.673  64.946  -4.199  1.00  0.00    -0.040 SA
BRANCH  17  19
HETATM   19  N1  UNL     1       0.443  64.647  -6.549  1.00  0.00    -0.375 N 
HETATM   20  H1  UNL     1       1.281  64.531  -7.105  1.00  0.00     0.158 HD
HETATM   21  H2  UNL     1      -0.447  64.300  -6.873  1.00  0.00     0.158 HD
ENDBRANCH  17  19
ENDBRANCH   1  17
BRANCH   4  22
HETATM   22  C3  UNL     1       5.406  65.019  -5.831  1.00  0.00    -0.012 A 
HETATM   23  C4  UNL     1       6.322  64.121  -5.264  1.00  0.00     0.016 A 
HETATM   24  C5  UNL     1       7.579  63.939  -5.845  1.00  0.00     0.043 A 
HETATM   25  C6  UNL     1       7.916  64.656  -6.986  1.00  0.00     0.116 A 
HETATM   26  F1  UNL     1       9.120  64.482  -7.544  1.00  0.00    -0.206 F 
HETATM   27  C7  UNL     1       7.019  65.551  -7.559  1.00  0.00     0.043 A 
HETATM   28  C8  UNL     1       5.760  65.735  -6.981  1.00  0.00     0.016 A 
ENDBRANCH   4  22
TORSDOF 4
ENDMDL
MODEL 7
REMARK minimizedAffinity -6.9008317
REMARK  4 active torsions:
REMARK  status: ('A' for Active; 'I' for Inactive)
REMARK    1  A    between atoms: N1_1  and  C1_2 
REMARK    2  A    between atoms: C1_2  and  N2_4 
REMARK    3  A    between atoms: C2_7  and  C3_8 
REMARK    4  A    between atoms: C10_16  and  C11_17 
ROOT
HETATM    1  N2  UNL     1       3.659  65.398  -5.716  1.00  0.00    -0.258 N 
HETATM    2  N3  UNL     1       2.884  64.979  -4.649  1.00  0.00    -0.299 N 
ATOM      3  H3  UNL     1       3.220  64.684  -3.732  1.00  0.00     0.187 HD
HETATM    4  C2  UNL     1       1.646  65.033  -5.041  1.00  0.00     0.038 C 
HETATM    5  C9  UNL     1       1.445  65.420  -6.484  1.00  0.00     0.091 C 
HETATM    6  C10 UNL     1       2.846  65.904  -6.837  1.00  0.00     0.150 C 
ENDROOT
BRANCH   6   7
HETATM    7  C11 UNL     1       2.862  67.424  -7.006  1.00  0.00    -0.022 A 
HETATM    8  C12 UNL     1       3.130  67.986  -8.271  1.00  0.00     0.010 A 
HETATM    9  C13 UNL     1       3.177  69.363  -8.451  1.00  0.00     0.002 A 
HETATM   10  C14 UNL     1       2.971  70.211  -7.370  1.00  0.00     0.012 A 
HETATM   11  C15 UNL     1       2.721  69.696  -6.091  1.00  0.00    -0.025 A 
HETATM   12  C16 UNL     1       2.530  70.577  -5.014  1.00  0.00     0.012 A 
HETATM   13  C20 UNL     1       2.665  68.292  -5.887  1.00  0.00    -0.018 A 
HETATM   14  C17 UNL     1       2.286  70.101  -3.729  1.00  0.00     0.001 A 
HETATM   15  C18 UNL     1       2.232  68.734  -3.504  1.00  0.00     0.001 A 
HETATM   16  C19 UNL     1       2.419  67.843  -4.565  1.00  0.00     0.013 A 
ENDBRANCH   6   7
BRANCH   1  17
HETATM   17  C1  UNL     1       5.037  65.271  -5.669  1.00  0.00     0.187 C 
HETATM   18  S1  UNL     1       6.100  65.356  -6.948  1.00  0.00    -0.040 SA
BRANCH  17  19
HETATM   19  N1  UNL     1       5.522  65.049  -4.413  1.00  0.00    -0.375 N 
HETATM   20  H1  UNL     1       4.833  64.860  -3.695  1.00  0.00     0.158 HD
HETATM   21  H2  UNL     1       6.496  64.832  -4.267  1.00  0.00     0.158 HD
ENDBRANCH  17  19
ENDBRANCH   1  17
BRANCH   4  22
HETATM   22  C3  UNL     1       0.504  64.695  -4.158  1.00  0.00    -0.012 A 
HETATM   23  C4  UNL     1      -0.731  65.322  -4.377  1.00  0.00     0.016 A 
HETATM   24  C5  UNL     1      -1.825  65.025  -3.562  1.00  0.00     0.043 A 
HETATM   25  C6  UNL     1      -1.680  64.104  -2.531  1.00  0.00     0.116 A 
HETATM   26  F1  UNL     1      -2.728  63.818  -1.749  1.00  0.00    -0.206 F 
HETATM   27  C7  UNL     1      -0.462  63.475  -2.300  1.00  0.00     0.043 A 
HETATM   28  C8  UNL     1       0.635  63.770  -3.114  1.00  0.00     0.016 A 
ENDBRANCH   4  22
TORSDOF 4
ENDMDL
MODEL 8
REMARK minimizedAffinity -6.89005566
REMARK  4 active torsions:
REMARK  status: ('A' for Active; 'I' for Inactive)
REMARK    1  A    between atoms: N1_1  and  C1_2 
REMARK    2  A    between atoms: C1_2  and  N2_4 
REMARK    3  A    between atoms: C2_7  and  C3_8 
REMARK    4  A    between atoms: C10_16  and  C11_17 
ROOT
HETATM    1  N2  UNL     1      12.202  37.219  22.156  1.00  0.00    -0.258 N 
HETATM    2  N3  UNL     1      13.410  36.716  21.707  1.00  0.00    -0.299 N 
ATOM      3  H3  UNL     1      14.288  36.689  22.225  1.00  0.00     0.187 HD
HETATM    4  C2  UNL     1      13.210  36.286  20.497  1.00  0.00     0.038 C 
HETATM    5  C9  UNL     1      11.830  36.537  19.945  1.00  0.00     0.091 C 
HETATM    6  C10 UNL     1      11.098  36.958  21.214  1.00  0.00     0.150 C 
ENDROOT
BRANCH   6   7
HETATM    7  C11 UNL     1      10.122  35.867  21.657  1.00  0.00    -0.022 A 
HETATM    8  C12 UNL     1      10.440  35.047  22.759  1.00  0.00     0.010 A 
HETATM    9  C13 UNL     1       9.586  34.030  23.170  1.00  0.00     0.002 A 
HETATM   10  C14 UNL     1       8.402  33.800  22.481  1.00  0.00     0.012 A 
HETATM   11  C15 UNL     1       8.056  34.577  21.368  1.00  0.00    -0.025 A 
HETATM   12  C16 UNL     1       6.858  34.311  20.683  1.00  0.00     0.012 A 
HETATM   13  C20 UNL     1       8.912  35.623  20.935  1.00  0.00    -0.018 A 
HETATM   14  C17 UNL     1       6.485  35.058  19.569  1.00  0.00     0.001 A 
HETATM   15  C18 UNL     1       7.308  36.081  19.124  1.00  0.00     0.001 A 
HETATM   16  C19 UNL     1       8.502  36.360  19.795  1.00  0.00     0.013 A 
ENDBRANCH   6   7
BRANCH   1  17
HETATM   17  C1  UNL     1      12.140  37.922  23.347  1.00  0.00     0.187 C 
HETATM   18  S1  UNL     1      13.418  38.543  24.217  1.00  0.00    -0.040 SA
BRANCH  17  19
HETATM   19  N1  UNL     1      10.870  38.091  23.816  1.00  0.00    -0.375 N 
HETATM   20  H1  UNL     1      10.143  37.575  23.335  1.00  0.00     0.158 HD
HETATM   21  H2  UNL     1      10.705  38.491  24.728  1.00  0.00     0.158 HD
ENDBRANCH  17  19
ENDBRANCH   1  17
BRANCH   4  22
HETATM   22  C3  UNL     1      14.267  35.635  19.686  1.00  0.00    -0.012 A 
HETATM   23  C4  UNL     1      14.004  35.341  18.339  1.00  0.00     0.016 A 
HETATM   24  C5  UNL     1      14.980  34.728  17.550  1.00  0.00     0.043 A 
HETATM   25  C6  UNL     1      16.212  34.411  18.109  1.00  0.00     0.116 A 
HETATM   26  F1  UNL     1      17.148  33.824  17.354  1.00  0.00    -0.206 F 
HETATM   27  C7  UNL     1      16.487  34.696  19.442  1.00  0.00     0.043 A 
HETATM   28  C8  UNL     1      15.513  35.309  20.235  1.00  0.00     0.016 A 
ENDBRANCH   4  22
TORSDOF 4
ENDMDL
MODEL 9
REMARK minimizedAffinity -6.83703709
REMARK  4 active torsions:
REMARK  status: ('A' for Active; 'I' for Inactive)
REMARK    1  A    between atoms: N1_1  and  C1_2 
REMARK    2  A    between atoms: C1_2  and  N2_4 
REMARK    3  A    between atoms: C2_7  and  C3_8 
REMARK    4  A    between atoms: C10_16  and  C11_17 
ROOT
HETATM    1  N2  UNL     1      14.665  57.232   2.174  1.00  0.00    -0.258 N 
HETATM    2  N3  UNL     1      13.714  58.173   2.528  1.00  0.00    -0.299 N 
ATOM      3  H3  UNL     1      12.889  58.437   1.990  1.00  0.00     0.187 HD
HETATM    4  C2  UNL     1      14.077  58.656   3.679  1.00  0.00     0.038 C 
HETATM    5  C9  UNL     1      15.395  58.147   4.204  1.00  0.00     0.091 C 
HETATM    6  C10 UNL     1      15.639  56.982   3.251  1.00  0.00     0.150 C 
ENDROOT
BRANCH   6   7
HETATM    7  C11 UNL     1      15.463  55.649   3.978  1.00  0.00    -0.022 A 
HETATM    8  C12 UNL     1      14.182  55.251   4.412  1.00  0.00     0.010 A 
HETATM    9  C13 UNL     1      13.993  54.057   5.099  1.00  0.00     0.002 A 
HETATM   10  C14 UNL     1      15.081  53.240   5.380  1.00  0.00     0.012 A 
HETATM   11  C15 UNL     1      16.374  53.605   4.985  1.00  0.00    -0.025 A 
HETATM   12  C16 UNL     1      17.457  52.764   5.294  1.00  0.00     0.012 A 
HETATM   13  C20 UNL     1      16.588  54.819   4.279  1.00  0.00    -0.018 A 
HETATM   14  C17 UNL     1      18.756  53.099   4.923  1.00  0.00     0.001 A 
HETATM   15  C18 UNL     1      18.990  54.281   4.238  1.00  0.00     0.001 A 
HETATM   16  C19 UNL     1      17.924  55.128   3.921  1.00  0.00     0.013 A 
ENDBRANCH   6   7
BRANCH   1  17
HETATM   17  C1  UNL     1      14.655  56.676   0.905  1.00  0.00     0.187 C 
HETATM   18  S1  UNL     1      13.328  56.403  -0.064  1.00  0.00    -0.040 SA
BRANCH  17  19
HETATM   19  N1  UNL     1      15.894  56.328   0.452  1.00  0.00    -0.375 N 
HETATM   20  H1  UNL     1      16.647  56.378   1.128  1.00  0.00     0.158 HD
HETATM   21  H2  UNL     1      16.003  55.816  -0.411  1.00  0.00     0.158 HD
ENDBRANCH  17  19
ENDBRANCH   1  17
BRANCH   4  22
HETATM   22  C3  UNL     1      13.285  59.671   4.414  1.00  0.00    -0.012 A 
HETATM   23  C4  UNL     1      12.944  60.866   3.762  1.00  0.00     0.016 A 
HETATM   24  C5  UNL     1      12.199  61.842   4.428  1.00  0.00     0.043 A 
HETATM   25  C6  UNL     1      11.800  61.621   5.741  1.00  0.00     0.116 A 
HETATM   26  F1  UNL     1      11.086  62.556   6.380  1.00  0.00    -0.206 F 
HETATM   27  C7  UNL     1      12.132  60.443   6.400  1.00  0.00     0.043 A 
HETATM   28  C8  UNL     1      12.877  59.464   5.737  1.00  0.00     0.016 A 
ENDBRANCH   4  22
TORSDOF 4
ENDMDL
