MODEL 1
REMARK minimizedAffinity -7.18392181
REMARK  2 active torsions:
REMARK  status: ('A' for Active; 'I' for Inactive)
REMARK    1  A    between atoms: C5_6  and  N2_7 
REMARK    2  A    between atoms: N2_7  and  C6_8 
ROOT
HETATM    1  N1  UNL     1       4.927  33.898  19.980  1.00  0.00    -0.191 NA
HETATM    2  C1  UNL     1       5.986  34.361  19.877  1.00  0.00     0.099 C 
HETATM    3  C2  UNL     1       7.299  34.924  19.754  1.00  0.00     0.044 A 
HETATM    4  C3  UNL     1       7.536  35.969  18.860  1.00  0.00     0.025 A 
HETATM    5  C4  UNL     1       8.819  36.515  18.740  1.00  0.00     0.031 A 
HETATM    6  C5  UNL     1       9.881  36.050  19.527  1.00  0.00     0.033 A 
HETATM    7  C14 UNL     1       9.634  34.974  20.393  1.00  0.00     0.031 A 
HETATM    8  C15 UNL     1       8.355  34.422  20.518  1.00  0.00     0.025 A 
ENDROOT
BRANCH   6   9
HETATM    9  N2  UNL     1      11.202  36.529  19.388  1.00  0.00    -0.341 N 
HETATM   10  H3  UNL     1      11.235  37.544  19.369  1.00  0.00     0.167 HD
BRANCH   9  11
HETATM   11  C6  UNL     1      12.230  36.035  18.537  1.00  0.00     0.131 A 
HETATM   12  N3  UNL     1      12.184  36.266  17.204  1.00  0.00    -0.285 N 
HETATM   13  N4  UNL     1      13.176  35.831  16.374  1.00  0.00    -0.309 N 
ATOM     14  H3  UNL     1      11.392  36.776  16.812  1.00  0.00     0.188 HD
HETATM   15  C7  UNL     1      14.216  35.159  16.894  1.00  0.00     0.119 A 
ATOM     16  H4  UNL     1      13.128  36.014  15.371  1.00  0.00     0.186 HD
HETATM   17  C8  UNL     1      14.333  34.872  18.247  1.00  0.00    -0.005 A 
HETATM   18  C9  UNL     1      15.435  34.159  18.756  1.00  0.00     0.014 A 
HETATM   19  C13 UNL     1      13.307  35.313  19.107  1.00  0.00     0.021 A 
HETATM   20  C10 UNL     1      15.526  33.870  20.116  1.00  0.00     0.001 A 
HETATM   21  C11 UNL     1      14.518  34.283  20.980  1.00  0.00     0.001 A 
HETATM   22  C12 UNL     1      13.422  34.992  20.483  1.00  0.00     0.016 A 
ENDBRANCH   9  11
ENDBRANCH   6   9
TORSDOF 2
ENDMDL
MODEL 2
REMARK minimizedAffinity -6.97274828
REMARK  2 active torsions:
REMARK  status: ('A' for Active; 'I' for Inactive)
REMARK    1  A    between atoms: C5_6  and  N2_7 
REMARK    2  A    between atoms: N2_7  and  C6_8 
ROOT
HETATM    1  N1  UNL     1      18.835  35.483  18.884  1.00  0.00    -0.191 NA
HETATM    2  C1  UNL     1      17.703  35.231  18.918  1.00  0.00     0.099 C 
HETATM    3  C2  UNL     1      16.304  34.918  18.951  1.00  0.00     0.044 A 
HETATM    4  C3  UNL     1      15.682  34.599  20.159  1.00  0.00     0.025 A 
HETATM    5  C4  UNL     1      14.317  34.291  20.188  1.00  0.00     0.031 A 
HETATM    6  C5  UNL     1      13.543  34.322  19.021  1.00  0.00     0.033 A 
HETATM    7  C14 UNL     1      14.191  34.607  17.809  1.00  0.00     0.031 A 
HETATM    8  C15 UNL     1      15.555  34.915  17.773  1.00  0.00     0.025 A 
ENDROOT
BRANCH   6   9
HETATM    9  N2  UNL     1      12.180  33.954  18.998  1.00  0.00    -0.341 N 
HETATM   10  H3  UNL     1      12.052  33.002  18.667  1.00  0.00     0.167 HD
BRANCH   9  11
HETATM   11  C6  UNL     1      11.068  34.729  18.563  1.00  0.00     0.131 A 
HETATM   12  N3  UNL     1      11.004  35.175  17.286  1.00  0.00    -0.285 N 
HETATM   13  N4  UNL     1       9.931  35.891  16.839  1.00  0.00    -0.309 N 
ATOM     14  H3  UNL     1      11.771  34.971  16.647  1.00  0.00     0.188 HD
HETATM   15  C7  UNL     1       8.923  36.157  17.686  1.00  0.00     0.119 A 
ATOM     16  H4  UNL     1       9.897  36.219  15.874  1.00  0.00     0.186 HD
HETATM   17  C8  UNL     1       8.917  35.745  19.011  1.00  0.00    -0.005 A 
HETATM   18  C9  UNL     1       7.845  36.048  19.872  1.00  0.00     0.014 A 
HETATM   19  C13 UNL     1      10.026  35.011  19.480  1.00  0.00     0.021 A 
HETATM   20  C10 UNL     1       7.866  35.635  21.203  1.00  0.00     0.001 A 
HETATM   21  C11 UNL     1       8.956  34.924  21.690  1.00  0.00     0.001 A 
HETATM   22  C12 UNL     1      10.023  34.617  20.842  1.00  0.00     0.016 A 
ENDBRANCH   9  11
ENDBRANCH   6   9
TORSDOF 2
ENDMDL
MODEL 3
REMARK minimizedAffinity -6.95944786
REMARK  2 active torsions:
REMARK  status: ('A' for Active; 'I' for Inactive)
REMARK    1  A    between atoms: C5_6  and  N2_7 
REMARK    2  A    between atoms: N2_7  and  C6_8 
ROOT
HETATM    1  N1  UNL     1       6.902  36.090  21.908  1.00  0.00    -0.191 NA
HETATM    2  C1  UNL     1       7.727  35.886  21.118  1.00  0.00     0.099 C 
HETATM    3  C2  UNL     1       8.748  35.626  20.147  1.00  0.00     0.044 A 
HETATM    4  C3  UNL     1       8.667  36.186  18.871  1.00  0.00     0.025 A 
HETATM    5  C4  UNL     1       9.665  35.927  17.924  1.00  0.00     0.031 A 
HETATM    6  C5  UNL     1      10.773  35.131  18.238  1.00  0.00     0.033 A 
HETATM    7  C14 UNL     1      10.821  34.544  19.513  1.00  0.00     0.031 A 
HETATM    8  C15 UNL     1       9.827  34.797  20.464  1.00  0.00     0.025 A 
ENDROOT
BRANCH   6   9
HETATM    9  N2  UNL     1      11.765  34.793  17.292  1.00  0.00    -0.341 N 
HETATM   10  H3  UNL     1      12.044  33.820  17.369  1.00  0.00     0.167 HD
BRANCH   9  11
HETATM   11  C6  UNL     1      12.904  35.553  16.904  1.00  0.00     0.131 A 
HETATM   12  N3  UNL     1      12.796  36.508  15.950  1.00  0.00    -0.285 N 
HETATM   13  N4  UNL     1      13.867  37.272  15.587  1.00  0.00    -0.309 N 
ATOM     14  H3  UNL     1      11.896  36.659  15.494  1.00  0.00     0.188 HD
HETATM   15  C7  UNL     1      15.050  37.068  16.190  1.00  0.00     0.119 A 
ATOM     16  H4  UNL     1      13.770  37.988  14.867  1.00  0.00     0.186 HD
HETATM   17  C8  UNL     1      15.246  36.104  17.169  1.00  0.00    -0.005 A 
HETATM   18  C9  UNL     1      16.502  35.914  17.775  1.00  0.00     0.014 A 
HETATM   19  C13 UNL     1      14.144  35.308  17.542  1.00  0.00     0.021 A 
HETATM   20  C10 UNL     1      16.680  34.931  18.746  1.00  0.00     0.001 A 
HETATM   21  C11 UNL     1      15.611  34.125  19.118  1.00  0.00     0.001 A 
HETATM   22  C12 UNL     1      14.361  34.308  18.524  1.00  0.00     0.016 A 
ENDBRANCH   9  11
ENDBRANCH   6   9
TORSDOF 2
ENDMDL
MODEL 4
REMARK minimizedAffinity -6.74774981
REMARK  2 active torsions:
REMARK  status: ('A' for Active; 'I' for Inactive)
REMARK    1  A    between atoms: C5_6  and  N2_7 
REMARK    2  A    between atoms: N2_7  and  C6_8 
ROOT
HETATM    1  N1  UNL     1      13.291  57.483   2.721  1.00  0.00    -0.191 NA
HETATM    2  C1  UNL     1      13.921  56.670   3.257  1.00  0.00     0.099 C 
HETATM    3  C2  UNL     1      14.709  55.671   3.919  1.00  0.00     0.044 A 
HETATM    4  C3  UNL     1      14.091  54.679   4.682  1.00  0.00     0.025 A 
HETATM    5  C4  UNL     1      14.863  53.707   5.329  1.00  0.00     0.031 A 
HETATM    6  C5  UNL     1      16.258  53.690   5.207  1.00  0.00     0.033 A 
HETATM    7  C14 UNL     1      16.866  54.717   4.468  1.00  0.00     0.031 A 
HETATM    8  C15 UNL     1      16.102  55.692   3.819  1.00  0.00     0.025 A 
ENDROOT
BRANCH   6   9
HETATM    9  N2  UNL     1      17.074  52.767   5.898  1.00  0.00    -0.341 N 
HETATM   10  H3  UNL     1      17.986  53.159   6.113  1.00  0.00     0.167 HD
BRANCH   9  11
HETATM   11  C6  UNL     1      17.236  51.376   5.644  1.00  0.00     0.131 A 
HETATM   12  N3  UNL     1      16.552  50.781   4.637  1.00  0.00    -0.285 N 
HETATM   13  N4  UNL     1      16.718  49.457   4.354  1.00  0.00    -0.309 N 
ATOM     14  H3  UNL     1      15.902  51.335   4.080  1.00  0.00     0.188 HD
HETATM   15  C7  UNL     1      17.575  48.732   5.092  1.00  0.00     0.119 A 
ATOM     16  H4  UNL     1      16.196  49.023   3.592  1.00  0.00     0.186 HD
HETATM   17  C8  UNL     1      18.305  49.263   6.146  1.00  0.00    -0.005 A 
HETATM   18  C9  UNL     1      19.190  48.472   6.902  1.00  0.00     0.014 A 
HETATM   19  C13 UNL     1      18.133  50.630   6.447  1.00  0.00     0.021 A 
HETATM   20  C10 UNL     1      19.904  49.023   7.965  1.00  0.00     0.001 A 
HETATM   21  C11 UNL     1      19.737  50.365   8.288  1.00  0.00     0.001 A 
HETATM   22  C12 UNL     1      18.862  51.158   7.542  1.00  0.00     0.016 A 
ENDBRANCH   9  11
ENDBRANCH   6   9
TORSDOF 2
ENDMDL
MODEL 5
REMARK minimizedAffinity -6.43747282
REMARK  2 active torsions:
REMARK  status: ('A' for Active; 'I' for Inactive)
REMARK    1  A    between atoms: C5_6  and  N2_7 
REMARK    2  A    between atoms: N2_7  and  C6_8 
ROOT
HETATM    1  N1  UNL     1       6.607  66.167  -8.876  1.00  0.00    -0.191 NA
HETATM    2  C1  UNL     1       6.058  65.932  -7.882  1.00  0.00     0.099 C 
HETATM    3  C2  UNL     1       5.388  65.640  -6.648  1.00  0.00     0.044 A 
HETATM    4  C3  UNL     1       4.095  66.114  -6.419  1.00  0.00     0.025 A 
HETATM    5  C4  UNL     1       3.445  65.830  -5.213  1.00  0.00     0.031 A 
HETATM    6  C5  UNL     1       4.058  65.047  -4.226  1.00  0.00     0.033 A 
HETATM    7  C14 UNL     1       5.372  64.610  -4.456  1.00  0.00     0.031 A 
HETATM    8  C15 UNL     1       6.029  64.891  -5.659  1.00  0.00     0.025 A 
ENDROOT
BRANCH   6   9
HETATM    9  N2  UNL     1       3.462  64.794  -2.971  1.00  0.00    -0.341 N 
HETATM   10  H3  UNL     1       4.076  64.262  -2.363  1.00  0.00     0.167 HD
BRANCH   9  11
HETATM   11  C6  UNL     1       2.120  64.406  -2.699  1.00  0.00     0.131 A 
HETATM   12  N3  UNL     1       1.669  63.188  -3.085  1.00  0.00    -0.285 N 
HETATM   13  N4  UNL     1       0.397  62.781  -2.805  1.00  0.00    -0.309 N 
ATOM     14  H3  UNL     1       2.293  62.563  -3.595  1.00  0.00     0.188 HD
HETATM   15  C7  UNL     1      -0.421  63.609  -2.133  1.00  0.00     0.119 A 
ATOM     16  H4  UNL     1       0.072  61.861  -3.101  1.00  0.00     0.186 HD
HETATM   17  C8  UNL     1      -0.040  64.875  -1.712  1.00  0.00    -0.005 A 
HETATM   18  C9  UNL     1      -0.926  65.719  -1.017  1.00  0.00     0.014 A 
HETATM   19  C13 UNL     1       1.271  65.303  -2.006  1.00  0.00     0.021 A 
HETATM   20  C10 UNL     1      -0.527  66.992  -0.615  1.00  0.00     0.001 A 
HETATM   21  C11 UNL     1       0.756  67.438  -0.907  1.00  0.00     0.001 A 
HETATM   22  C12 UNL     1       1.643  66.608  -1.595  1.00  0.00     0.016 A 
ENDBRANCH   9  11
ENDBRANCH   6   9
TORSDOF 2
ENDMDL
MODEL 6
REMARK minimizedAffinity -6.32806635
REMARK  2 active torsions:
REMARK  status: ('A' for Active; 'I' for Inactive)
REMARK    1  A    between atoms: C5_6  and  N2_7 
REMARK    2  A    between atoms: N2_7  and  C6_8 
ROOT
HETATM    1  N1  UNL     1       5.752  66.253  -7.770  1.00  0.00    -0.191 NA
HETATM    2  C1  UNL     1       5.078  65.977  -6.867  1.00  0.00     0.099 C 
HETATM    3  C2  UNL     1       4.237  65.635  -5.758  1.00  0.00     0.044 A 
HETATM    4  C3  UNL     1       4.798  65.306  -4.523  1.00  0.00     0.025 A 
HETATM    5  C4  UNL     1       3.974  64.969  -3.443  1.00  0.00     0.031 A 
HETATM    6  C5  UNL     1       2.579  64.980  -3.564  1.00  0.00     0.033 A 
HETATM    7  C14 UNL     1       2.031  65.276  -4.822  1.00  0.00     0.031 A 
HETATM    8  C15 UNL     1       2.848  65.613  -5.907  1.00  0.00     0.025 A 
ENDROOT
BRANCH   6   9
HETATM    9  N2  UNL     1       1.717  64.583  -2.518  1.00  0.00    -0.341 N 
HETATM   10  H3  UNL     1       1.157  63.777  -2.777  1.00  0.00     0.167 HD
BRANCH   9  11
HETATM   11  C6  UNL     1       0.937  65.410  -1.662  1.00  0.00     0.131 A 
HETATM   12  N3  UNL     1       1.541  66.222  -0.761  1.00  0.00    -0.285 N 
HETATM   13  N4  UNL     1       0.814  67.047   0.047  1.00  0.00    -0.309 N 
ATOM     14  H3  UNL     1       2.558  66.216  -0.686  1.00  0.00     0.188 HD
HETATM   15  C7  UNL     1      -0.526  67.050  -0.055  1.00  0.00     0.119 A 
ATOM     16  H4  UNL     1       1.283  67.654   0.720  1.00  0.00     0.186 HD
HETATM   17  C8  UNL     1      -1.219  66.242  -0.944  1.00  0.00    -0.005 A 
HETATM   18  C9  UNL     1      -2.625  66.267  -1.020  1.00  0.00     0.014 A 
HETATM   19  C13 UNL     1      -0.474  65.382  -1.777  1.00  0.00     0.021 A 
HETATM   20  C10 UNL     1      -3.303  65.437  -1.911  1.00  0.00     0.001 A 
HETATM   21  C11 UNL     1      -2.587  64.571  -2.730  1.00  0.00     0.001 A 
HETATM   22  C12 UNL     1      -1.193  64.541  -2.663  1.00  0.00     0.016 A 
ENDBRANCH   9  11
ENDBRANCH   6   9
TORSDOF 2
ENDMDL
MODEL 7
REMARK minimizedAffinity -6.31947947
REMARK  2 active torsions:
REMARK  status: ('A' for Active; 'I' for Inactive)
REMARK    1  A    between atoms: C5_6  and  N2_7 
REMARK    2  A    between atoms: N2_7  and  C6_8 
ROOT
HETATM    1  N1  UNL     1       7.942  33.703  24.016  1.00  0.00    -0.191 NA
HETATM    2  C1  UNL     1       8.556  34.198  23.166  1.00  0.00     0.099 C 
HETATM    3  C2  UNL     1       9.311  34.804  22.108  1.00  0.00     0.044 A 
HETATM    4  C3  UNL     1       9.960  36.022  22.315  1.00  0.00     0.025 A 
HETATM    5  C4  UNL     1      10.694  36.612  21.279  1.00  0.00     0.031 A 
HETATM    6  C5  UNL     1      10.817  35.989  20.031  1.00  0.00     0.033 A 
HETATM    7  C14 UNL     1      10.127  34.783  19.828  1.00  0.00     0.031 A 
HETATM    8  C15 UNL     1       9.391  34.187  20.858  1.00  0.00     0.025 A 
ENDROOT
BRANCH   6   9
HETATM    9  N2  UNL     1      11.492  36.583  18.943  1.00  0.00    -0.341 N 
HETATM   10  H3  UNL     1      10.851  37.061  18.317  1.00  0.00     0.167 HD
BRANCH   9  11
HETATM   11  C6  UNL     1      12.552  36.039  18.164  1.00  0.00     0.131 A 
HETATM   12  N3  UNL     1      12.484  36.057  16.811  1.00  0.00    -0.285 N 
HETATM   13  N4  UNL     1      13.503  35.572  16.044  1.00  0.00    -0.309 N 
ATOM     14  H3  UNL     1      11.655  36.441  16.357  1.00  0.00     0.188 HD
HETATM   15  C7  UNL     1      14.592  35.066  16.647  1.00  0.00     0.119 A 
ATOM     16  H4  UNL     1      13.438  35.593  15.026  1.00  0.00     0.186 HD
HETATM   17  C8  UNL     1      14.735  35.002  18.025  1.00  0.00    -0.005 A 
HETATM   18  C9  UNL     1      15.888  34.459  18.623  1.00  0.00     0.014 A 
HETATM   19  C13 UNL     1      13.681  35.496  18.823  1.00  0.00     0.021 A 
HETATM   20  C10 UNL     1      16.005  34.393  20.010  1.00  0.00     0.001 A 
HETATM   21  C11 UNL     1      14.972  34.860  20.814  1.00  0.00     0.001 A 
HETATM   22  C12 UNL     1      13.824  35.402  20.230  1.00  0.00     0.016 A 
ENDBRANCH   9  11
ENDBRANCH   6   9
TORSDOF 2
ENDMDL
MODEL 8
REMARK minimizedAffinity -6.16379929
REMARK  2 active torsions:
REMARK  status: ('A' for Active; 'I' for Inactive)
REMARK    1  A    between atoms: C5_6  and  N2_7 
REMARK    2  A    between atoms: N2_7  and  C6_8 
ROOT
HETATM    1  N1  UNL     1      11.215  32.993  21.645  1.00  0.00    -0.191 NA
HETATM    2  C1  UNL     1      11.510  33.556  20.674  1.00  0.00     0.099 C 
HETATM    3  C2  UNL     1      11.884  34.246  19.474  1.00  0.00     0.044 A 
HETATM    4  C3  UNL     1      10.944  35.008  18.778  1.00  0.00     0.025 A 
HETATM    5  C4  UNL     1      11.311  35.678  17.605  1.00  0.00     0.031 A 
HETATM    6  C5  UNL     1      12.624  35.624  17.121  1.00  0.00     0.033 A 
HETATM    7  C14 UNL     1      13.547  34.823  17.811  1.00  0.00     0.031 A 
HETATM    8  C15 UNL     1      13.187  34.150  18.984  1.00  0.00     0.025 A 
ENDROOT
BRANCH   6   9
HETATM    9  N2  UNL     1      13.016  36.231  15.907  1.00  0.00    -0.341 N 
HETATM   10  H3  UNL     1      12.361  36.032  15.158  1.00  0.00     0.167 HD
BRANCH   9  11
HETATM   11  C6  UNL     1      14.323  36.310  15.348  1.00  0.00     0.131 A 
HETATM   12  N3  UNL     1      14.750  35.366  14.476  1.00  0.00    -0.285 N 
HETATM   13  N4  UNL     1      15.986  35.440  13.901  1.00  0.00    -0.309 N 
ATOM     14  H3  UNL     1      14.137  34.585  14.244  1.00  0.00     0.188 HD
HETATM   15  C7  UNL     1      16.791  36.471  14.210  1.00  0.00     0.119 A 
ATOM     16  H4  UNL     1      16.294  34.723  13.245  1.00  0.00     0.186 HD
HETATM   17  C8  UNL     1      16.431  37.472  15.101  1.00  0.00    -0.005 A 
HETATM   18  C9  UNL     1      17.303  38.534  15.407  1.00  0.00     0.014 A 
HETATM   19  C13 UNL     1      15.159  37.396  15.703  1.00  0.00     0.021 A 
HETATM   20  C10 UNL     1      16.927  39.522  16.315  1.00  0.00     0.001 A 
HETATM   21  C11 UNL     1      15.683  39.458  16.931  1.00  0.00     0.001 A 
HETATM   22  C12 UNL     1      14.811  38.409  16.633  1.00  0.00     0.016 A 
ENDBRANCH   9  11
ENDBRANCH   6   9
TORSDOF 2
ENDMDL
MODEL 9
REMARK minimizedAffinity -6.14342165
REMARK  2 active torsions:
REMARK  status: ('A' for Active; 'I' for Inactive)
REMARK    1  A    between atoms: C5_6  and  N2_7 
REMARK    2  A    between atoms: N2_7  and  C6_8 
ROOT
HETATM    1  N1  UNL     1      13.682  56.973  10.538  1.00  0.00    -0.191 NA
HETATM    2  C1  UNL     1      13.209  57.833   9.919  1.00  0.00     0.099 C 
HETATM    3  C2  UNL     1      12.634  58.897   9.150  1.00  0.00     0.044 A 
HETATM    4  C3  UNL     1      11.273  58.890   8.844  1.00  0.00     0.025 A 
HETATM    5  C4  UNL     1      10.715  59.929   8.091  1.00  0.00     0.031 A 
HETATM    6  C5  UNL     1      11.495  61.006   7.653  1.00  0.00     0.033 A 
HETATM    7  C14 UNL     1      12.870  60.980   7.936  1.00  0.00     0.031 A 
HETATM    8  C15 UNL     1      13.435  59.944   8.688  1.00  0.00     0.025 A 
ENDROOT
BRANCH   6   9
HETATM    9  N2  UNL     1      10.984  62.039   6.836  1.00  0.00    -0.341 N 
HETATM   10  H3  UNL     1      10.024  61.860   6.559  1.00  0.00     0.167 HD
BRANCH   9  11
HETATM   11  C6  UNL     1      11.636  62.718   5.768  1.00  0.00     0.131 A 
HETATM   12  N3  UNL     1      11.999  62.044   4.651  1.00  0.00    -0.285 N 
HETATM   13  N4  UNL     1      12.594  62.681   3.601  1.00  0.00    -0.309 N 
ATOM     14  H3  UNL     1      11.823  61.041   4.593  1.00  0.00     0.188 HD
HETATM   15  C7  UNL     1      12.824  64.002   3.683  1.00  0.00     0.119 A 
ATOM     16  H4  UNL     1      12.861  62.160   2.766  1.00  0.00     0.186 HD
HETATM   17  C8  UNL     1      12.492  64.762   4.796  1.00  0.00    -0.005 A 
HETATM   18  C9  UNL     1      12.754  66.144   4.850  1.00  0.00     0.014 A 
HETATM   19  C13 UNL     1      11.883  64.107   5.886  1.00  0.00     0.021 A 
HETATM   20  C10 UNL     1      12.424  66.886   5.982  1.00  0.00     0.001 A 
HETATM   21  C11 UNL     1      11.837  66.257   7.074  1.00  0.00     0.001 A 
HETATM   22  C12 UNL     1      11.572  64.886   7.029  1.00  0.00     0.016 A 
ENDBRANCH   9  11
ENDBRANCH   6   9
TORSDOF 2
ENDMDL
