MODEL 1
REMARK minimizedAffinity -10.006362
REMARK CNNscore 0.79817313
REMARK CNNaffinity 7.50385666
REMARK  5 active torsions:
REMARK  status: ('A' for Active; 'I' for Inactive)
REMARK    1  A    between atoms: O1_2  and  C2_3 
REMARK    2  A    between atoms: C4_5  and  N1_6 
REMARK    3  A    between atoms: N1_6  and  C5_7 
REMARK    4  A    between atoms: C9_13  and  C10_14 
REMARK    5  A    between atoms: C20_30  and  O3_31 
ROOT
HETATM    1  C5  UNL     1       4.934  -5.009  29.139  1.00  0.00     0.684 A 
HETATM    2  N2  UNL     1       4.613  -3.941  29.881  1.00  0.00    -0.201 N 
ATOM      3  H2  UNL     1       3.712  -3.475  29.774  1.00  0.00     0.183 HD
HETATM    4  C6  UNL     1       5.522  -3.506  30.772  1.00  0.00     0.121 A 
HETATM    5  C7  UNL     1       6.750  -4.096  30.957  1.00  0.00     0.026 A 
HETATM    6  C8  UNL     1       7.727  -3.620  31.921  1.00  0.00     0.034 A 
HETATM    7  C9  UNL     1       8.903  -4.257  32.037  1.00  0.00     0.047 A 
HETATM    8  C16 UNL     1       9.217  -5.451  31.182  1.00  0.00     0.260 A 
HETATM    9  O2  UNL     1      10.304  -6.014  31.309  1.00  0.00    -0.267 OA
HETATM   10  N3  UNL     1       8.245  -5.856  30.280  1.00  0.00    -0.303 N 
HETATM   11  C17 UNL     1       8.486  -7.003  29.423  1.00  0.00     0.161 C 
HETATM   12  C18 UNL     1       6.999  -5.189  30.151  1.00  0.00     0.137 A 
HETATM   13  N4  UNL     1       6.108  -5.650  29.248  1.00  0.00    -0.175 N 
ATOM     14  H4  UNL     1       6.320  -6.460  28.666  1.00  0.00     0.186 HD
ENDROOT
BRANCH   1  15
HETATM   15  N1  UNL     1       4.066  -5.539  28.189  1.00  0.00    -0.191 N 
HETATM   16  H5  UNL     1       3.828  -4.816  27.527  1.00  0.00     0.184 HD
BRANCH  15  17
HETATM   17  C4  UNL     1       3.494  -6.802  27.984  1.00  0.00     0.054 A 
HETATM   18  C3  UNL     1       2.112  -6.953  28.203  1.00  0.00     0.066 A 
HETATM   19  C2  UNL     1       1.477  -8.183  28.018  1.00  0.00     0.073 A 
HETATM   20  C22 UNL     1       2.224  -9.290  27.611  1.00  0.00     0.073 A 
HETATM   21  C20 UNL     1       3.594  -9.169  27.388  1.00  0.00     0.073 A 
HETATM   22  C19 UNL     1       4.214  -7.929  27.577  1.00  0.00     0.066 A 
BRANCH  19  23
HETATM   23  O1  UNL     1       0.144  -8.436  28.203  1.00  0.00    -0.356 OA
HETATM   24  C1  UNL     1      -0.341  -9.702  27.776  1.00  0.00     0.210 C 
ENDBRANCH  19  23
BRANCH  21  25
HETATM   25  O3  UNL     1       4.432 -10.174  26.987  1.00  0.00    -0.356 OA
HETATM   26  C21 UNL     1       5.816  -9.863  26.901  1.00  0.00     0.210 C 
ENDBRANCH  21  25
ENDBRANCH  15  17
ENDBRANCH   1  15
BRANCH   7  27
HETATM   27  C10 UNL     1       9.901  -3.779  33.014  1.00  0.00     0.023 A 
HETATM   28  C11 UNL     1       9.846  -4.186  34.360  1.00  0.00     0.046 A 
HETATM   29 CL1  UNL     1       8.599  -5.233  34.949  1.00  0.00    -0.083 Cl
HETATM   30  C12 UNL     1      10.802  -3.744  35.282  1.00  0.00     0.025 A 
HETATM   31  C13 UNL     1      11.826  -2.893  34.876  1.00  0.00     0.003 A 
HETATM   32  C14 UNL     1      11.897  -2.481  33.547  1.00  0.00     0.025 A 
HETATM   33  C15 UNL     1      10.943  -2.920  32.622  1.00  0.00     0.046 A 
HETATM   34 CL2  UNL     1      11.097  -2.351  30.993  1.00  0.00    -0.083 Cl
ENDBRANCH   7  27
TORSDOF 5
ENDMDL
MODEL 2
REMARK minimizedAffinity -9.97933865
REMARK CNNscore 0.794721425
REMARK CNNaffinity 7.50246429
REMARK  5 active torsions:
REMARK  status: ('A' for Active; 'I' for Inactive)
REMARK    1  A    between atoms: O1_2  and  C2_3 
REMARK    2  A    between atoms: C4_5  and  N1_6 
REMARK    3  A    between atoms: N1_6  and  C5_7 
REMARK    4  A    between atoms: C9_13  and  C10_14 
REMARK    5  A    between atoms: C20_30  and  O3_31 
ROOT
HETATM    1  C5  UNL     1       4.945  -4.992  29.131  1.00  0.00     0.684 A 
HETATM    2  N2  UNL     1       4.624  -3.925  29.875  1.00  0.00    -0.201 N 
ATOM      3  H2  UNL     1       3.724  -3.456  29.768  1.00  0.00     0.183 HD
HETATM    4  C6  UNL     1       5.531  -3.495  30.770  1.00  0.00     0.121 A 
HETATM    5  C7  UNL     1       6.757  -4.087  30.957  1.00  0.00     0.026 A 
HETATM    6  C8  UNL     1       7.732  -3.617  31.925  1.00  0.00     0.034 A 
HETATM    7  C9  UNL     1       8.907  -4.256  32.042  1.00  0.00     0.047 A 
HETATM    8  C16 UNL     1       9.221  -5.449  31.184  1.00  0.00     0.260 A 
HETATM    9  O2  UNL     1      10.307  -6.015  31.314  1.00  0.00    -0.267 OA
HETATM   10  N3  UNL     1       8.250  -5.849  30.279  1.00  0.00    -0.303 N 
HETATM   11  C17 UNL     1       8.491  -6.994  29.420  1.00  0.00     0.161 C 
HETATM   12  C18 UNL     1       7.007  -5.179  30.149  1.00  0.00     0.137 A 
HETATM   13  N4  UNL     1       6.117  -5.635  29.242  1.00  0.00    -0.175 N 
ATOM     14  H4  UNL     1       6.329  -6.444  28.658  1.00  0.00     0.186 HD
ENDROOT
BRANCH   1  15
HETATM   15  N1  UNL     1       4.078  -5.517  28.177  1.00  0.00    -0.191 N 
HETATM   16  H5  UNL     1       3.882  -4.805  27.489  1.00  0.00     0.184 HD
BRANCH  15  17
HETATM   17  C4  UNL     1       3.463  -6.763  27.996  1.00  0.00     0.054 A 
HETATM   18  C3  UNL     1       4.258  -7.847  27.581  1.00  0.00     0.066 A 
HETATM   19  C2  UNL     1       3.710  -9.116  27.382  1.00  0.00     0.073 A 
HETATM   20  C22 UNL     1       2.346  -9.319  27.596  1.00  0.00     0.073 A 
HETATM   21  C20 UNL     1       1.535  -8.264  28.006  1.00  0.00     0.073 A 
HETATM   22  C19 UNL     1       2.100  -6.998  28.202  1.00  0.00     0.066 A 
BRANCH  19  23
HETATM   23  O1  UNL     1       4.393 -10.233  26.981  1.00  0.00    -0.356 OA
HETATM   24  C1  UNL     1       5.714 -10.044  26.490  1.00  0.00     0.210 C 
ENDBRANCH  19  23
BRANCH  21  25
HETATM   25  O3  UNL     1       0.189  -8.335  28.250  1.00  0.00    -0.356 OA
HETATM   26  C21 UNL     1      -0.473  -9.532  27.864  1.00  0.00     0.210 C 
ENDBRANCH  21  25
ENDBRANCH  15  17
ENDBRANCH   1  15
BRANCH   7  27
HETATM   27  C10 UNL     1       9.903  -3.784  33.024  1.00  0.00     0.023 A 
HETATM   28  C11 UNL     1       9.839  -4.189  34.370  1.00  0.00     0.046 A 
HETATM   29 CL1  UNL     1       8.582  -5.227  34.954  1.00  0.00    -0.083 Cl
HETATM   30  C12 UNL     1      10.793  -3.751  35.296  1.00  0.00     0.025 A 
HETATM   31  C13 UNL     1      11.825  -2.908  34.894  1.00  0.00     0.003 A 
HETATM   32  C14 UNL     1      11.905  -2.497  33.565  1.00  0.00     0.025 A 
HETATM   33  C15 UNL     1      10.953  -2.932  32.636  1.00  0.00     0.046 A 
HETATM   34 CL2  UNL     1      11.118  -2.366  31.007  1.00  0.00    -0.083 Cl
ENDBRANCH   7  27
TORSDOF 5
ENDMDL
MODEL 3
REMARK minimizedAffinity -9.95463181
REMARK CNNscore 0.791816711
REMARK CNNaffinity 7.50572348
REMARK  5 active torsions:
REMARK  status: ('A' for Active; 'I' for Inactive)
REMARK    1  A    between atoms: O1_2  and  C2_3 
REMARK    2  A    between atoms: C4_5  and  N1_6 
REMARK    3  A    between atoms: N1_6  and  C5_7 
REMARK    4  A    between atoms: C9_13  and  C10_14 
REMARK    5  A    between atoms: C20_30  and  O3_31 
ROOT
HETATM    1  C5  UNL     1       4.942  -4.954  29.158  1.00  0.00     0.684 A 
HETATM    2  N2  UNL     1       4.638  -3.882  29.901  1.00  0.00    -0.201 N 
ATOM      3  H2  UNL     1       3.743  -3.402  29.796  1.00  0.00     0.183 HD
HETATM    4  C6  UNL     1       5.555  -3.459  30.789  1.00  0.00     0.121 A 
HETATM    5  C7  UNL     1       6.775  -4.065  30.972  1.00  0.00     0.026 A 
HETATM    6  C8  UNL     1       7.761  -3.603  31.933  1.00  0.00     0.034 A 
HETATM    7  C9  UNL     1       8.929  -4.256  32.047  1.00  0.00     0.047 A 
HETATM    8  C16 UNL     1       9.224  -5.455  31.191  1.00  0.00     0.260 A 
HETATM    9  O2  UNL     1      10.303  -6.033  31.317  1.00  0.00    -0.267 OA
HETATM   10  N3  UNL     1       8.243  -5.847  30.293  1.00  0.00    -0.303 N 
HETATM   11  C17 UNL     1       8.466  -6.998  29.436  1.00  0.00     0.161 C 
HETATM   12  C18 UNL     1       7.007  -5.163  30.166  1.00  0.00     0.137 A 
HETATM   13  N4  UNL     1       6.107  -5.611  29.266  1.00  0.00    -0.175 N 
ATOM     14  H4  UNL     1       6.307  -6.425  28.684  1.00  0.00     0.186 HD
ENDROOT
BRANCH   1  15
HETATM   15  N1  UNL     1       4.064  -5.473  28.211  1.00  0.00    -0.191 N 
HETATM   16  H5  UNL     1       3.835  -4.746  27.549  1.00  0.00     0.184 HD
BRANCH  15  17
HETATM   17  C4  UNL     1       3.474  -6.728  28.009  1.00  0.00     0.054 A 
HETATM   18  C3  UNL     1       4.287  -7.785  27.563  1.00  0.00     0.066 A 
HETATM   19  C2  UNL     1       3.764  -9.061  27.341  1.00  0.00     0.073 A 
HETATM   20  C22 UNL     1       2.407  -9.297  27.564  1.00  0.00     0.073 A 
HETATM   21  C20 UNL     1       1.578  -8.268  28.005  1.00  0.00     0.073 A 
HETATM   22  C19 UNL     1       2.118  -6.996  28.223  1.00  0.00     0.066 A 
BRANCH  19  23
HETATM   23  O1  UNL     1       4.467 -10.155  26.910  1.00  0.00    -0.356 OA
HETATM   24  C1  UNL     1       5.875 -10.011  26.782  1.00  0.00     0.210 C 
ENDBRANCH  19  23
BRANCH  21  25
HETATM   25  O3  UNL     1       0.237  -8.373  28.259  1.00  0.00    -0.356 OA
HETATM   26  C21 UNL     1      -0.518  -9.219  27.402  1.00  0.00     0.210 C 
ENDBRANCH  21  25
ENDBRANCH  15  17
ENDBRANCH   1  15
BRANCH   7  27
HETATM   27  C10 UNL     1       9.935  -3.792  33.021  1.00  0.00     0.023 A 
HETATM   28  C11 UNL     1      10.982  -2.938  32.627  1.00  0.00     0.046 A 
HETATM   29 CL1  UNL     1      11.169  -2.416  30.987  1.00  0.00    -0.083 Cl
HETATM   30  C12 UNL     1      11.927  -2.487  33.556  1.00  0.00     0.025 A 
HETATM   31  C13 UNL     1      11.841  -2.877  34.890  1.00  0.00     0.003 A 
HETATM   32  C14 UNL     1      10.809  -3.721  35.298  1.00  0.00     0.025 A 
HETATM   33  C15 UNL     1       9.863  -4.175  34.373  1.00  0.00     0.046 A 
HETATM   34 CL2  UNL     1       8.621  -5.229  34.961  1.00  0.00    -0.083 Cl
ENDBRANCH   7  27
TORSDOF 5
ENDMDL
MODEL 4
REMARK minimizedAffinity -6.83599329
REMARK CNNscore 0.531592965
REMARK CNNaffinity 6.37034941
REMARK  5 active torsions:
REMARK  status: ('A' for Active; 'I' for Inactive)
REMARK    1  A    between atoms: O1_2  and  C2_3 
REMARK    2  A    between atoms: C4_5  and  N1_6 
REMARK    3  A    between atoms: N1_6  and  C5_7 
REMARK    4  A    between atoms: C9_13  and  C10_14 
REMARK    5  A    between atoms: C20_30  and  O3_31 
ROOT
HETATM    1  C5  UNL     1       5.915   3.811  48.469  1.00  0.00     0.684 A 
HETATM    2  N2  UNL     1       6.682   3.089  47.643  1.00  0.00    -0.201 N 
ATOM      3  H2  UNL     1       7.142   2.234  47.959  1.00  0.00     0.183 HD
HETATM    4  C6  UNL     1       6.824   3.530  46.380  1.00  0.00     0.121 A 
HETATM    5  C7  UNL     1       6.229   4.672  45.901  1.00  0.00     0.026 A 
HETATM    6  C8  UNL     1       6.387   5.143  44.536  1.00  0.00     0.034 A 
HETATM    7  C9  UNL     1       5.768   6.271  44.151  1.00  0.00     0.047 A 
HETATM    8  C16 UNL     1       4.918   7.048  45.116  1.00  0.00     0.260 A 
HETATM    9  O2  UNL     1       4.363   8.078  44.735  1.00  0.00    -0.267 OA
HETATM   10  N3  UNL     1       4.806   6.547  46.404  1.00  0.00    -0.303 N 
HETATM   11  C17 UNL     1       4.000   7.250  47.385  1.00  0.00     0.161 C 
HETATM   12  C18 UNL     1       5.456   5.357  46.819  1.00  0.00     0.137 A 
HETATM   13  N4  UNL     1       5.294   4.939  48.092  1.00  0.00    -0.175 N 
ATOM     14  H4  UNL     1       4.718   5.466  48.748  1.00  0.00     0.186 HD
ENDROOT
BRANCH   1  15
HETATM   15  N1  UNL     1       5.702   3.443  49.795  1.00  0.00    -0.191 N 
HETATM   16  H5  UNL     1       6.381   3.913  50.375  1.00  0.00     0.184 HD
BRANCH  15  17
HETATM   17  C4  UNL     1       4.788   2.599  50.440  1.00  0.00     0.054 A 
HETATM   18  C3  UNL     1       3.534   2.389  49.839  1.00  0.00     0.066 A 
HETATM   19  C2  UNL     1       2.575   1.561  50.427  1.00  0.00     0.073 A 
HETATM   20  C22 UNL     1       2.862   0.927  51.637  1.00  0.00     0.073 A 
HETATM   21  C20 UNL     1       4.096   1.117  52.255  1.00  0.00     0.073 A 
HETATM   22  C19 UNL     1       5.045   1.950  51.652  1.00  0.00     0.066 A 
BRANCH  19  23
HETATM   23  O1  UNL     1       1.329   1.290  49.927  1.00  0.00    -0.356 OA
HETATM   24  C1  UNL     1       0.423   0.604  50.780  1.00  0.00     0.210 C 
ENDBRANCH  19  23
BRANCH  21  25
HETATM   25  O3  UNL     1       4.496   0.554  53.437  1.00  0.00    -0.356 OA
HETATM   26  C21 UNL     1       5.866   0.192  53.547  1.00  0.00     0.210 C 
ENDBRANCH  21  25
ENDBRANCH  15  17
ENDBRANCH   1  15
BRANCH   7  27
HETATM   27  C10 UNL     1       5.925   6.756  42.766  1.00  0.00     0.023 A 
HETATM   28  C11 UNL     1       6.852   7.768  42.455  1.00  0.00     0.046 A 
HETATM   29 CL1  UNL     1       7.829   8.519  43.671  1.00  0.00    -0.083 Cl
HETATM   30  C12 UNL     1       7.009   8.215  41.138  1.00  0.00     0.025 A 
HETATM   31  C13 UNL     1       6.248   7.660  40.113  1.00  0.00     0.003 A 
HETATM   32  C14 UNL     1       5.326   6.656  40.402  1.00  0.00     0.025 A 
HETATM   33  C15 UNL     1       5.165   6.206  41.717  1.00  0.00     0.046 A 
HETATM   34 CL2  UNL     1       3.989   4.964  41.993  1.00  0.00    -0.083 Cl
ENDBRANCH   7  27
TORSDOF 5
ENDMDL
MODEL 5
REMARK minimizedAffinity -7.64416599
REMARK CNNscore 0.504488111
REMARK CNNaffinity 6.46533012
REMARK  5 active torsions:
REMARK  status: ('A' for Active; 'I' for Inactive)
REMARK    1  A    between atoms: O1_2  and  C2_3 
REMARK    2  A    between atoms: C4_5  and  N1_6 
REMARK    3  A    between atoms: N1_6  and  C5_7 
REMARK    4  A    between atoms: C9_13  and  C10_14 
REMARK    5  A    between atoms: C20_30  and  O3_31 
ROOT
HETATM    1  C5  UNL     1       9.283  -6.642  28.703  1.00  0.00     0.684 A 
HETATM    2  N2  UNL     1      10.050  -5.872  29.486  1.00  0.00    -0.201 N 
ATOM      3  H2  UNL     1       9.818  -4.893  29.654  1.00  0.00     0.183 HD
HETATM    4  C6  UNL     1      11.137  -6.436  30.043  1.00  0.00     0.121 A 
HETATM    5  C7  UNL     1      11.496  -7.749  29.851  1.00  0.00     0.026 A 
HETATM    6  C8  UNL     1      12.671  -8.352  30.455  1.00  0.00     0.034 A 
HETATM    7  C9  UNL     1      12.948  -9.643  30.214  1.00  0.00     0.047 A 
HETATM    8  C16 UNL     1      12.058 -10.467  29.328  1.00  0.00     0.260 A 
HETATM    9  O2  UNL     1      12.338 -11.648  29.125  1.00  0.00    -0.267 OA
HETATM   10  N3  UNL     1      10.952  -9.835  28.781  1.00  0.00    -0.303 N 
HETATM   11  C17 UNL     1      10.051 -10.574  27.915  1.00  0.00     0.161 C 
HETATM   12  C18 UNL     1      10.652  -8.471  29.030  1.00  0.00     0.137 A 
HETATM   13  N4  UNL     1       9.554  -7.933  28.457  1.00  0.00    -0.175 N 
ATOM     14  H4  UNL     1       8.949  -8.491  27.855  1.00  0.00     0.186 HD
ENDROOT
BRANCH   1  15
HETATM   15  N1  UNL     1       8.137  -6.157  28.079  1.00  0.00    -0.191 N 
HETATM   16  H5  UNL     1       8.373  -5.880  27.138  1.00  0.00     0.184 HD
BRANCH  15  17
HETATM   17  C4  UNL     1       6.805  -5.988  28.478  1.00  0.00     0.054 A 
HETATM   18  C3  UNL     1       6.494  -4.913  29.331  1.00  0.00     0.066 A 
HETATM   19  C2  UNL     1       5.186  -4.687  29.767  1.00  0.00     0.073 A 
HETATM   20  C22 UNL     1       4.164  -5.542  29.354  1.00  0.00     0.073 A 
HETATM   21  C20 UNL     1       4.444  -6.615  28.510  1.00  0.00     0.073 A 
HETATM   22  C19 UNL     1       5.759  -6.827  28.082  1.00  0.00     0.066 A 
BRANCH  19  23
HETATM   23  O1  UNL     1       4.778  -3.674  30.594  1.00  0.00    -0.356 OA
HETATM   24  C1  UNL     1       5.793  -2.874  31.187  1.00  0.00     0.210 C 
ENDBRANCH  19  23
BRANCH  21  25
HETATM   25  O3  UNL     1       3.533  -7.520  28.035  1.00  0.00    -0.356 OA
HETATM   26  C21 UNL     1       2.165  -7.133  28.065  1.00  0.00     0.210 C 
ENDBRANCH  21  25
ENDBRANCH  15  17
ENDBRANCH   1  15
BRANCH   7  27
HETATM   27  C10 UNL     1      14.141 -10.262  30.825  1.00  0.00     0.023 A 
HETATM   28  C11 UNL     1      14.056 -10.929  32.061  1.00  0.00     0.046 A 
HETATM   29 CL1  UNL     1      12.571 -11.031  32.945  1.00  0.00    -0.083 Cl
HETATM   30  C12 UNL     1      15.185 -11.528  32.631  1.00  0.00     0.025 A 
HETATM   31  C13 UNL     1      16.413 -11.475  31.977  1.00  0.00     0.003 A 
HETATM   32  C14 UNL     1      16.516 -10.820  30.751  1.00  0.00     0.025 A 
HETATM   33  C15 UNL     1      15.390 -10.219  30.178  1.00  0.00     0.046 A 
HETATM   34 CL2  UNL     1      15.606  -9.416  28.658  1.00  0.00    -0.083 Cl
ENDBRANCH   7  27
TORSDOF 5
ENDMDL
MODEL 6
REMARK minimizedAffinity -7.74643326
REMARK CNNscore 0.394980997
REMARK CNNaffinity 6.43149567
REMARK  5 active torsions:
REMARK  status: ('A' for Active; 'I' for Inactive)
REMARK    1  A    between atoms: O1_2  and  C2_3 
REMARK    2  A    between atoms: C4_5  and  N1_6 
REMARK    3  A    between atoms: N1_6  and  C5_7 
REMARK    4  A    between atoms: C9_13  and  C10_14 
REMARK    5  A    between atoms: C20_30  and  O3_31 
ROOT
HETATM    1  C5  UNL     1       9.155  -6.355  28.955  1.00  0.00     0.684 A 
HETATM    2  N2  UNL     1       9.673  -5.735  30.024  1.00  0.00    -0.201 N 
ATOM      3  H2  UNL     1       9.242  -4.893  30.407  1.00  0.00     0.183 HD
HETATM    4  C6  UNL     1      10.781  -6.263  30.573  1.00  0.00     0.121 A 
HETATM    5  C7  UNL     1      11.402  -7.394  30.098  1.00  0.00     0.026 A 
HETATM    6  C8  UNL     1      12.599  -7.959  30.697  1.00  0.00     0.034 A 
HETATM    7  C9  UNL     1      13.141  -9.068  30.168  1.00  0.00     0.047 A 
HETATM    8  C16 UNL     1      12.522  -9.727  28.968  1.00  0.00     0.260 A 
HETATM    9  O2  UNL     1      13.041 -10.743  28.505  1.00  0.00    -0.267 OA
HETATM   10  N3  UNL     1      11.381  -9.140  28.442  1.00  0.00    -0.303 N 
HETATM   11  C17 UNL     1      10.735  -9.727  27.283  1.00  0.00     0.161 C 
HETATM   12  C18 UNL     1      10.803  -7.969  28.995  1.00  0.00     0.137 A 
HETATM   13  N4  UNL     1       9.691  -7.463  28.421  1.00  0.00    -0.175 N 
ATOM     14  H4  UNL     1       9.270  -7.909  27.606  1.00  0.00     0.186 HD
ENDROOT
BRANCH   1  15
HETATM   15  N1  UNL     1       8.010  -5.891  28.312  1.00  0.00    -0.191 N 
HETATM   16  H5  UNL     1       8.258  -5.605  27.377  1.00  0.00     0.184 HD
BRANCH  15  17
HETATM   17  C4  UNL     1       6.667  -5.753  28.686  1.00  0.00     0.054 A 
HETATM   18  C3  UNL     1       5.727  -6.648  28.145  1.00  0.00     0.066 A 
HETATM   19  C2  UNL     1       4.372  -6.567  28.475  1.00  0.00     0.073 A 
HETATM   20  C22 UNL     1       3.936  -5.579  29.358  1.00  0.00     0.073 A 
HETATM   21  C20 UNL     1       4.845  -4.679  29.909  1.00  0.00     0.073 A 
HETATM   22  C19 UNL     1       6.199  -4.773  29.568  1.00  0.00     0.066 A 
BRANCH  19  23
HETATM   23  O1  UNL     1       3.380  -7.387  28.006  1.00  0.00    -0.356 OA
HETATM   24  C1  UNL     1       2.047  -6.899  28.081  1.00  0.00     0.210 C 
ENDBRANCH  19  23
BRANCH  21  25
HETATM   25  O3  UNL     1       4.544  -3.670  30.784  1.00  0.00    -0.356 OA
HETATM   26  C21 UNL     1       5.610  -2.815  31.174  1.00  0.00     0.210 C 
ENDBRANCH  21  25
ENDBRANCH  15  17
ENDBRANCH   1  15
BRANCH   7  27
HETATM   27  C10 UNL     1      14.357  -9.647  30.770  1.00  0.00     0.023 A 
HETATM   28  C11 UNL     1      14.270 -10.667  31.736  1.00  0.00     0.046 A 
HETATM   29 CL1  UNL     1      12.745 -11.272  32.292  1.00  0.00    -0.083 Cl
HETATM   30  C12 UNL     1      15.425 -11.225  32.295  1.00  0.00     0.025 A 
HETATM   31  C13 UNL     1      16.682 -10.778  31.899  1.00  0.00     0.003 A 
HETATM   32  C14 UNL     1      16.788  -9.770  30.943  1.00  0.00     0.025 A 
HETATM   33  C15 UNL     1      15.636  -9.208  30.382  1.00  0.00     0.046 A 
HETATM   34 CL2  UNL     1      15.855  -7.952  29.209  1.00  0.00    -0.083 Cl
ENDBRANCH   7  27
TORSDOF 5
ENDMDL
MODEL 7
REMARK minimizedAffinity -7.67314482
REMARK CNNscore 0.34503445
REMARK CNNaffinity 6.31151342
REMARK  5 active torsions:
REMARK  status: ('A' for Active; 'I' for Inactive)
REMARK    1  A    between atoms: O1_2  and  C2_3 
REMARK    2  A    between atoms: C4_5  and  N1_6 
REMARK    3  A    between atoms: N1_6  and  C5_7 
REMARK    4  A    between atoms: C9_13  and  C10_14 
REMARK    5  A    between atoms: C20_30  and  O3_31 
ROOT
HETATM    1  C5  UNL     1       9.132  -6.694  28.650  1.00  0.00     0.684 A 
HETATM    2  N2  UNL     1       9.730  -5.908  29.556  1.00  0.00    -0.201 N 
ATOM      3  H2  UNL     1       9.358  -4.986  29.784  1.00  0.00     0.183 HD
HETATM    4  C6  UNL     1      10.837  -6.381  30.156  1.00  0.00     0.121 A 
HETATM    5  C7  UNL     1      11.381  -7.614  29.889  1.00  0.00     0.026 A 
HETATM    6  C8  UNL     1      12.578  -8.118  30.540  1.00  0.00     0.034 A 
HETATM    7  C9  UNL     1      13.041  -9.336  30.218  1.00  0.00     0.047 A 
HETATM    8  C16 UNL     1      12.336 -10.180  29.195  1.00  0.00     0.260 A 
HETATM    9  O2  UNL     1      12.784 -11.293  28.921  1.00  0.00    -0.267 OA
HETATM   10  N3  UNL     1      11.200  -9.644  28.609  1.00  0.00    -0.303 N 
HETATM   11  C17 UNL     1      10.472 -10.408  27.612  1.00  0.00     0.161 C 
HETATM   12  C18 UNL     1      10.704  -8.358  28.943  1.00  0.00     0.137 A 
HETATM   13  N4  UNL     1       9.590  -7.912  28.324  1.00  0.00    -0.175 N 
ATOM     14  H4  UNL     1       9.111  -8.484  27.628  1.00  0.00     0.186 HD
ENDROOT
BRANCH   1  15
HETATM   15  N1  UNL     1       7.982  -6.301  27.973  1.00  0.00    -0.191 N 
HETATM   16  H5  UNL     1       8.223  -6.097  27.015  1.00  0.00     0.184 HD
BRANCH  15  17
HETATM   17  C4  UNL     1       6.638  -6.143  28.339  1.00  0.00     0.054 A 
HETATM   18  C3  UNL     1       5.707  -7.097  27.891  1.00  0.00     0.066 A 
HETATM   19  C2  UNL     1       4.352  -7.000  28.219  1.00  0.00     0.073 A 
HETATM   20  C22 UNL     1       3.908  -5.936  29.005  1.00  0.00     0.073 A 
HETATM   21  C20 UNL     1       4.808  -4.976  29.461  1.00  0.00     0.073 A 
HETATM   22  C19 UNL     1       6.162  -5.088  29.125  1.00  0.00     0.066 A 
BRANCH  19  23
HETATM   23  O1  UNL     1       3.368  -7.873  27.837  1.00  0.00    -0.356 OA
HETATM   24  C1  UNL     1       2.030  -7.394  27.869  1.00  0.00     0.210 C 
ENDBRANCH  19  23
BRANCH  21  25
HETATM   25  O3  UNL     1       4.498  -3.891  30.236  1.00  0.00    -0.356 OA
HETATM   26  C21 UNL     1       5.579  -3.227  30.877  1.00  0.00     0.210 C 
ENDBRANCH  21  25
ENDBRANCH  15  17
ENDBRANCH   1  15
BRANCH   7  27
HETATM   27  C10 UNL     1      14.257  -9.854  30.876  1.00  0.00     0.023 A 
HETATM   28  C11 UNL     1      15.537  -9.495  30.414  1.00  0.00     0.046 A 
HETATM   29 CL1  UNL     1      15.758  -8.463  29.041  1.00  0.00    -0.083 Cl
HETATM   30  C12 UNL     1      16.688  -9.975  31.048  1.00  0.00     0.025 A 
HETATM   31  C13 UNL     1      16.582 -10.816  32.152  1.00  0.00     0.003 A 
HETATM   32  C14 UNL     1      15.322 -11.182  32.624  1.00  0.00     0.025 A 
HETATM   33  C15 UNL     1      14.168 -10.704  31.993  1.00  0.00     0.046 A 
HETATM   34 CL2  UNL     1      12.643 -11.216  32.636  1.00  0.00    -0.083 Cl
ENDBRANCH   7  27
TORSDOF 5
ENDMDL
MODEL 8
REMARK minimizedAffinity -7.16976023
REMARK CNNscore 0.207967922
REMARK CNNaffinity 5.90186501
REMARK  5 active torsions:
REMARK  status: ('A' for Active; 'I' for Inactive)
REMARK    1  A    between atoms: O1_2  and  C2_3 
REMARK    2  A    between atoms: C4_5  and  N1_6 
REMARK    3  A    between atoms: N1_6  and  C5_7 
REMARK    4  A    between atoms: C9_13  and  C10_14 
REMARK    5  A    between atoms: C20_30  and  O3_31 
ROOT
HETATM    1  C5  UNL     1       8.790  -8.416  27.765  1.00  0.00     0.684 A 
HETATM    2  N2  UNL     1       8.727  -9.749  27.651  1.00  0.00    -0.201 N 
ATOM      3  H2  UNL     1       7.940 -10.204  27.186  1.00  0.00     0.183 HD
HETATM    4  C6  UNL     1       9.739 -10.467  28.170  1.00  0.00     0.121 A 
HETATM    5  C7  UNL     1      10.822  -9.908  28.805  1.00  0.00     0.026 A 
HETATM    6  C8  UNL     1      11.912 -10.689  29.363  1.00  0.00     0.034 A 
HETATM    7  C9  UNL     1      12.933 -10.060  29.968  1.00  0.00     0.047 A 
HETATM    8  C16 UNL     1      12.958  -8.562  30.071  1.00  0.00     0.260 A 
HETATM    9  O2  UNL     1      13.907  -8.013  30.631  1.00  0.00    -0.267 OA
HETATM   10  N3  UNL     1      11.890  -7.872  29.519  1.00  0.00    -0.303 N 
HETATM   11  C17 UNL     1      11.852  -6.422  29.586  1.00  0.00     0.161 C 
HETATM   12  C18 UNL     1      10.807  -8.529  28.879  1.00  0.00     0.137 A 
HETATM   13  N4  UNL     1       9.806  -7.781  28.368  1.00  0.00    -0.175 N 
ATOM     14  H4  UNL     1       9.822  -6.763  28.438  1.00  0.00     0.186 HD
ENDROOT
BRANCH   1  15
HETATM   15  N1  UNL     1       7.795  -7.582  27.262  1.00  0.00    -0.191 N 
HETATM   16  H5  UNL     1       8.107  -7.199  26.383  1.00  0.00     0.184 HD
BRANCH  15  17
HETATM   17  C4  UNL     1       6.525  -7.195  27.711  1.00  0.00     0.054 A 
HETATM   18  C3  UNL     1       5.441  -8.060  27.476  1.00  0.00     0.066 A 
HETATM   19  C2  UNL     1       4.149  -7.736  27.897  1.00  0.00     0.073 A 
HETATM   20  C22 UNL     1       3.922  -6.530  28.563  1.00  0.00     0.073 A 
HETATM   21  C20 UNL     1       4.978  -5.655  28.808  1.00  0.00     0.073 A 
HETATM   22  C19 UNL     1       6.266  -5.994  28.381  1.00  0.00     0.066 A 
BRANCH  19  23
HETATM   23  O1  UNL     1       3.029  -8.505  27.719  1.00  0.00    -0.356 OA
HETATM   24  C1  UNL     1       1.967  -7.937  26.964  1.00  0.00     0.210 C 
ENDBRANCH  19  23
BRANCH  21  25
HETATM   25  O3  UNL     1       4.886  -4.449  29.449  1.00  0.00    -0.356 OA
HETATM   26  C21 UNL     1       5.819  -4.200  30.492  1.00  0.00     0.210 C 
ENDBRANCH  21  25
ENDBRANCH  15  17
ENDBRANCH   1  15
BRANCH   7  27
HETATM   27  C10 UNL     1      14.043 -10.847  30.538  1.00  0.00     0.023 A 
HETATM   28  C11 UNL     1      15.171 -11.173  29.762  1.00  0.00     0.046 A 
HETATM   29 CL1  UNL     1      15.306 -10.702  28.101  1.00  0.00    -0.083 Cl
HETATM   30  C12 UNL     1      16.230 -11.907  30.309  1.00  0.00     0.025 A 
HETATM   31  C13 UNL     1      16.182 -12.325  31.636  1.00  0.00     0.003 A 
HETATM   32  C14 UNL     1      15.073 -12.011  32.420  1.00  0.00     0.025 A 
HETATM   33  C15 UNL     1      14.012 -11.277  31.877  1.00  0.00     0.046 A 
HETATM   34 CL2  UNL     1      12.667 -10.940  32.916  1.00  0.00    -0.083 Cl
ENDBRANCH   7  27
TORSDOF 5
ENDMDL
MODEL 9
REMARK minimizedAffinity -7.56204796
REMARK CNNscore 0.187280789
REMARK CNNaffinity 5.86089087
REMARK  5 active torsions:
REMARK  status: ('A' for Active; 'I' for Inactive)
REMARK    1  A    between atoms: O1_2  and  C2_3 
REMARK    2  A    between atoms: C4_5  and  N1_6 
REMARK    3  A    between atoms: N1_6  and  C5_7 
REMARK    4  A    between atoms: C9_13  and  C10_14 
REMARK    5  A    between atoms: C20_30  and  O3_31 
ROOT
HETATM    1  C5  UNL     1       8.643  -8.299  28.282  1.00  0.00     0.684 A 
HETATM    2  N2  UNL     1       8.538  -9.633  28.218  1.00  0.00    -0.201 N 
ATOM      3  H2  UNL     1       7.699 -10.080  27.850  1.00  0.00     0.183 HD
HETATM    4  C6  UNL     1       9.580 -10.361  28.658  1.00  0.00     0.121 A 
HETATM    5  C7  UNL     1      10.734  -9.812  29.163  1.00  0.00     0.026 A 
HETATM    6  C8  UNL     1      11.855 -10.605  29.637  1.00  0.00     0.034 A 
HETATM    7  C9  UNL     1      12.946  -9.985  30.116  1.00  0.00     0.047 A 
HETATM    8  C16 UNL     1      13.016  -8.486  30.167  1.00  0.00     0.260 A 
HETATM    9  O2  UNL     1      14.029  -7.945  30.612  1.00  0.00    -0.267 OA
HETATM   10  N3  UNL     1      11.915  -7.785  29.702  1.00  0.00    -0.303 N 
HETATM   11  C17 UNL     1      11.918  -6.333  29.724  1.00  0.00     0.161 C 
HETATM   12  C18 UNL     1      10.759  -8.431  29.194  1.00  0.00     0.137 A 
HETATM   13  N4  UNL     1       9.729  -7.673  28.760  1.00  0.00    -0.175 N 
ATOM     14  H4  UNL     1       9.776  -6.655  28.795  1.00  0.00     0.186 HD
ENDROOT
BRANCH   1  15
HETATM   15  N1  UNL     1       7.623  -7.454  27.854  1.00  0.00    -0.191 N 
HETATM   16  H5  UNL     1       7.629  -7.425  26.845  1.00  0.00     0.184 HD
BRANCH  15  17
HETATM   17  C4  UNL     1       6.651  -6.685  28.508  1.00  0.00     0.054 A 
HETATM   18  C3  UNL     1       7.080  -5.697  29.413  1.00  0.00     0.066 A 
HETATM   19  C2  UNL     1       6.165  -4.895  30.100  1.00  0.00     0.073 A 
HETATM   20  C22 UNL     1       4.797  -5.074  29.889  1.00  0.00     0.073 A 
HETATM   21  C20 UNL     1       4.345  -6.046  28.999  1.00  0.00     0.073 A 
HETATM   22  C19 UNL     1       5.275  -6.841  28.319  1.00  0.00     0.066 A 
BRANCH  19  23
HETATM   23  O1  UNL     1       6.475  -3.908  30.998  1.00  0.00    -0.356 OA
HETATM   24  C1  UNL     1       5.575  -2.812  31.093  1.00  0.00     0.210 C 
ENDBRANCH  19  23
BRANCH  21  25
HETATM   25  O3  UNL     1       3.036  -6.318  28.706  1.00  0.00    -0.356 OA
HETATM   26  C21 UNL     1       2.781  -7.444  27.877  1.00  0.00     0.210 C 
ENDBRANCH  21  25
ENDBRANCH  15  17
ENDBRANCH   1  15
BRANCH   7  27
HETATM   27  C10 UNL     1      14.089 -10.784  30.599  1.00  0.00     0.023 A 
HETATM   28  C11 UNL     1      14.129 -11.263  31.921  1.00  0.00     0.046 A 
HETATM   29 CL1  UNL     1      12.868 -10.918  33.057  1.00  0.00    -0.083 Cl
HETATM   30  C12 UNL     1      15.206 -12.034  32.372  1.00  0.00     0.025 A 
HETATM   31  C13 UNL     1      16.258 -12.340  31.513  1.00  0.00     0.003 A 
HETATM   32  C14 UNL     1      16.235 -11.875  30.199  1.00  0.00     0.025 A 
HETATM   33  C15 UNL     1      15.160 -11.104  29.744  1.00  0.00     0.046 A 
HETATM   34 CL2  UNL     1      15.215 -10.557  28.102  1.00  0.00    -0.083 Cl
ENDBRANCH   7  27
TORSDOF 5
ENDMDL
