MODEL 1
REMARK minimizedAffinity -7.27010965
REMARK  4 active torsions:
REMARK  status: ('A' for Active; 'I' for Inactive)
REMARK    1  A    between atoms: N2_4  and  N3_6 
REMARK    2  A    between atoms: N3_6  and  C2_7 
REMARK    3  A    between atoms: C7_16  and  N6_17 
REMARK    4  A    between atoms: N6_17  and  C8_18 
ROOT
HETATM    1  C2  UNL     1       9.745  35.746  17.813  1.00  0.00     0.050 A 
HETATM    2  C3  UNL     1       8.530  36.430  17.781  1.00  0.00     0.033 A 
HETATM    3  C4  UNL     1       7.693  36.456  18.903  1.00  0.00     0.033 A 
HETATM    4  C5  UNL     1       8.041  35.836  20.093  1.00  0.00     0.047 A 
HETATM    5  N4  UNL     1       7.188  35.894  21.119  1.00  0.00    -0.352 N 
ATOM      6  H4  UNL     1       6.293  36.378  21.045  1.00  0.00     0.166 HD
HETATM    7  C6  UNL     1       7.565  35.284  22.246  1.00  0.00     0.182 A 
HETATM    8  N5  UNL     1       8.717  34.642  22.449  1.00  0.00    -0.338 N 
ATOM      9  H5  UNL     1       8.934  34.202  23.343  1.00  0.00     0.168 HD
HETATM   10  C7  UNL     1       9.581  34.602  21.418  1.00  0.00     0.119 A 
HETATM   11  C15 UNL     1       9.279  35.186  20.170  1.00  0.00     0.037 A 
HETATM   12  C16 UNL     1      10.120  35.151  19.023  1.00  0.00     0.048 A 
ENDROOT
BRANCH  10  13
HETATM   13  N6  UNL     1      10.847  33.975  21.588  1.00  0.00    -0.342 N 
HETATM   14  H8  UNL     1      10.851  33.111  21.055  1.00  0.00     0.167 HD
BRANCH  13  15
HETATM   15  C8  UNL     1      12.128  34.573  21.599  1.00  0.00     0.034 A 
HETATM   16  C9  UNL     1      12.302  35.794  22.266  1.00  0.00     0.029 A 
HETATM   17  C10 UNL     1      13.529  36.461  22.241  1.00  0.00     0.003 A 
HETATM   18  C11 UNL     1      14.600  35.927  21.529  1.00  0.00     0.007 A 
HETATM   19  C12 UNL     1      14.449  34.723  20.835  1.00  0.00    -0.060 A 
HETATM   20  C13 UNL     1      15.577  34.165  20.020  1.00  0.00     0.048 C 
HETATM   21  C14 UNL     1      13.204  34.071  20.857  1.00  0.00     0.036 A 
ENDBRANCH  13  15
ENDBRANCH  10  13
BRANCH   1  22
HETATM   22  N3  UNL     1      10.641  35.734  16.731  1.00  0.00    -0.287 N 
HETATM   23  H4  UNL     1      10.528  36.485  16.058  1.00  0.00     0.188 HD
BRANCH  22  24
HETATM   24  N2  UNL     1      11.917  35.364  16.943  1.00  0.00    -0.247 N 
HETATM   25  N1  UNL     1      12.612  36.173  16.302  1.00  0.00    -0.327 N 
HETATM   26  C1  UNL     1      14.039  35.881  16.438  1.00  0.00     0.169 C 
ATOM     27  H1  UNL     1      12.234  36.944  15.751  1.00  0.00     0.181 HD
ATOM     28  H2  UNL     1      12.247  34.584  17.511  1.00  0.00     0.208 HD
ENDBRANCH  22  24
ENDBRANCH   1  22
TORSDOF 4
ENDMDL
MODEL 2
REMARK minimizedAffinity -7.15458584
REMARK  4 active torsions:
REMARK  status: ('A' for Active; 'I' for Inactive)
REMARK    1  A    between atoms: N2_4  and  N3_6 
REMARK    2  A    between atoms: N3_6  and  C2_7 
REMARK    3  A    between atoms: C7_16  and  N6_17 
REMARK    4  A    between atoms: N6_17  and  C8_18 
ROOT
HETATM    1  C2  UNL     1      15.344  35.386  15.914  1.00  0.00     0.050 A 
HETATM    2  C3  UNL     1      16.564  35.028  16.490  1.00  0.00     0.033 A 
HETATM    3  C4  UNL     1      16.625  34.572  17.812  1.00  0.00     0.033 A 
HETATM    4  C5  UNL     1      15.487  34.427  18.592  1.00  0.00     0.047 A 
HETATM    5  N4  UNL     1      15.624  33.996  19.849  1.00  0.00    -0.352 N 
ATOM      6  H4  UNL     1      16.538  33.775  20.243  1.00  0.00     0.166 HD
HETATM    7  C6  UNL     1      14.502  33.870  20.563  1.00  0.00     0.182 A 
HETATM    8  N5  UNL     1      13.261  34.115  20.134  1.00  0.00    -0.338 N 
ATOM      9  H5  UNL     1      12.452  33.991  20.742  1.00  0.00     0.168 HD
HETATM   10  C7  UNL     1      13.128  34.532  18.862  1.00  0.00     0.119 A 
HETATM   11  C15 UNL     1      14.244  34.729  18.022  1.00  0.00     0.037 A 
HETATM   12  C16 UNL     1      14.188  35.205  16.683  1.00  0.00     0.048 A 
ENDROOT
BRANCH  10  13
HETATM   13  N6  UNL     1      11.828  34.761  18.333  1.00  0.00    -0.342 N 
HETATM   14  H8  UNL     1      11.682  34.125  17.555  1.00  0.00     0.167 HD
BRANCH  13  15
HETATM   15  C8  UNL     1      10.622  34.992  19.034  1.00  0.00     0.034 A 
HETATM   16  C9  UNL     1      10.368  34.263  20.205  1.00  0.00     0.029 A 
HETATM   17  C10 UNL     1       9.159  34.399  20.892  1.00  0.00     0.003 A 
HETATM   18  C11 UNL     1       8.173  35.255  20.406  1.00  0.00     0.007 A 
HETATM   19  C12 UNL     1       8.389  35.976  19.228  1.00  0.00    -0.060 A 
HETATM   20  C13 UNL     1       7.314  36.858  18.665  1.00  0.00     0.048 C 
HETATM   21  C14 UNL     1       9.604  35.816  18.540  1.00  0.00     0.036 A 
ENDBRANCH  13  15
ENDBRANCH  10  13
BRANCH   1  22
HETATM   22  N3  UNL     1      15.226  35.800  14.577  1.00  0.00    -0.287 N 
HETATM   23  H4  UNL     1      14.673  36.637  14.423  1.00  0.00     0.188 HD
BRANCH  22  24
HETATM   24  N2  UNL     1      16.286  35.677  13.758  1.00  0.00    -0.247 N 
HETATM   25  N1  UNL     1      15.932  34.885  12.866  1.00  0.00    -0.327 N 
HETATM   26  C1  UNL     1      17.004  34.650  11.899  1.00  0.00     0.169 C 
ATOM     27  H1  UNL     1      15.009  34.453  12.815  1.00  0.00     0.181 HD
ATOM     28  H2  UNL     1      17.192  36.137  13.849  1.00  0.00     0.208 HD
ENDBRANCH  22  24
ENDBRANCH   1  22
TORSDOF 4
ENDMDL
MODEL 3
REMARK minimizedAffinity -6.91646671
REMARK  4 active torsions:
REMARK  status: ('A' for Active; 'I' for Inactive)
REMARK    1  A    between atoms: N2_4  and  N3_6 
REMARK    2  A    between atoms: N3_6  and  C2_7 
REMARK    3  A    between atoms: C7_16  and  N6_17 
REMARK    4  A    between atoms: N6_17  and  C8_18 
ROOT
HETATM    1  C2  UNL     1      13.215  34.984  17.364  1.00  0.00     0.050 A 
HETATM    2  C3  UNL     1      13.378  34.324  18.582  1.00  0.00     0.033 A 
HETATM    3  C4  UNL     1      14.651  34.151  19.138  1.00  0.00     0.033 A 
HETATM    4  C5  UNL     1      15.792  34.649  18.528  1.00  0.00     0.047 A 
HETATM    5  N4  UNL     1      16.974  34.437  19.112  1.00  0.00    -0.352 N 
ATOM      6  H4  UNL     1      17.055  33.920  19.988  1.00  0.00     0.166 HD
HETATM    7  C6  UNL     1      18.047  34.935  18.491  1.00  0.00     0.182 A 
HETATM    8  N5  UNL     1      18.046  35.638  17.356  1.00  0.00    -0.338 N 
ATOM      9  H5  UNL     1      18.910  35.988  16.943  1.00  0.00     0.168 HD
HETATM   10  C7  UNL     1      16.850  35.863  16.781  1.00  0.00     0.119 A 
HETATM   11  C15 UNL     1      15.652  35.362  17.331  1.00  0.00     0.037 A 
HETATM   12  C16 UNL     1      14.359  35.523  16.763  1.00  0.00     0.048 A 
ENDROOT
BRANCH  10  13
HETATM   13  N6  UNL     1      16.780  36.649  15.596  1.00  0.00    -0.342 N 
HETATM   14  H8  UNL     1      17.169  37.565  15.796  1.00  0.00     0.167 HD
BRANCH  13  15
HETATM   15  C8  UNL     1      17.055  36.258  14.266  1.00  0.00     0.034 A 
HETATM   16  C9  UNL     1      17.419  37.239  13.331  1.00  0.00     0.029 A 
HETATM   17  C10 UNL     1      17.627  36.914  11.989  1.00  0.00     0.003 A 
HETATM   18  C11 UNL     1      17.453  35.602  11.553  1.00  0.00     0.007 A 
HETATM   19  C12 UNL     1      17.068  34.608  12.457  1.00  0.00    -0.060 A 
HETATM   20  C13 UNL     1      16.824  33.204  11.990  1.00  0.00     0.048 C 
HETATM   21  C14 UNL     1      16.847  34.953  13.801  1.00  0.00     0.036 A 
ENDBRANCH  13  15
ENDBRANCH  10  13
BRANCH   1  22
HETATM   22  N3  UNL     1      11.955  35.226  16.791  1.00  0.00    -0.287 N 
HETATM   23  H4  UNL     1      11.762  34.731  15.927  1.00  0.00     0.188 HD
BRANCH  22  24
HETATM   24  N2  UNL     1      10.887  35.373  17.598  1.00  0.00    -0.247 N 
HETATM   25  N1  UNL     1       9.981  35.825  16.876  1.00  0.00    -0.327 N 
HETATM   26  C1  UNL     1       8.749  36.044  17.634  1.00  0.00     0.169 C 
ATOM     27  H1  UNL     1      10.083  36.020  15.879  1.00  0.00     0.181 HD
ATOM     28  H2  UNL     1      10.833  35.157  18.593  1.00  0.00     0.208 HD
ENDBRANCH  22  24
ENDBRANCH   1  22
TORSDOF 4
ENDMDL
MODEL 4
REMARK minimizedAffinity -6.89570284
REMARK  4 active torsions:
REMARK  status: ('A' for Active; 'I' for Inactive)
REMARK    1  A    between atoms: N2_4  and  N3_6 
REMARK    2  A    between atoms: N3_6  and  C2_7 
REMARK    3  A    between atoms: C7_16  and  N6_17 
REMARK    4  A    between atoms: N6_17  and  C8_18 
ROOT
HETATM    1  C2  UNL     1      10.839  35.623  17.446  1.00  0.00     0.050 A 
HETATM    2  C3  UNL     1       9.521  36.074  17.527  1.00  0.00     0.033 A 
HETATM    3  C4  UNL     1       8.748  35.825  18.667  1.00  0.00     0.033 A 
HETATM    4  C5  UNL     1       9.259  35.154  19.768  1.00  0.00     0.047 A 
HETATM    5  N4  UNL     1       8.459  34.943  20.816  1.00  0.00    -0.352 N 
ATOM      6  H4  UNL     1       7.489  35.261  20.823  1.00  0.00     0.166 HD
HETATM    7  C6  UNL     1       8.992  34.294  21.855  1.00  0.00     0.182 A 
HETATM    8  N5  UNL     1      10.249  33.855  21.950  1.00  0.00    -0.338 N 
ATOM      9  H5  UNL     1      10.583  33.368  22.781  1.00  0.00     0.168 HD
HETATM   10  C7  UNL     1      11.055  34.085  20.898  1.00  0.00     0.119 A 
HETATM   11  C15 UNL     1      10.595  34.737  19.735  1.00  0.00     0.037 A 
HETATM   12  C16 UNL     1      11.372  34.980  18.569  1.00  0.00     0.048 A 
ENDROOT
BRANCH  10  13
HETATM   13  N6  UNL     1      12.420  33.686  20.960  1.00  0.00    -0.342 N 
HETATM   14  H8  UNL     1      12.556  32.912  20.318  1.00  0.00     0.167 HD
BRANCH  13  15
HETATM   15  C8  UNL     1      13.571  34.502  21.026  1.00  0.00     0.034 A 
HETATM   16  C9  UNL     1      13.556  35.632  21.857  1.00  0.00     0.029 A 
HETATM   17  C10 UNL     1      14.641  36.512  21.899  1.00  0.00     0.003 A 
HETATM   18  C11 UNL     1      15.754  36.286  21.091  1.00  0.00     0.007 A 
HETATM   19  C12 UNL     1      15.787  35.181  20.236  1.00  0.00    -0.060 A 
HETATM   20  C13 UNL     1      16.955  34.958  19.323  1.00  0.00     0.048 C 
HETATM   21  C14 UNL     1      14.682  34.315  20.194  1.00  0.00     0.036 A 
ENDBRANCH  13  15
ENDBRANCH  10  13
BRANCH   1  22
HETATM   22  N3  UNL     1      11.670  35.892  16.345  1.00  0.00    -0.287 N 
HETATM   23  H4  UNL     1      11.362  36.642  15.734  1.00  0.00     0.188 HD
BRANCH  22  24
HETATM   24  N2  UNL     1      13.005  35.813  16.499  1.00  0.00    -0.247 N 
HETATM   25  N1  UNL     1      13.486  36.048  15.376  1.00  0.00    -0.327 N 
HETATM   26  C1  UNL     1      14.948  35.986  15.395  1.00  0.00     0.169 C 
ATOM     27  H1  UNL     1      12.932  36.258  14.545  1.00  0.00     0.181 HD
ATOM     28  H2  UNL     1      13.515  35.605  17.357  1.00  0.00     0.208 HD
ENDBRANCH  22  24
ENDBRANCH   1  22
TORSDOF 4
ENDMDL
MODEL 5
REMARK minimizedAffinity -6.86881018
REMARK  4 active torsions:
REMARK  status: ('A' for Active; 'I' for Inactive)
REMARK    1  A    between atoms: N2_4  and  N3_6 
REMARK    2  A    between atoms: N3_6  and  C2_7 
REMARK    3  A    between atoms: C7_16  and  N6_17 
REMARK    4  A    between atoms: N6_17  and  C8_18 
ROOT
HETATM    1  C2  UNL     1      14.296  36.585  16.544  1.00  0.00     0.050 A 
HETATM    2  C3  UNL     1      15.292  35.609  16.575  1.00  0.00     0.033 A 
HETATM    3  C4  UNL     1      15.424  34.757  17.678  1.00  0.00     0.033 A 
HETATM    4  C5  UNL     1      14.563  34.821  18.764  1.00  0.00     0.047 A 
HETATM    5  N4  UNL     1      14.757  33.984  19.785  1.00  0.00    -0.352 N 
ATOM      6  H4  UNL     1      15.518  33.304  19.784  1.00  0.00     0.166 HD
HETATM    7  C6  UNL     1      13.903  34.080  20.808  1.00  0.00     0.182 A 
HETATM    8  N5  UNL     1      12.869  34.919  20.897  1.00  0.00    -0.338 N 
ATOM      9  H5  UNL     1      12.259  34.930  21.714  1.00  0.00     0.168 HD
HETATM   10  C7  UNL     1      12.668  35.750  19.858  1.00  0.00     0.119 A 
HETATM   11  C15 UNL     1      13.522  35.757  18.734  1.00  0.00     0.037 A 
HETATM   12  C16 UNL     1      13.400  36.630  17.618  1.00  0.00     0.048 A 
ENDROOT
BRANCH  10  13
HETATM   13  N6  UNL     1      11.552  36.632  19.871  1.00  0.00    -0.342 N 
HETATM   14  H8  UNL     1      11.819  37.493  19.405  1.00  0.00     0.167 HD
BRANCH  13  15
HETATM   15  C8  UNL     1      10.191  36.330  19.642  1.00  0.00     0.034 A 
HETATM   16  C9  UNL     1       9.711  36.316  18.324  1.00  0.00     0.029 A 
HETATM   17  C10 UNL     1       8.359  36.097  18.050  1.00  0.00     0.003 A 
HETATM   18  C11 UNL     1       7.457  35.908  19.095  1.00  0.00     0.007 A 
HETATM   19  C12 UNL     1       7.902  35.940  20.419  1.00  0.00    -0.060 A 
HETATM   20  C13 UNL     1       6.933  35.793  21.554  1.00  0.00     0.048 C 
HETATM   21  C14 UNL     1       9.262  36.177  20.679  1.00  0.00     0.036 A 
ENDBRANCH  13  15
ENDBRANCH  10  13
BRANCH   1  22
HETATM   22  N3  UNL     1      14.091  37.429  15.439  1.00  0.00    -0.287 N 
HETATM   23  H4  UNL     1      13.148  37.786  15.326  1.00  0.00     0.188 HD
BRANCH  22  24
HETATM   24  N2  UNL     1      15.059  38.297  15.091  1.00  0.00    -0.247 N 
HETATM   25  N1  UNL     1      14.928  39.270  15.856  1.00  0.00    -0.327 N 
HETATM   26  C1  UNL     1      15.923  40.307  15.581  1.00  0.00     0.169 C 
ATOM     27  H1  UNL     1      14.217  39.336  16.584  1.00  0.00     0.181 HD
ATOM     28  H2  UNL     1      15.756  38.181  14.355  1.00  0.00     0.208 HD
ENDBRANCH  22  24
ENDBRANCH   1  22
TORSDOF 4
ENDMDL
MODEL 6
REMARK minimizedAffinity -6.55838442
REMARK  4 active torsions:
REMARK  status: ('A' for Active; 'I' for Inactive)
REMARK    1  A    between atoms: N2_4  and  N3_6 
REMARK    2  A    between atoms: N3_6  and  C2_7 
REMARK    3  A    between atoms: C7_16  and  N6_17 
REMARK    4  A    between atoms: N6_17  and  C8_18 
ROOT
HETATM    1  C2  UNL     1      15.242  38.233  16.408  1.00  0.00     0.050 A 
HETATM    2  C3  UNL     1      16.579  37.921  16.653  1.00  0.00     0.033 A 
HETATM    3  C4  UNL     1      16.934  36.695  17.228  1.00  0.00     0.033 A 
HETATM    4  C5  UNL     1      15.988  35.733  17.550  1.00  0.00     0.047 A 
HETATM    5  N4  UNL     1      16.400  34.592  18.106  1.00  0.00    -0.352 N 
ATOM      6  H4  UNL     1      17.386  34.414  18.299  1.00  0.00     0.166 HD
HETATM    7  C6  UNL     1      15.456  33.693  18.398  1.00  0.00     0.182 A 
HETATM    8  N5  UNL     1      14.147  33.822  18.170  1.00  0.00    -0.338 N 
ATOM      9  H5  UNL     1      13.486  33.087  18.420  1.00  0.00     0.168 HD
HETATM   10  C7  UNL     1      13.739  34.967  17.594  1.00  0.00     0.119 A 
HETATM   11  C15 UNL     1      14.643  35.999  17.266  1.00  0.00     0.037 A 
HETATM   12  C16 UNL     1      14.286  37.252  16.695  1.00  0.00     0.048 A 
ENDROOT
BRANCH  10  13
HETATM   13  N6  UNL     1      12.362  35.142  17.280  1.00  0.00    -0.342 N 
HETATM   14  H8  UNL     1      12.137  34.548  16.488  1.00  0.00     0.167 HD
BRANCH  13  15
HETATM   15  C8  UNL     1      11.266  35.247  18.166  1.00  0.00     0.034 A 
HETATM   16  C9  UNL     1      11.250  34.455  19.323  1.00  0.00     0.029 A 
HETATM   17  C10 UNL     1      10.155  34.467  20.191  1.00  0.00     0.003 A 
HETATM   18  C11 UNL     1       9.045  35.259  19.903  1.00  0.00     0.007 A 
HETATM   19  C12 UNL     1       9.024  36.041  18.745  1.00  0.00    -0.060 A 
HETATM   20  C13 UNL     1       7.813  36.856  18.397  1.00  0.00     0.048 C 
HETATM   21  C14 UNL     1      10.126  36.006  17.875  1.00  0.00     0.036 A 
ENDBRANCH  13  15
ENDBRANCH  10  13
BRANCH   1  22
HETATM   22  N3  UNL     1      14.840  39.428  15.787  1.00  0.00    -0.287 N 
HETATM   23  H4  UNL     1      13.890  39.440  15.430  1.00  0.00     0.188 HD
BRANCH  22  24
HETATM   24  N2  UNL     1      15.258  40.602  16.295  1.00  0.00    -0.247 N 
HETATM   25  N1  UNL     1      14.871  40.613  17.478  1.00  0.00    -0.327 N 
HETATM   26  C1  UNL     1      15.253  41.851  18.156  1.00  0.00     0.169 C 
ATOM     27  H1  UNL     1      14.351  39.854  17.919  1.00  0.00     0.181 HD
ATOM     28  H2  UNL     1      15.782  41.331  15.812  1.00  0.00     0.208 HD
ENDBRANCH  22  24
ENDBRANCH   1  22
TORSDOF 4
ENDMDL
MODEL 7
REMARK minimizedAffinity -6.55426311
REMARK  4 active torsions:
REMARK  status: ('A' for Active; 'I' for Inactive)
REMARK    1  A    between atoms: N2_4  and  N3_6 
REMARK    2  A    between atoms: N3_6  and  C2_7 
REMARK    3  A    between atoms: C7_16  and  N6_17 
REMARK    4  A    between atoms: N6_17  and  C8_18 
ROOT
HETATM    1  C2  UNL     1      12.133  56.076  -1.436  1.00  0.00     0.050 A 
HETATM    2  C3  UNL     1      12.396  56.976  -2.468  1.00  0.00     0.033 A 
HETATM    3  C4  UNL     1      12.839  58.274  -2.190  1.00  0.00     0.033 A 
HETATM    4  C5  UNL     1      13.065  58.712  -0.893  1.00  0.00     0.047 A 
HETATM    5  N4  UNL     1      13.477  59.968  -0.704  1.00  0.00    -0.352 N 
ATOM      6  H4  UNL     1      13.627  60.606  -1.485  1.00  0.00     0.166 HD
HETATM    7  C6  UNL     1      13.682  60.345   0.561  1.00  0.00     0.182 A 
HETATM    8  N5  UNL     1      13.532  59.584   1.646  1.00  0.00    -0.338 N 
ATOM      9  H5  UNL     1      13.711  59.947   2.582  1.00  0.00     0.168 HD
HETATM   10  C7  UNL     1      13.132  58.314   1.449  1.00  0.00     0.119 A 
HETATM   11  C15 UNL     1      12.859  57.812   0.159  1.00  0.00     0.037 A 
HETATM   12  C16 UNL     1      12.395  56.498  -0.127  1.00  0.00     0.048 A 
ENDROOT
BRANCH  10  13
HETATM   13  N6  UNL     1      13.003  57.439   2.563  1.00  0.00    -0.342 N 
HETATM   14  H8  UNL     1      12.135  56.922   2.465  1.00  0.00     0.167 HD
BRANCH  13  15
HETATM   15  C8  UNL     1      14.000  56.648   3.178  1.00  0.00     0.034 A 
HETATM   16  C9  UNL     1      15.344  56.867   2.842  1.00  0.00     0.029 A 
HETATM   17  C10 UNL     1      16.359  56.062   3.365  1.00  0.00     0.003 A 
HETATM   18  C11 UNL     1      16.044  55.008   4.220  1.00  0.00     0.007 A 
HETATM   19  C12 UNL     1      14.711  54.752   4.554  1.00  0.00    -0.060 A 
HETATM   20  C13 UNL     1      14.354  53.587   5.429  1.00  0.00     0.048 C 
HETATM   21  C14 UNL     1      13.700  55.560   4.008  1.00  0.00     0.036 A 
ENDBRANCH  13  15
ENDBRANCH  10  13
BRANCH   1  22
HETATM   22  N3  UNL     1      11.736  54.747  -1.666  1.00  0.00    -0.287 N 
HETATM   23  H4  UNL     1      10.936  54.628  -2.278  1.00  0.00     0.188 HD
BRANCH  22  24
HETATM   24  N2  UNL     1      12.679  53.795  -1.791  1.00  0.00    -0.247 N 
HETATM   25  N1  UNL     1      12.069  52.758  -2.106  1.00  0.00    -0.327 N 
HETATM   26  C1  UNL     1      12.982  51.626  -2.268  1.00  0.00     0.169 C 
ATOM     27  H1  UNL     1      11.059  52.703  -2.236  1.00  0.00     0.181 HD
ATOM     28  H2  UNL     1      13.684  53.902  -1.655  1.00  0.00     0.208 HD
ENDBRANCH  22  24
ENDBRANCH   1  22
TORSDOF 4
ENDMDL
MODEL 8
REMARK minimizedAffinity -6.54187536
REMARK  4 active torsions:
REMARK  status: ('A' for Active; 'I' for Inactive)
REMARK    1  A    between atoms: N2_4  and  N3_6 
REMARK    2  A    between atoms: N3_6  and  C2_7 
REMARK    3  A    between atoms: C7_16  and  N6_17 
REMARK    4  A    between atoms: N6_17  and  C8_18 
ROOT
HETATM    1  C2  UNL     1      15.206  54.338  -1.707  1.00  0.00     0.050 A 
HETATM    2  C3  UNL     1      14.414  53.662  -2.637  1.00  0.00     0.033 A 
HETATM    3  C4  UNL     1      13.067  54.001  -2.810  1.00  0.00     0.033 A 
HETATM    4  C5  UNL     1      12.472  55.031  -2.098  1.00  0.00     0.047 A 
HETATM    5  N4  UNL     1      11.179  55.291  -2.308  1.00  0.00    -0.352 N 
ATOM      6  H4  UNL     1      10.625  54.752  -2.974  1.00  0.00     0.166 HD
HETATM    7  C6  UNL     1      10.647  56.292  -1.602  1.00  0.00     0.182 A 
HETATM    8  N5  UNL     1      11.288  57.066  -0.723  1.00  0.00    -0.338 N 
ATOM      9  H5  UNL     1      10.810  57.815  -0.223  1.00  0.00     0.168 HD
HETATM   10  C7  UNL     1      12.594  56.810  -0.527  1.00  0.00     0.119 A 
HETATM   11  C15 UNL     1      13.257  55.760  -1.196  1.00  0.00     0.037 A 
HETATM   12  C16 UNL     1      14.621  55.404  -1.013  1.00  0.00     0.048 A 
ENDROOT
BRANCH  10  13
HETATM   13  N6  UNL     1      13.343  57.633   0.361  1.00  0.00    -0.342 N 
HETATM   14  H8  UNL     1      13.247  58.598   0.060  1.00  0.00     0.167 HD
BRANCH  13  15
HETATM   15  C8  UNL     1      13.440  57.546   1.768  1.00  0.00     0.034 A 
HETATM   16  C9  UNL     1      13.419  58.726   2.525  1.00  0.00     0.029 A 
HETATM   17  C10 UNL     1      13.587  58.698   3.911  1.00  0.00     0.003 A 
HETATM   18  C11 UNL     1      13.801  57.485   4.564  1.00  0.00     0.007 A 
HETATM   19  C12 UNL     1      13.849  56.295   3.832  1.00  0.00    -0.060 A 
HETATM   20  C13 UNL     1      14.133  54.991   4.516  1.00  0.00     0.048 C 
HETATM   21  C14 UNL     1      13.694  56.342   2.437  1.00  0.00     0.036 A 
ENDBRANCH  13  15
ENDBRANCH  10  13
BRANCH   1  22
HETATM   22  N3  UNL     1      16.574  54.068  -1.533  1.00  0.00    -0.287 N 
HETATM   23  H4  UNL     1      16.917  54.133  -0.581  1.00  0.00     0.188 HD
BRANCH  22  24
HETATM   24  N2  UNL     1      17.147  53.095  -2.266  1.00  0.00    -0.247 N 
HETATM   25  N1  UNL     1      18.211  52.819  -1.683  1.00  0.00    -0.327 N 
HETATM   26  C1  UNL     1      18.950  51.769  -2.384  1.00  0.00     0.169 C 
ATOM     27  H1  UNL     1      18.529  53.269  -0.824  1.00  0.00     0.181 HD
ATOM     28  H2  UNL     1      16.784  52.672  -3.120  1.00  0.00     0.208 HD
ENDBRANCH  22  24
ENDBRANCH   1  22
TORSDOF 4
ENDMDL
MODEL 9
REMARK minimizedAffinity -6.51689434
REMARK  4 active torsions:
REMARK  status: ('A' for Active; 'I' for Inactive)
REMARK    1  A    between atoms: N2_4  and  N3_6 
REMARK    2  A    between atoms: N3_6  and  C2_7 
REMARK    3  A    between atoms: C7_16  and  N6_17 
REMARK    4  A    between atoms: N6_17  and  C8_18 
ROOT
HETATM    1  C2  UNL     1       2.057  69.352  -2.995  1.00  0.00     0.050 A 
HETATM    2  C3  UNL     1       1.439  69.021  -1.789  1.00  0.00     0.033 A 
HETATM    3  C4  UNL     1       1.171  67.686  -1.465  1.00  0.00     0.033 A 
HETATM    4  C5  UNL     1       1.531  66.641  -2.302  1.00  0.00     0.047 A 
HETATM    5  N4  UNL     1       1.233  65.393  -1.931  1.00  0.00    -0.352 N 
ATOM      6  H4  UNL     1       0.750  65.194  -1.055  1.00  0.00     0.166 HD
HETATM    7  C6  UNL     1       1.599  64.417  -2.767  1.00  0.00     0.182 A 
HETATM    8  N5  UNL     1       2.248  64.571  -3.923  1.00  0.00    -0.338 N 
ATOM      9  H5  UNL     1       2.495  63.772  -4.507  1.00  0.00     0.168 HD
HETATM   10  C7  UNL     1       2.560  65.829  -4.284  1.00  0.00     0.119 A 
HETATM   11  C15 UNL     1       2.200  66.941  -3.494  1.00  0.00     0.037 A 
HETATM   12  C16 UNL     1       2.458  68.299  -3.826  1.00  0.00     0.048 A 
ENDROOT
BRANCH  10  13
HETATM   13  N6  UNL     1       3.296  66.052  -5.481  1.00  0.00    -0.342 N 
HETATM   14  H8  UNL     1       3.185  67.025  -5.748  1.00  0.00     0.167 HD
BRANCH  13  15
HETATM   15  C8  UNL     1       4.581  65.573  -5.824  1.00  0.00     0.034 A 
HETATM   16  C9  UNL     1       5.328  64.882  -4.860  1.00  0.00     0.029 A 
HETATM   17  C10 UNL     1       6.631  64.455  -5.126  1.00  0.00     0.003 A 
HETATM   18  C11 UNL     1       7.219  64.733  -6.358  1.00  0.00     0.007 A 
HETATM   19  C12 UNL     1       6.506  65.441  -7.330  1.00  0.00    -0.060 A 
HETATM   20  C13 UNL     1       7.147  65.793  -8.640  1.00  0.00     0.048 C 
HETATM   21  C14 UNL     1       5.202  65.877  -7.042  1.00  0.00     0.036 A 
ENDBRANCH  13  15
ENDBRANCH  10  13
BRANCH   1  22
HETATM   22  N3  UNL     1       2.392  70.672  -3.342  1.00  0.00    -0.287 N 
HETATM   23  H4  UNL     1       1.829  71.090  -4.075  1.00  0.00     0.188 HD
BRANCH  22  24
HETATM   24  N2  UNL     1       2.769  71.527  -2.373  1.00  0.00    -0.247 N 
HETATM   25  N1  UNL     1       3.357  72.456  -2.956  1.00  0.00    -0.327 N 
HETATM   26  C1  UNL     1       3.834  73.466  -2.011  1.00  0.00     0.169 C 
ATOM     27  H1  UNL     1       3.491  72.508  -3.966  1.00  0.00     0.181 HD
ATOM     28  H2  UNL     1       2.606  71.434  -1.371  1.00  0.00     0.208 HD
ENDBRANCH  22  24
ENDBRANCH   1  22
TORSDOF 4
ENDMDL
