MODEL 1
REMARK minimizedAffinity -11.8890772
REMARK CNNscore 0.785619617
REMARK CNNaffinity 8.08616924
REMARK  6 active torsions:
REMARK  status: ('A' for Active; 'I' for Inactive)
REMARK    1  A    between atoms: C4_4  and  C5_5 
REMARK       I    between atoms: C5_5  and  N1_7 
REMARK    2  A    between atoms: C10_14  and  C11_15 
REMARK    3  A    between atoms: C16_26  and  N6_27 
REMARK    4  A    between atoms: N6_27  and  C17_28 
REMARK    5  A    between atoms: N8_36  and  C23_37 
REMARK    6  A    between atoms: C23_37  and  C24_38 
ROOT
HETATM    1  C11 UNL     1      -6.505   5.192  13.616  1.00  0.00     0.048 C 
HETATM    2  C12 UNL     1      -6.416   4.047  12.918  1.00  0.00     0.052 A 
HETATM    3  C13 UNL     1      -7.519   3.087  12.548  1.00  0.00     0.258 A 
HETATM    4  O3  UNL     1      -8.720   3.257  12.611  1.00  0.00    -0.267 OA
HETATM    5  N3  UNL     1      -6.873   1.971  12.064  1.00  0.00    -0.308 N 
HETATM    6  C14 UNL     1      -5.500   2.157  12.006  1.00  0.00     0.124 A 
HETATM    7  N4  UNL     1      -4.668   1.243  11.517  1.00  0.00    -0.338 N 
ATOM      8  H4  UNL     1      -4.969   0.327  11.183  1.00  0.00     0.168 HD
HETATM    9  C15 UNL     1      -3.396   1.651  11.509  1.00  0.00     0.183 A 
HETATM   10  N5  UNL     1      -2.942   2.858  11.903  1.00  0.00    -0.338 N 
ATOM     11  H5  UNL     1      -1.949   3.084  11.851  1.00  0.00     0.168 HD
HETATM   12  C16 UNL     1      -3.834   3.763  12.367  1.00  0.00     0.121 A 
HETATM   13  C31 UNL     1      -5.162   3.416  12.472  1.00  0.00     0.068 A 
HETATM   14  H15 UNL     1      -7.332   1.138  11.733  1.00  0.00     0.170 HD
ENDROOT
BRANCH  12  15
HETATM   15  N6  UNL     1      -3.413   5.068  12.717  1.00  0.00    -0.342 N 
HETATM   16  H17 UNL     1      -4.195   5.706  12.615  1.00  0.00     0.167 HD
BRANCH  15  17
HETATM   17  C17 UNL     1      -2.200   5.728  12.400  1.00  0.00     0.034 A 
HETATM   18  C18 UNL     1      -1.290   5.077  11.552  1.00  0.00     0.032 A 
HETATM   19  C19 UNL     1      -0.076   5.660  11.161  1.00  0.00     0.034 A 
HETATM   20  C20 UNL     1       0.194   6.950  11.627  1.00  0.00     0.062 A 
HETATM   21  C21 UNL     1      -0.707   7.651  12.422  1.00  0.00     0.011 A 
HETATM   22  N8  UNL     1       1.267   7.799  11.459  1.00  0.00    -0.288 N 
HETATM   23  C22 UNL     1      -0.090   8.900  12.647  1.00  0.00     0.121 A 
HETATM   24  C30 UNL     1      -1.922   7.044  12.797  1.00  0.00     0.044 A 
HETATM   25  N7  UNL     1       1.116   8.994  12.080  1.00  0.00    -0.308 N 
ATOM     26  H7  UNL     1       1.767   9.778  12.108  1.00  0.00     0.186 HD
BRANCH  22  27
HETATM   27  C23 UNL     1       2.533   7.492  10.798  1.00  0.00     0.187 C 
BRANCH  27  28
HETATM   28  C24 UNL     1       2.365   7.179   9.330  1.00  0.00    -0.038 A 
HETATM   29  C25 UNL     1       1.700   8.071   8.473  1.00  0.00     0.009 A 
HETATM   30  C26 UNL     1       1.560   7.780   7.117  1.00  0.00     0.001 A 
HETATM   31  C27 UNL     1       2.095   6.602   6.595  1.00  0.00     0.000 A 
HETATM   32  C28 UNL     1       2.773   5.718   7.428  1.00  0.00     0.001 A 
HETATM   33  C29 UNL     1       2.909   6.003   8.788  1.00  0.00     0.009 A 
ENDBRANCH  27  28
ENDBRANCH  22  27
ENDBRANCH  15  17
ENDBRANCH  12  15
BRANCH   1  34
HETATM   34  C10 UNL     1      -7.676   5.791  14.146  1.00  0.00     0.039 A 
HETATM   35  C2  UNL     1      -7.959   6.261  15.419  1.00  0.00    -0.033 A 
HETATM   36  C1  UNL     1      -7.098   6.162  16.629  1.00  0.00     0.050 C 
HETATM   37  C3  UNL     1      -9.229   6.892  15.347  1.00  0.00     0.044 A 
HETATM   38  C4  UNL     1      -9.705   6.803  14.049  1.00  0.00     0.102 A 
HETATM   39  N2  UNL     1      -8.744   6.116  13.341  1.00  0.00    -0.351 N 
HETATM   40  H13 UNL     1      -8.796   5.910  12.353  1.00  0.00     0.166 HD
BRANCH  38  41
HETATM   41  C5  UNL     1     -10.912   7.431  13.532  1.00  0.00     0.270 C 
HETATM   42  O1  UNL     1     -11.197   7.333  12.337  1.00  0.00    -0.266 OA
HETATM   43  N1  UNL     1     -11.757   8.123  14.407  1.00  0.00    -0.343 N 
HETATM   44  C6  UNL     1     -13.003   8.675  13.864  1.00  0.00     0.152 C 
HETATM   45  C9  UNL     1     -11.259   8.826  15.598  1.00  0.00     0.152 C 
HETATM   46  C7  UNL     1     -12.974  10.209  13.897  1.00  0.00     0.187 C 
HETATM   47  O2  UNL     1     -12.738  10.764  15.201  1.00  0.00    -0.388 OA
HETATM   48  C8  UNL     1     -12.296   9.805  16.168  1.00  0.00     0.187 C 
ENDBRANCH  38  41
ENDBRANCH   1  34
TORSDOF 6
ENDMDL
MODEL 2
REMARK minimizedAffinity -10.3766022
REMARK CNNscore 0.445510268
REMARK CNNaffinity 7.84104013
REMARK  6 active torsions:
REMARK  status: ('A' for Active; 'I' for Inactive)
REMARK    1  A    between atoms: C4_4  and  C5_5 
REMARK       I    between atoms: C5_5  and  N1_7 
REMARK    2  A    between atoms: C10_14  and  C11_15 
REMARK    3  A    between atoms: C16_26  and  N6_27 
REMARK    4  A    between atoms: N6_27  and  C17_28 
REMARK    5  A    between atoms: N8_36  and  C23_37 
REMARK    6  A    between atoms: C23_37  and  C24_38 
ROOT
HETATM    1  C11 UNL     1      -3.975   5.557  12.945  1.00  0.00     0.048 C 
HETATM    2  C12 UNL     1      -4.052   4.381  12.299  1.00  0.00     0.052 A 
HETATM    3  C13 UNL     1      -3.056   3.766  11.348  1.00  0.00     0.258 A 
HETATM    4  O3  UNL     1      -1.905   4.095  11.145  1.00  0.00    -0.267 OA
HETATM    5  N3  UNL     1      -3.715   2.699  10.781  1.00  0.00    -0.308 N 
HETATM    6  C14 UNL     1      -4.976   2.522  11.332  1.00  0.00     0.124 A 
HETATM    7  N4  UNL     1      -5.779   1.520  10.989  1.00  0.00    -0.338 N 
ATOM      8  H4  UNL     1      -5.547   0.831  10.273  1.00  0.00     0.168 HD
HETATM    9  C15 UNL     1      -6.922   1.512  11.681  1.00  0.00     0.183 A 
HETATM   10  N5  UNL     1      -7.269   2.372  12.660  1.00  0.00    -0.338 N 
ATOM     11  H5  UNL     1      -8.164   2.281  13.141  1.00  0.00     0.168 HD
HETATM   12  C16 UNL     1      -6.403   3.357  12.989  1.00  0.00     0.121 A 
HETATM   13  C31 UNL     1      -5.224   3.488  12.292  1.00  0.00     0.068 A 
HETATM   14  H15 UNL     1      -3.322   2.078  10.093  1.00  0.00     0.170 HD
ENDROOT
BRANCH  12  15
HETATM   15  N6  UNL     1      -6.692   4.234  14.062  1.00  0.00    -0.342 N 
HETATM   16  H17 UNL     1      -6.521   3.752  14.939  1.00  0.00     0.167 HD
BRANCH  15  17
HETATM   17  C17 UNL     1      -7.773   5.138  14.207  1.00  0.00     0.034 A 
HETATM   18  C18 UNL     1      -7.963   5.756  15.453  1.00  0.00     0.032 A 
HETATM   19  C19 UNL     1      -8.988   6.684  15.686  1.00  0.00     0.034 A 
HETATM   20  C20 UNL     1      -9.817   7.006  14.607  1.00  0.00     0.062 A 
HETATM   21  C21 UNL     1      -9.627   6.459  13.342  1.00  0.00     0.011 A 
HETATM   22  N8  UNL     1     -10.905   7.843  14.482  1.00  0.00    -0.288 N 
HETATM   23  C22 UNL     1     -10.628   7.051  12.543  1.00  0.00     0.121 A 
HETATM   24  C30 UNL     1      -8.586   5.532  13.134  1.00  0.00     0.044 A 
HETATM   25  N7  UNL     1     -11.419   7.880  13.229  1.00  0.00    -0.308 N 
ATOM     26  H7  UNL     1     -12.219   8.414  12.891  1.00  0.00     0.186 HD
BRANCH  22  27
HETATM   27  C23 UNL     1     -11.581   8.569  15.555  1.00  0.00     0.187 C 
BRANCH  27  28
HETATM   28  C24 UNL     1     -10.927   9.893  15.869  1.00  0.00    -0.038 A 
HETATM   29  C25 UNL     1     -10.202  10.590  14.888  1.00  0.00     0.009 A 
HETATM   30  C26 UNL     1      -9.612  11.818  15.183  1.00  0.00     0.001 A 
HETATM   31  C27 UNL     1      -9.749  12.374  16.455  1.00  0.00     0.000 A 
HETATM   32  C28 UNL     1     -10.480  11.703  17.431  1.00  0.00     0.001 A 
HETATM   33  C29 UNL     1     -11.066  10.470  17.141  1.00  0.00     0.009 A 
ENDBRANCH  27  28
ENDBRANCH  22  27
ENDBRANCH  15  17
ENDBRANCH  12  15
BRANCH   1  34
HETATM   34  C10 UNL     1      -2.909   6.492  12.910  1.00  0.00     0.039 A 
HETATM   35  C2  UNL     1      -2.918   7.879  12.912  1.00  0.00    -0.033 A 
HETATM   36  C1  UNL     1      -4.106   8.773  12.854  1.00  0.00     0.050 C 
HETATM   37  C3  UNL     1      -1.564   8.294  13.015  1.00  0.00     0.044 A 
HETATM   38  C4  UNL     1      -0.750   7.173  13.073  1.00  0.00     0.102 A 
HETATM   39  N2  UNL     1      -1.596   6.089  12.993  1.00  0.00    -0.351 N 
HETATM   40  H13 UNL     1      -1.298   5.124  13.031  1.00  0.00     0.166 HD
BRANCH  38  41
HETATM   41  C5  UNL     1       0.686   7.166  13.305  1.00  0.00     0.270 C 
HETATM   42  O1  UNL     1       1.409   6.383  12.687  1.00  0.00    -0.266 OA
HETATM   43  N1  UNL     1       1.240   8.072  14.217  1.00  0.00    -0.343 N 
HETATM   44  C6  UNL     1       2.700   8.088  14.367  1.00  0.00     0.152 C 
HETATM   45  C9  UNL     1       0.511   8.551  15.400  1.00  0.00     0.152 C 
HETATM   46  C7  UNL     1       3.105   7.609  15.766  1.00  0.00     0.187 C 
HETATM   47  O2  UNL     1       2.510   8.357  16.839  1.00  0.00    -0.388 OA
HETATM   48  C8  UNL     1       1.443   9.217  16.423  1.00  0.00     0.187 C 
ENDBRANCH  38  41
ENDBRANCH   1  34
TORSDOF 6
ENDMDL
MODEL 3
REMARK minimizedAffinity -11.9684649
REMARK CNNscore 0.415873051
REMARK CNNaffinity 7.57714033
REMARK  6 active torsions:
REMARK  status: ('A' for Active; 'I' for Inactive)
REMARK    1  A    between atoms: C4_4  and  C5_5 
REMARK       I    between atoms: C5_5  and  N1_7 
REMARK    2  A    between atoms: C10_14  and  C11_15 
REMARK    3  A    between atoms: C16_26  and  N6_27 
REMARK    4  A    between atoms: N6_27  and  C17_28 
REMARK    5  A    between atoms: N8_36  and  C23_37 
REMARK    6  A    between atoms: C23_37  and  C24_38 
ROOT
HETATM    1  C11 UNL     1      -5.526   5.982  13.804  1.00  0.00     0.048 C 
HETATM    2  C12 UNL     1      -5.744   4.888  13.055  1.00  0.00     0.052 A 
HETATM    3  C13 UNL     1      -7.061   4.272  12.655  1.00  0.00     0.258 A 
HETATM    4  O3  UNL     1      -8.174   4.750  12.740  1.00  0.00    -0.267 OA
HETATM    5  N3  UNL     1      -6.734   3.048  12.115  1.00  0.00    -0.308 N 
HETATM    6  C14 UNL     1      -5.360   2.867  12.049  1.00  0.00     0.124 A 
HETATM    7  N4  UNL     1      -4.800   1.788  11.511  1.00  0.00    -0.338 N 
ATOM      8  H4  UNL     1      -5.333   1.001  11.141  1.00  0.00     0.168 HD
HETATM    9  C15 UNL     1      -3.465   1.845  11.506  1.00  0.00     0.183 A 
HETATM   10  N5  UNL     1      -2.709   2.870  11.947  1.00  0.00    -0.338 N 
ATOM     11  H5  UNL     1      -1.691   2.827  11.895  1.00  0.00     0.168 HD
HETATM   12  C16 UNL     1      -3.329   3.956  12.461  1.00  0.00     0.121 A 
HETATM   13  C31 UNL     1      -4.702   3.969  12.567  1.00  0.00     0.068 A 
HETATM   14  H15 UNL     1      -7.397   2.382  11.753  1.00  0.00     0.170 HD
ENDROOT
BRANCH  12  15
HETATM   15  N6  UNL     1      -2.578   5.086  12.864  1.00  0.00    -0.342 N 
HETATM   16  H17 UNL     1      -3.158   5.914  12.787  1.00  0.00     0.167 HD
BRANCH  15  17
HETATM   17  C17 UNL     1      -1.228   5.407  12.575  1.00  0.00     0.034 A 
HETATM   18  C18 UNL     1      -0.741   5.138  11.287  1.00  0.00     0.032 A 
HETATM   19  C19 UNL     1       0.572   5.444  10.899  1.00  0.00     0.034 A 
HETATM   20  C20 UNL     1       1.390   6.067  11.846  1.00  0.00     0.062 A 
HETATM   21  C21 UNL     1       0.927   6.402  13.114  1.00  0.00     0.011 A 
HETATM   22  N8  UNL     1       2.703   6.485  11.815  1.00  0.00    -0.288 N 
HETATM   23  C22 UNL     1       2.025   7.030  13.740  1.00  0.00     0.121 A 
HETATM   24  C30 UNL     1      -0.397   6.087  13.477  1.00  0.00     0.044 A 
HETATM   25  N7  UNL     1       3.113   7.072  12.966  1.00  0.00    -0.308 N 
ATOM     26  H7  UNL     1       4.032   7.453  13.188  1.00  0.00     0.186 HD
BRANCH  22  27
HETATM   27  C23 UNL     1       3.671   6.261  10.743  1.00  0.00     0.187 C 
BRANCH  27  28
HETATM   28  C24 UNL     1       3.167   6.721   9.395  1.00  0.00    -0.038 A 
HETATM   29  C25 UNL     1       3.055   8.089   9.096  1.00  0.00     0.009 A 
HETATM   30  C26 UNL     1       2.602   8.505   7.845  1.00  0.00     0.001 A 
HETATM   31  C27 UNL     1       2.269   7.563   6.872  1.00  0.00     0.000 A 
HETATM   32  C28 UNL     1       2.394   6.204   7.148  1.00  0.00     0.001 A 
HETATM   33  C29 UNL     1       2.841   5.785   8.402  1.00  0.00     0.009 A 
ENDBRANCH  27  28
ENDBRANCH  22  27
ENDBRANCH  15  17
ENDBRANCH  12  15
BRANCH   1  34
HETATM   34  C10 UNL     1      -6.498   6.845  14.373  1.00  0.00     0.039 A 
HETATM   35  C2  UNL     1      -6.380   8.122  14.900  1.00  0.00    -0.033 A 
HETATM   36  C1  UNL     1      -5.129   8.905  15.097  1.00  0.00     0.050 C 
HETATM   37  C3  UNL     1      -7.697   8.565  15.192  1.00  0.00     0.044 A 
HETATM   38  C4  UNL     1      -8.596   7.568  14.847  1.00  0.00     0.102 A 
HETATM   39  N2  UNL     1      -7.836   6.527  14.362  1.00  0.00    -0.351 N 
HETATM   40  H13 UNL     1      -8.212   5.658  14.009  1.00  0.00     0.166 HD
BRANCH  38  41
HETATM   41  C5  UNL     1     -10.047   7.674  14.874  1.00  0.00     0.270 C 
HETATM   42  O1  UNL     1     -10.744   6.690  14.620  1.00  0.00    -0.266 OA
HETATM   43  N1  UNL     1     -10.642   8.894  15.216  1.00  0.00    -0.343 N 
HETATM   44  C6  UNL     1     -12.106   8.941  15.309  1.00  0.00     0.152 C 
HETATM   45  C9  UNL     1     -10.019  10.191  14.915  1.00  0.00     0.152 C 
HETATM   46  C7  UNL     1     -12.689   9.838  14.210  1.00  0.00     0.187 C 
HETATM   47  O2  UNL     1     -12.170  11.178  14.209  1.00  0.00    -0.388 OA
HETATM   48  C8  UNL     1     -11.015  11.353  15.037  1.00  0.00     0.187 C 
ENDBRANCH  38  41
ENDBRANCH   1  34
TORSDOF 6
ENDMDL
MODEL 4
REMARK minimizedAffinity -10.1151934
REMARK CNNscore 0.405167758
REMARK CNNaffinity 7.10505104
REMARK  6 active torsions:
REMARK  status: ('A' for Active; 'I' for Inactive)
REMARK    1  A    between atoms: C4_4  and  C5_5 
REMARK       I    between atoms: C5_5  and  N1_7 
REMARK    2  A    between atoms: C10_14  and  C11_15 
REMARK    3  A    between atoms: C16_26  and  N6_27 
REMARK    4  A    between atoms: N6_27  and  C17_28 
REMARK    5  A    between atoms: N8_36  and  C23_37 
REMARK    6  A    between atoms: C23_37  and  C24_38 
ROOT
HETATM    1  C11 UNL     1      -9.741   7.509  14.792  1.00  0.00     0.048 C 
HETATM    2  C12 UNL     1     -10.828   7.876  14.092  1.00  0.00     0.052 A 
HETATM    3  C13 UNL     1     -11.133   7.628  12.636  1.00  0.00     0.258 A 
HETATM    4  O3  UNL     1     -10.575   6.874  11.865  1.00  0.00    -0.267 OA
HETATM    5  N3  UNL     1     -12.231   8.413  12.362  1.00  0.00    -0.308 N 
HETATM    6  C14 UNL     1     -12.701   9.052  13.500  1.00  0.00     0.124 A 
HETATM    7  N4  UNL     1     -13.788   9.817  13.500  1.00  0.00    -0.338 N 
ATOM      8  H4  UNL     1     -14.335  10.021  12.664  1.00  0.00     0.168 HD
HETATM    9  C15 UNL     1     -14.089  10.291  14.713  1.00  0.00     0.183 A 
HETATM   10  N5  UNL     1     -13.427  10.028  15.859  1.00  0.00    -0.338 N 
ATOM     11  H5  UNL     1     -13.737  10.430  16.743  1.00  0.00     0.168 HD
HETATM   12  C16 UNL     1     -12.343   9.222  15.808  1.00  0.00     0.121 A 
HETATM   13  C31 UNL     1     -11.916   8.732  14.594  1.00  0.00     0.068 A 
HETATM   14  H15 UNL     1     -12.685   8.478  11.465  1.00  0.00     0.170 HD
ENDROOT
BRANCH  12  15
HETATM   15  N6  UNL     1     -11.665   8.858  16.996  1.00  0.00    -0.342 N 
HETATM   16  H17 UNL     1     -12.008   7.956  17.310  1.00  0.00     0.167 HD
BRANCH  15  17
HETATM   17  C17 UNL     1     -11.326   9.665  18.110  1.00  0.00     0.034 A 
HETATM   18  C18 UNL     1     -10.949  10.997  17.878  1.00  0.00     0.032 A 
HETATM   19  C19 UNL     1     -10.620  11.879  18.917  1.00  0.00     0.034 A 
HETATM   20  C20 UNL     1     -10.710  11.390  20.224  1.00  0.00     0.062 A 
HETATM   21  C21 UNL     1     -11.135  10.094  20.499  1.00  0.00     0.011 A 
HETATM   22  N8  UNL     1     -10.455  11.957  21.454  1.00  0.00    -0.288 N 
HETATM   23  C22 UNL     1     -11.120  10.004  21.907  1.00  0.00     0.121 A 
HETATM   24  C30 UNL     1     -11.463   9.229  19.436  1.00  0.00     0.044 A 
HETATM   25  N7  UNL     1     -10.693  11.125  22.496  1.00  0.00    -0.308 N 
ATOM     26  H7  UNL     1     -10.575  11.310  23.491  1.00  0.00     0.186 HD
BRANCH  22  27
HETATM   27  C23 UNL     1      -9.873  13.273  21.709  1.00  0.00     0.187 C 
BRANCH  27  28
HETATM   28  C24 UNL     1      -8.369  13.287  21.563  1.00  0.00    -0.038 A 
HETATM   29  C25 UNL     1      -7.768  13.548  20.321  1.00  0.00     0.009 A 
HETATM   30  C26 UNL     1      -6.379  13.571  20.199  1.00  0.00     0.001 A 
HETATM   31  C27 UNL     1      -5.574  13.349  21.316  1.00  0.00     0.000 A 
HETATM   32  C28 UNL     1      -6.156  13.108  22.556  1.00  0.00     0.001 A 
HETATM   33  C29 UNL     1      -7.546  13.077  22.681  1.00  0.00     0.009 A 
ENDBRANCH  27  28
ENDBRANCH  22  27
ENDBRANCH  15  17
ENDBRANCH  12  15
BRANCH   1  34
HETATM   34  C10 UNL     1      -8.626   6.765  14.327  1.00  0.00     0.039 A 
HETATM   35  C2  UNL     1      -7.267   6.938  14.539  1.00  0.00    -0.033 A 
HETATM   36  C1  UNL     1      -6.602   8.057  15.262  1.00  0.00     0.050 C 
HETATM   37  C3  UNL     1      -6.619   5.817  13.957  1.00  0.00     0.044 A 
HETATM   38  C4  UNL     1      -7.573   4.980  13.402  1.00  0.00     0.102 A 
HETATM   39  N2  UNL     1      -8.787   5.589  13.630  1.00  0.00    -0.351 N 
HETATM   40  H13 UNL     1      -9.682   5.206  13.358  1.00  0.00     0.166 HD
BRANCH  38  41
HETATM   41  C5  UNL     1      -7.332   3.668  12.821  1.00  0.00     0.270 C 
HETATM   42  O1  UNL     1      -8.081   2.727  13.085  1.00  0.00    -0.266 OA
HETATM   43  N1  UNL     1      -6.258   3.493  11.940  1.00  0.00    -0.343 N 
HETATM   44  C6  UNL     1      -6.093   2.176  11.313  1.00  0.00     0.152 C 
HETATM   45  C9  UNL     1      -5.013   4.266  12.045  1.00  0.00     0.152 C 
HETATM   46  C7  UNL     1      -4.806   1.501  11.805  1.00  0.00     0.187 C 
HETATM   47  O2  UNL     1      -3.617   2.278  11.595  1.00  0.00    -0.388 OA
HETATM   48  C8  UNL     1      -3.872   3.639  11.231  1.00  0.00     0.187 C 
ENDBRANCH  38  41
ENDBRANCH   1  34
TORSDOF 6
ENDMDL
MODEL 5
REMARK minimizedAffinity -10.978548
REMARK CNNscore 0.374799639
REMARK CNNaffinity 7.79050827
REMARK  6 active torsions:
REMARK  status: ('A' for Active; 'I' for Inactive)
REMARK    1  A    between atoms: C4_4  and  C5_5 
REMARK       I    between atoms: C5_5  and  N1_7 
REMARK    2  A    between atoms: C10_14  and  C11_15 
REMARK    3  A    between atoms: C16_26  and  N6_27 
REMARK    4  A    between atoms: N6_27  and  C17_28 
REMARK    5  A    between atoms: N8_36  and  C23_37 
REMARK    6  A    between atoms: C23_37  and  C24_38 
ROOT
HETATM    1  C11 UNL     1      -3.743   5.542  12.861  1.00  0.00     0.048 C 
HETATM    2  C12 UNL     1      -3.816   4.384  12.182  1.00  0.00     0.052 A 
HETATM    3  C13 UNL     1      -2.829   3.813  11.196  1.00  0.00     0.258 A 
HETATM    4  O3  UNL     1      -1.687   4.164  10.981  1.00  0.00    -0.267 OA
HETATM    5  N3  UNL     1      -3.484   2.753  10.609  1.00  0.00    -0.308 N 
HETATM    6  C14 UNL     1      -4.731   2.542  11.178  1.00  0.00     0.124 A 
HETATM    7  N4  UNL     1      -5.527   1.539  10.819  1.00  0.00    -0.338 N 
ATOM      8  H4  UNL     1      -5.299   0.874  10.080  1.00  0.00     0.168 HD
HETATM    9  C15 UNL     1      -6.657   1.493  11.532  1.00  0.00     0.183 A 
HETATM   10  N5  UNL     1      -6.996   2.319  12.542  1.00  0.00    -0.338 N 
ATOM     11  H5  UNL     1      -7.881   2.201  13.037  1.00  0.00     0.168 HD
HETATM   12  C16 UNL     1      -6.139   3.307  12.885  1.00  0.00     0.121 A 
HETATM   13  C31 UNL     1      -4.975   3.476  12.170  1.00  0.00     0.068 A 
HETATM   14  H15 UNL     1      -3.095   2.158   9.895  1.00  0.00     0.170 HD
ENDROOT
BRANCH  12  15
HETATM   15  N6  UNL     1      -6.420   4.147  13.989  1.00  0.00    -0.342 N 
HETATM   16  H17 UNL     1      -6.323   3.612  14.845  1.00  0.00     0.167 HD
BRANCH  15  17
HETATM   17  C17 UNL     1      -7.445   5.115  14.133  1.00  0.00     0.034 A 
HETATM   18  C18 UNL     1      -8.321   5.324  13.056  1.00  0.00     0.032 A 
HETATM   19  C19 UNL     1      -9.380   6.241  13.113  1.00  0.00     0.034 A 
HETATM   20  C20 UNL     1      -9.560   6.937  14.312  1.00  0.00     0.062 A 
HETATM   21  C21 UNL     1      -8.749   6.717  15.421  1.00  0.00     0.011 A 
HETATM   22  N8  UNL     1     -10.464   7.899  14.707  1.00  0.00    -0.288 N 
HETATM   23  C22 UNL     1      -9.267   7.572  16.417  1.00  0.00     0.121 A 
HETATM   24  C30 UNL     1      -7.694   5.787  15.338  1.00  0.00     0.044 A 
HETATM   25  N7  UNL     1     -10.299   8.305  15.989  1.00  0.00    -0.308 N 
ATOM     26  H7  UNL     1     -10.833   9.004  16.504  1.00  0.00     0.186 HD
BRANCH  22  27
HETATM   27  C23 UNL     1     -11.461   8.562  13.870  1.00  0.00     0.187 C 
BRANCH  27  28
HETATM   28  C24 UNL     1     -12.746   7.776  13.756  1.00  0.00    -0.038 A 
HETATM   29  C25 UNL     1     -13.775   8.195  12.897  1.00  0.00     0.009 A 
HETATM   30  C26 UNL     1     -14.952   7.456  12.787  1.00  0.00     0.001 A 
HETATM   31  C27 UNL     1     -15.112   6.282  13.522  1.00  0.00     0.000 A 
HETATM   32  C28 UNL     1     -14.093   5.844  14.364  1.00  0.00     0.001 A 
HETATM   33  C29 UNL     1     -12.916   6.585  14.480  1.00  0.00     0.009 A 
ENDBRANCH  27  28
ENDBRANCH  22  27
ENDBRANCH  15  17
ENDBRANCH  12  15
BRANCH   1  34
HETATM   34  C10 UNL     1      -2.691   6.493  12.834  1.00  0.00     0.039 A 
HETATM   35  C2  UNL     1      -2.719   7.879  12.888  1.00  0.00    -0.033 A 
HETATM   36  C1  UNL     1      -3.921   8.757  12.890  1.00  0.00     0.050 C 
HETATM   37  C3  UNL     1      -1.369   8.309  12.973  1.00  0.00     0.044 A 
HETATM   38  C4  UNL     1      -0.539   7.200  12.970  1.00  0.00     0.102 A 
HETATM   39  N2  UNL     1      -1.371   6.107  12.871  1.00  0.00    -0.351 N 
HETATM   40  H13 UNL     1      -1.059   5.146  12.866  1.00  0.00     0.166 HD
BRANCH  38  41
HETATM   41  C5  UNL     1       0.902   7.205  13.167  1.00  0.00     0.270 C 
HETATM   42  O1  UNL     1       1.612   6.394  12.570  1.00  0.00    -0.266 OA
HETATM   43  N1  UNL     1       1.477   8.155  14.020  1.00  0.00    -0.343 N 
HETATM   44  C6  UNL     1       2.940   8.180  14.132  1.00  0.00     0.152 C 
HETATM   45  C9  UNL     1       0.777   8.690  15.196  1.00  0.00     0.152 C 
HETATM   46  C7  UNL     1       3.380   7.769  15.544  1.00  0.00     0.187 C 
HETATM   47  O2  UNL     1       2.810   8.569  16.593  1.00  0.00    -0.388 OA
HETATM   48  C8  UNL     1       1.732   9.406  16.162  1.00  0.00     0.187 C 
ENDBRANCH  38  41
ENDBRANCH   1  34
TORSDOF 6
ENDMDL
MODEL 6
REMARK minimizedAffinity -10.5861502
REMARK CNNscore 0.369499624
REMARK CNNaffinity 7.59998178
REMARK  6 active torsions:
REMARK  status: ('A' for Active; 'I' for Inactive)
REMARK    1  A    between atoms: C4_4  and  C5_5 
REMARK       I    between atoms: C5_5  and  N1_7 
REMARK    2  A    between atoms: C10_14  and  C11_15 
REMARK    3  A    between atoms: C16_26  and  N6_27 
REMARK    4  A    between atoms: N6_27  and  C17_28 
REMARK    5  A    between atoms: N8_36  and  C23_37 
REMARK    6  A    between atoms: C23_37  and  C24_38 
ROOT
HETATM    1  C11 UNL     1      -6.644   5.391  13.666  1.00  0.00     0.048 C 
HETATM    2  C12 UNL     1      -6.588   4.238  12.978  1.00  0.00     0.052 A 
HETATM    3  C13 UNL     1      -7.717   3.303  12.624  1.00  0.00     0.258 A 
HETATM    4  O3  UNL     1      -8.913   3.501  12.694  1.00  0.00    -0.267 OA
HETATM    5  N3  UNL     1      -7.102   2.167  12.145  1.00  0.00    -0.308 N 
HETATM    6  C14 UNL     1      -5.725   2.319  12.076  1.00  0.00     0.124 A 
HETATM    7  N4  UNL     1      -4.919   1.380  11.590  1.00  0.00    -0.338 N 
ATOM      8  H4  UNL     1      -5.245   0.469  11.266  1.00  0.00     0.168 HD
HETATM    9  C15 UNL     1      -3.637   1.757  11.569  1.00  0.00     0.183 A 
HETATM   10  N5  UNL     1      -3.152   2.956  11.949  1.00  0.00    -0.338 N 
ATOM     11  H5  UNL     1      -2.154   3.158  11.889  1.00  0.00     0.168 HD
HETATM   12  C16 UNL     1      -4.018   3.886  12.411  1.00  0.00     0.121 A 
HETATM   13  C31 UNL     1      -5.354   3.573  12.529  1.00  0.00     0.068 A 
HETATM   14  H15 UNL     1      -7.583   1.342  11.825  1.00  0.00     0.170 HD
ENDROOT
BRANCH  12  15
HETATM   15  N6  UNL     1      -3.563   5.184  12.748  1.00  0.00    -0.342 N 
HETATM   16  H17 UNL     1      -4.336   5.836  12.670  1.00  0.00     0.167 HD
BRANCH  15  17
HETATM   17  C17 UNL     1      -2.350   5.822  12.391  1.00  0.00     0.034 A 
HETATM   18  C18 UNL     1      -1.527   5.204  11.436  1.00  0.00     0.032 A 
HETATM   19  C19 UNL     1      -0.321   5.771  11.001  1.00  0.00     0.034 A 
HETATM   20  C20 UNL     1       0.032   7.013  11.536  1.00  0.00     0.062 A 
HETATM   21  C21 UNL     1      -0.783   7.685  12.441  1.00  0.00     0.011 A 
HETATM   22  N8  UNL     1       1.125   7.834  11.352  1.00  0.00    -0.288 N 
HETATM   23  C22 UNL     1      -0.101   8.892  12.708  1.00  0.00     0.121 A 
HETATM   24  C30 UNL     1      -1.992   7.095  12.859  1.00  0.00     0.044 A 
HETATM   25  N7  UNL     1       1.065   8.984  12.064  1.00  0.00    -0.308 N 
ATOM     26  H7  UNL     1       1.748   9.741  12.101  1.00  0.00     0.186 HD
BRANCH  22  27
HETATM   27  C23 UNL     1       2.329   7.532  10.581  1.00  0.00     0.187 C 
BRANCH  27  28
HETATM   28  C24 UNL     1       3.567   7.440  11.441  1.00  0.00    -0.038 A 
HETATM   29  C25 UNL     1       4.661   6.651  11.050  1.00  0.00     0.009 A 
HETATM   30  C26 UNL     1       5.805   6.583  11.844  1.00  0.00     0.001 A 
HETATM   31  C27 UNL     1       5.879   7.313  13.030  1.00  0.00     0.000 A 
HETATM   32  C28 UNL     1       4.810   8.114  13.421  1.00  0.00     0.001 A 
HETATM   33  C29 UNL     1       3.661   8.179  12.631  1.00  0.00     0.009 A 
ENDBRANCH  27  28
ENDBRANCH  22  27
ENDBRANCH  15  17
ENDBRANCH  12  15
BRANCH   1  34
HETATM   34  C10 UNL     1      -7.797   6.023  14.199  1.00  0.00     0.039 A 
HETATM   35  C2  UNL     1      -8.074   6.476  15.480  1.00  0.00    -0.033 A 
HETATM   36  C1  UNL     1      -7.229   6.318  16.695  1.00  0.00     0.050 C 
HETATM   37  C3  UNL     1      -9.319   7.157  15.411  1.00  0.00     0.044 A 
HETATM   38  C4  UNL     1      -9.785   7.114  14.107  1.00  0.00     0.102 A 
HETATM   39  N2  UNL     1      -8.844   6.406  13.392  1.00  0.00    -0.351 N 
HETATM   40  H13 UNL     1      -8.895   6.223  12.399  1.00  0.00     0.166 HD
BRANCH  38  41
HETATM   41  C5  UNL     1     -10.962   7.799  13.593  1.00  0.00     0.270 C 
HETATM   42  O1  UNL     1     -10.883   8.971  13.223  1.00  0.00    -0.266 OA
HETATM   43  N1  UNL     1     -12.174   7.106  13.498  1.00  0.00    -0.343 N 
HETATM   44  C6  UNL     1     -13.319   7.805  12.902  1.00  0.00     0.152 C 
HETATM   45  C9  UNL     1     -12.548   6.031  14.429  1.00  0.00     0.152 C 
HETATM   46  C7  UNL     1     -14.414   8.040  13.950  1.00  0.00     0.187 C 
HETATM   47  O2  UNL     1     -14.875   6.843  14.598  1.00  0.00    -0.388 OA
HETATM   48  C8  UNL     1     -14.045   5.700  14.360  1.00  0.00     0.187 C 
ENDBRANCH  38  41
ENDBRANCH   1  34
TORSDOF 6
ENDMDL
MODEL 7
REMARK minimizedAffinity -10.0918264
REMARK CNNscore 0.360542923
REMARK CNNaffinity 7.56588984
REMARK  6 active torsions:
REMARK  status: ('A' for Active; 'I' for Inactive)
REMARK    1  A    between atoms: C4_4  and  C5_5 
REMARK       I    between atoms: C5_5  and  N1_7 
REMARK    2  A    between atoms: C10_14  and  C11_15 
REMARK    3  A    between atoms: C16_26  and  N6_27 
REMARK    4  A    between atoms: N6_27  and  C17_28 
REMARK    5  A    between atoms: N8_36  and  C23_37 
REMARK    6  A    between atoms: C23_37  and  C24_38 
ROOT
HETATM    1  C11 UNL     1      -6.491   5.289  13.514  1.00  0.00     0.048 C 
HETATM    2  C12 UNL     1      -6.382   4.122  12.856  1.00  0.00     0.052 A 
HETATM    3  C13 UNL     1      -7.455   3.099  12.579  1.00  0.00     0.258 A 
HETATM    4  O3  UNL     1      -8.657   3.216  12.697  1.00  0.00    -0.267 OA
HETATM    5  N3  UNL     1      -6.781   1.995  12.106  1.00  0.00    -0.308 N 
HETATM    6  C14 UNL     1      -5.423   2.241  11.971  1.00  0.00     0.124 A 
HETATM    7  N4  UNL     1      -4.573   1.347  11.476  1.00  0.00    -0.338 N 
ATOM      8  H4  UNL     1      -4.846   0.405  11.193  1.00  0.00     0.168 HD
HETATM    9  C15 UNL     1      -3.323   1.812  11.387  1.00  0.00     0.183 A 
HETATM   10  N5  UNL     1      -2.910   3.053  11.711  1.00  0.00    -0.338 N 
ATOM     11  H5  UNL     1      -1.932   3.322  11.601  1.00  0.00     0.168 HD
HETATM   12  C16 UNL     1      -3.819   3.934  12.185  1.00  0.00     0.121 A 
HETATM   13  C31 UNL     1      -5.123   3.532  12.371  1.00  0.00     0.068 A 
HETATM   14  H15 UNL     1      -7.215   1.129  11.830  1.00  0.00     0.170 HD
ENDROOT
BRANCH  12  15
HETATM   15  N6  UNL     1      -3.444   5.270  12.464  1.00  0.00    -0.342 N 
HETATM   16  H17 UNL     1      -3.725   5.861  11.689  1.00  0.00     0.167 HD
BRANCH  15  17
HETATM   17  C17 UNL     1      -2.244   5.757  13.039  1.00  0.00     0.034 A 
HETATM   18  C18 UNL     1      -2.230   6.039  14.414  1.00  0.00     0.032 A 
HETATM   19  C19 UNL     1      -1.084   6.500  15.077  1.00  0.00     0.034 A 
HETATM   20  C20 UNL     1       0.080   6.645  14.316  1.00  0.00     0.062 A 
HETATM   21  C21 UNL     1       0.123   6.321  12.964  1.00  0.00     0.011 A 
HETATM   22  N8  UNL     1       1.352   7.077  14.627  1.00  0.00    -0.288 N 
HETATM   23  C22 UNL     1       1.458   6.571  12.579  1.00  0.00     0.121 A 
HETATM   24  C30 UNL     1      -1.042   5.856  12.323  1.00  0.00     0.044 A 
HETATM   25  N7  UNL     1       2.208   7.045  13.577  1.00  0.00    -0.308 N 
ATOM     26  H7  UNL     1       3.190   7.318  13.555  1.00  0.00     0.186 HD
BRANCH  22  27
HETATM   27  C23 UNL     1       1.800   7.642  15.898  1.00  0.00     0.187 C 
BRANCH  27  28
HETATM   28  C24 UNL     1       1.627   9.141  15.966  1.00  0.00    -0.038 A 
HETATM   29  C25 UNL     1       2.428   9.922  16.815  1.00  0.00     0.009 A 
HETATM   30  C26 UNL     1       2.270  11.306  16.862  1.00  0.00     0.001 A 
HETATM   31  C27 UNL     1       1.321  11.930  16.053  1.00  0.00     0.000 A 
HETATM   32  C28 UNL     1       0.533  11.171  15.193  1.00  0.00     0.001 A 
HETATM   33  C29 UNL     1       0.685   9.784  15.148  1.00  0.00     0.009 A 
ENDBRANCH  27  28
ENDBRANCH  22  27
ENDBRANCH  15  17
ENDBRANCH  12  15
BRANCH   1  34
HETATM   34  C10 UNL     1      -7.662   5.855  14.079  1.00  0.00     0.039 A 
HETATM   35  C2  UNL     1      -7.923   6.307  15.364  1.00  0.00    -0.033 A 
HETATM   36  C1  UNL     1      -7.028   6.219  16.550  1.00  0.00     0.050 C 
HETATM   37  C3  UNL     1      -9.209   6.908  15.330  1.00  0.00     0.044 A 
HETATM   38  C4  UNL     1      -9.717   6.818  14.044  1.00  0.00     0.102 A 
HETATM   39  N2  UNL     1      -8.758   6.160  13.305  1.00  0.00    -0.351 N 
HETATM   40  H13 UNL     1      -8.831   5.962  12.317  1.00  0.00     0.166 HD
BRANCH  38  41
HETATM   41  C5  UNL     1     -10.951   7.421  13.564  1.00  0.00     0.270 C 
HETATM   42  O1  UNL     1     -11.508   6.975  12.560  1.00  0.00    -0.266 OA
HETATM   43  N1  UNL     1     -11.513   8.492  14.269  1.00  0.00    -0.343 N 
HETATM   44  C6  UNL     1     -12.799   9.022  13.799  1.00  0.00     0.152 C 
HETATM   45  C9  UNL     1     -10.700   9.464  15.013  1.00  0.00     0.152 C 
HETATM   46  C7  UNL     1     -12.632  10.452  13.270  1.00  0.00     0.187 C 
HETATM   47  O2  UNL     1     -12.060  11.368  14.218  1.00  0.00    -0.388 OA
HETATM   48  C8  UNL     1     -11.493  10.730  15.368  1.00  0.00     0.187 C 
ENDBRANCH  38  41
ENDBRANCH   1  34
TORSDOF 6
ENDMDL
MODEL 8
REMARK minimizedAffinity -12.1378975
REMARK CNNscore 0.267905891
REMARK CNNaffinity 7.59074545
REMARK  6 active torsions:
REMARK  status: ('A' for Active; 'I' for Inactive)
REMARK    1  A    between atoms: C4_4  and  C5_5 
REMARK       I    between atoms: C5_5  and  N1_7 
REMARK    2  A    between atoms: C10_14  and  C11_15 
REMARK    3  A    between atoms: C16_26  and  N6_27 
REMARK    4  A    between atoms: N6_27  and  C17_28 
REMARK    5  A    between atoms: N8_36  and  C23_37 
REMARK    6  A    between atoms: C23_37  and  C24_38 
ROOT
HETATM    1  C11 UNL     1      -2.890   5.224  12.687  1.00  0.00     0.048 C 
HETATM    2  C12 UNL     1      -3.100   3.960  12.281  1.00  0.00     0.052 A 
HETATM    3  C13 UNL     1      -2.101   2.976  11.728  1.00  0.00     0.258 A 
HETATM    4  O3  UNL     1      -0.888   3.043  11.740  1.00  0.00    -0.267 OA
HETATM    5  N3  UNL     1      -2.858   1.934  11.240  1.00  0.00    -0.308 N 
HETATM    6  C14 UNL     1      -4.208   2.113  11.505  1.00  0.00     0.124 A 
HETATM    7  N4  UNL     1      -5.131   1.213  11.184  1.00  0.00    -0.338 N 
ATOM      8  H4  UNL     1      -4.925   0.344  10.690  1.00  0.00     0.168 HD
HETATM    9  C15 UNL     1      -6.359   1.566  11.577  1.00  0.00     0.183 A 
HETATM   10  N5  UNL     1      -6.687   2.680  12.262  1.00  0.00    -0.338 N 
ATOM     11  H5  UNL     1      -7.655   2.861  12.529  1.00  0.00     0.168 HD
HETATM   12  C16 UNL     1      -5.706   3.551  12.588  1.00  0.00     0.121 A 
HETATM   13  C31 UNL     1      -4.415   3.307  12.174  1.00  0.00     0.068 A 
HETATM   14  H15 UNL     1      -2.487   1.109  10.797  1.00  0.00     0.170 HD
ENDROOT
BRANCH  12  15
HETATM   15  N6  UNL     1      -5.994   4.693  13.372  1.00  0.00    -0.342 N 
HETATM   16  H17 UNL     1      -5.557   4.589  14.282  1.00  0.00     0.167 HD
BRANCH  15  17
HETATM   17  C17 UNL     1      -7.213   5.404  13.496  1.00  0.00     0.034 A 
HETATM   18  C18 UNL     1      -8.082   5.435  12.394  1.00  0.00     0.032 A 
HETATM   19  C19 UNL     1      -9.321   6.090  12.429  1.00  0.00     0.034 A 
HETATM   20  C20 UNL     1      -9.687   6.702  13.631  1.00  0.00     0.062 A 
HETATM   21  C21 UNL     1      -8.880   6.646  14.763  1.00  0.00     0.011 A 
HETATM   22  N8  UNL     1     -10.795   7.429  14.010  1.00  0.00    -0.288 N 
HETATM   23  C22 UNL     1      -9.606   7.341  15.754  1.00  0.00     0.121 A 
HETATM   24  C30 UNL     1      -7.642   5.977  14.702  1.00  0.00     0.044 A 
HETATM   25  N7  UNL     1     -10.763   7.834  15.302  1.00  0.00    -0.308 N 
ATOM     26  H7  UNL     1     -11.455   8.384  15.809  1.00  0.00     0.186 HD
BRANCH  22  27
HETATM   27  C23 UNL     1     -11.891   7.870  13.150  1.00  0.00     0.187 C 
BRANCH  27  28
HETATM   28  C24 UNL     1     -13.179   7.126  13.414  1.00  0.00    -0.038 A 
HETATM   29  C25 UNL     1     -13.216   6.044  14.310  1.00  0.00     0.009 A 
HETATM   30  C26 UNL     1     -14.411   5.371  14.557  1.00  0.00     0.001 A 
HETATM   31  C27 UNL     1     -15.587   5.777  13.927  1.00  0.00     0.000 A 
HETATM   32  C28 UNL     1     -15.569   6.859  13.051  1.00  0.00     0.001 A 
HETATM   33  C29 UNL     1     -14.372   7.531  12.796  1.00  0.00     0.009 A 
ENDBRANCH  27  28
ENDBRANCH  22  27
ENDBRANCH  15  17
ENDBRANCH  12  15
BRANCH   1  34
HETATM   34  C10 UNL     1      -1.658   5.926  12.721  1.00  0.00     0.039 A 
HETATM   35  C2  UNL     1      -1.068   6.676  13.728  1.00  0.00    -0.033 A 
HETATM   36  C1  UNL     1      -1.653   7.027  15.051  1.00  0.00     0.050 C 
HETATM   37  C3  UNL     1       0.229   7.026  13.268  1.00  0.00     0.044 A 
HETATM   38  C4  UNL     1       0.418   6.495  12.002  1.00  0.00     0.102 A 
HETATM   39  N2  UNL     1      -0.753   5.841  11.688  1.00  0.00    -0.351 N 
HETATM   40  H13 UNL     1      -0.915   5.332  10.830  1.00  0.00     0.166 HD
BRANCH  38  41
HETATM   41  C5  UNL     1       1.654   6.521  11.236  1.00  0.00     0.270 C 
HETATM   42  O1  UNL     1       2.729   6.274  11.786  1.00  0.00    -0.266 OA
HETATM   43  N1  UNL     1       1.609   6.802   9.866  1.00  0.00    -0.343 N 
HETATM   44  C6  UNL     1       2.867   6.742   9.111  1.00  0.00     0.152 C 
HETATM   45  C9  UNL     1       0.596   7.685   9.271  1.00  0.00     0.152 C 
HETATM   46  C7  UNL     1       3.262   8.135   8.606  1.00  0.00     0.187 C 
HETATM   47  O2  UNL     1       2.257   8.776   7.803  1.00  0.00    -0.388 OA
HETATM   48  C8  UNL     1       0.979   8.132   7.853  1.00  0.00     0.187 C 
ENDBRANCH  38  41
ENDBRANCH   1  34
TORSDOF 6
ENDMDL
MODEL 9
REMARK minimizedAffinity -10.009016
REMARK CNNscore 0.265664965
REMARK CNNaffinity 7.46026564
REMARK  6 active torsions:
REMARK  status: ('A' for Active; 'I' for Inactive)
REMARK    1  A    between atoms: C4_4  and  C5_5 
REMARK       I    between atoms: C5_5  and  N1_7 
REMARK    2  A    between atoms: C10_14  and  C11_15 
REMARK    3  A    between atoms: C16_26  and  N6_27 
REMARK    4  A    between atoms: N6_27  and  C17_28 
REMARK    5  A    between atoms: N8_36  and  C23_37 
REMARK    6  A    between atoms: C23_37  and  C24_38 
ROOT
HETATM    1  C11 UNL     1      -6.563   5.738  13.712  1.00  0.00     0.048 C 
HETATM    2  C12 UNL     1      -6.343   4.624  12.994  1.00  0.00     0.052 A 
HETATM    3  C13 UNL     1      -7.322   3.537  12.628  1.00  0.00     0.258 A 
HETATM    4  O3  UNL     1      -8.533   3.551  12.715  1.00  0.00    -0.267 OA
HETATM    5  N3  UNL     1      -6.550   2.518  12.115  1.00  0.00    -0.308 N 
HETATM    6  C14 UNL     1      -5.213   2.879  12.035  1.00  0.00     0.124 A 
HETATM    7  N4  UNL     1      -4.282   2.084  11.517  1.00  0.00    -0.338 N 
ATOM      8  H4  UNL     1      -4.470   1.142  11.174  1.00  0.00     0.168 HD
HETATM    9  C15 UNL     1      -3.071   2.651  11.493  1.00  0.00     0.183 A 
HETATM   10  N5  UNL     1      -2.767   3.901  11.898  1.00  0.00    -0.338 N 
ATOM     11  H5  UNL     1      -1.812   4.252  11.833  1.00  0.00     0.168 HD
HETATM   12  C16 UNL     1      -3.757   4.678  12.393  1.00  0.00     0.121 A 
HETATM   13  C31 UNL     1      -5.029   4.164  12.516  1.00  0.00     0.068 A 
HETATM   14  H15 UNL     1      -6.905   1.638  11.779  1.00  0.00     0.170 HD
ENDROOT
BRANCH  12  15
HETATM   15  N6  UNL     1      -3.499   6.021  12.757  1.00  0.00    -0.342 N 
HETATM   16  H17 UNL     1      -4.096   6.633  12.211  1.00  0.00     0.167 HD
BRANCH  15  17
HETATM   17  C17 UNL     1      -2.255   6.652  13.008  1.00  0.00     0.034 A 
HETATM   18  C18 UNL     1      -1.781   7.586  12.073  1.00  0.00     0.032 A 
HETATM   19  C19 UNL     1      -0.575   8.280  12.247  1.00  0.00     0.034 A 
HETATM   20  C20 UNL     1       0.143   8.030  13.419  1.00  0.00     0.062 A 
HETATM   21  C21 UNL     1      -0.320   7.155  14.396  1.00  0.00     0.011 A 
HETATM   22  N8  UNL     1       1.344   8.509  13.900  1.00  0.00    -0.288 N 
HETATM   23  C22 UNL     1       0.657   7.207  15.414  1.00  0.00     0.121 A 
HETATM   24  C30 UNL     1      -1.537   6.474  14.199  1.00  0.00     0.044 A 
HETATM   25  N7  UNL     1       1.678   8.013  15.115  1.00  0.00    -0.308 N 
ATOM     26  H7  UNL     1       2.512   8.209  15.669  1.00  0.00     0.186 HD
BRANCH  22  27
HETATM   27  C23 UNL     1       2.288   9.374  13.195  1.00  0.00     0.187 C 
BRANCH  27  28
HETATM   28  C24 UNL     1       3.246   8.603  12.318  1.00  0.00    -0.038 A 
HETATM   29  C25 UNL     1       3.024   7.247  12.027  1.00  0.00     0.009 A 
HETATM   30  C26 UNL     1       3.907   6.546  11.206  1.00  0.00     0.001 A 
HETATM   31  C27 UNL     1       5.012   7.192  10.653  1.00  0.00     0.000 A 
HETATM   32  C28 UNL     1       5.234   8.540  10.919  1.00  0.00     0.001 A 
HETATM   33  C29 UNL     1       4.356   9.243  11.745  1.00  0.00     0.009 A 
ENDBRANCH  27  28
ENDBRANCH  22  27
ENDBRANCH  15  17
ENDBRANCH  12  15
BRANCH   1  34
HETATM   34  C10 UNL     1      -7.791   6.176  14.272  1.00  0.00     0.039 A 
HETATM   35  C2  UNL     1      -8.117   6.543  15.568  1.00  0.00    -0.033 A 
HETATM   36  C1  UNL     1      -7.245   6.473  16.772  1.00  0.00     0.050 C 
HETATM   37  C3  UNL     1      -9.449   7.034  15.529  1.00  0.00     0.044 A 
HETATM   38  C4  UNL     1      -9.919   6.964  14.227  1.00  0.00     0.102 A 
HETATM   39  N2  UNL     1      -8.891   6.425  13.484  1.00  0.00    -0.351 N 
HETATM   40  H13 UNL     1      -8.925   6.269  12.486  1.00  0.00     0.166 HD
BRANCH  38  41
HETATM   41  C5  UNL     1     -11.188   7.483  13.743  1.00  0.00     0.270 C 
HETATM   42  O1  UNL     1     -11.571   7.219  12.603  1.00  0.00    -0.266 OA
HETATM   43  N1  UNL     1     -11.982   8.262  14.593  1.00  0.00    -0.343 N 
HETATM   44  C6  UNL     1     -13.291   8.702  14.097  1.00  0.00     0.152 C 
HETATM   45  C9  UNL     1     -11.413   9.132  15.633  1.00  0.00     0.152 C 
HETATM   46  C7  UNL     1     -13.320  10.227  13.927  1.00  0.00     0.187 C 
HETATM   47  O2  UNL     1     -12.996  10.958  15.120  1.00  0.00    -0.388 OA
HETATM   48  C8  UNL     1     -12.435  10.149  16.160  1.00  0.00     0.187 C 
ENDBRANCH  38  41
ENDBRANCH   1  34
TORSDOF 6
ENDMDL
