MODEL 1
REMARK minimizedAffinity -10.3140621
REMARK CNNscore 0.801736653
REMARK CNNaffinity 7.46496964
REMARK  4 active torsions:
REMARK  status: ('A' for Active; 'I' for Inactive)
REMARK    1  A    between atoms: O1_2  and  C2_3 
REMARK    2  A    between atoms: C5_6  and  N1_7 
REMARK    3  A    between atoms: N1_7  and  C6_8 
REMARK    4  A    between atoms: C10_14  and  C11_15 
ROOT
HETATM    1  C6  UNL     1       4.755  -5.035  29.293  1.00  0.00     0.684 A 
HETATM    2  N2  UNL     1       4.469  -3.966  30.049  1.00  0.00    -0.201 N 
ATOM      3  H2  UNL     1       3.561  -3.503  29.989  1.00  0.00     0.183 HD
HETATM    4  C7  UNL     1       5.423  -3.526  30.889  1.00  0.00     0.121 A 
HETATM    5  C8  UNL     1       6.661  -4.110  31.010  1.00  0.00     0.026 A 
HETATM    6  C9  UNL     1       7.685  -3.628  31.920  1.00  0.00     0.034 A 
HETATM    7  C10 UNL     1       8.868  -4.259  31.975  1.00  0.00     0.047 A 
HETATM    8  C17 UNL     1       9.143  -5.455  31.108  1.00  0.00     0.260 A 
HETATM    9  O2  UNL     1      10.237  -6.013  31.181  1.00  0.00    -0.267 OA
HETATM   10  N3  UNL     1       8.125  -5.866  30.262  1.00  0.00    -0.303 N 
HETATM   11  C18 UNL     1       8.325  -7.015  29.395  1.00  0.00     0.161 C 
HETATM   12  C19 UNL     1       6.873  -5.205  30.196  1.00  0.00     0.137 A 
HETATM   13  N4  UNL     1       5.936  -5.671  29.343  1.00  0.00    -0.175 N 
ATOM     14  H4  UNL     1       6.120  -6.484  28.754  1.00  0.00     0.186 HD
ENDROOT
BRANCH   1  15
HETATM   15  N1  UNL     1       3.840  -5.572  28.392  1.00  0.00    -0.192 N 
HETATM   16  H6  UNL     1       3.381  -4.818  27.903  1.00  0.00     0.184 HD
BRANCH  15  17
HETATM   17  C5  UNL     1       3.455  -6.871  28.051  1.00  0.00     0.050 A 
HETATM   18  C4  UNL     1       4.346  -7.880  27.682  1.00  0.00     0.033 A 
HETATM   19  C3  UNL     1       3.897  -9.166  27.350  1.00  0.00     0.039 A 
HETATM   20  C2  UNL     1       2.537  -9.475  27.380  1.00  0.00     0.074 A 
HETATM   21  C21 UNL     1       1.620  -8.480  27.746  1.00  0.00    -0.026 A 
HETATM   22  C20 UNL     1       2.089  -7.195  28.077  1.00  0.00     0.039 A 
HETATM   23  C22 UNL     1       0.145  -8.771  27.791  1.00  0.00     0.051 C 
BRANCH  20  24
HETATM   24  O1  UNL     1       2.001 -10.699  27.074  1.00  0.00    -0.355 OA
HETATM   25  C1  UNL     1       2.908 -11.775  26.874  1.00  0.00     0.210 C 
ENDBRANCH  20  24
ENDBRANCH  15  17
ENDBRANCH   1  15
BRANCH   7  26
HETATM   26  C11 UNL     1       9.915  -3.776  32.898  1.00  0.00     0.023 A 
HETATM   27  C12 UNL     1       9.896  -4.129  34.260  1.00  0.00     0.046 A 
HETATM   28 CL1  UNL     1       8.676  -5.166  34.920  1.00  0.00    -0.083 Cl
HETATM   29  C13 UNL     1      10.880  -3.657  35.137  1.00  0.00     0.025 A 
HETATM   30  C14 UNL     1      11.895  -2.826  34.670  1.00  0.00     0.003 A 
HETATM   31  C15 UNL     1      11.930  -2.466  33.324  1.00  0.00     0.025 A 
HETATM   32  C16 UNL     1      10.948  -2.935  32.444  1.00  0.00     0.046 A 
HETATM   33 CL2  UNL     1      11.070  -2.450  30.786  1.00  0.00    -0.083 Cl
ENDBRANCH   7  26
TORSDOF 4
ENDMDL
MODEL 2
REMARK minimizedAffinity -10.3399906
REMARK CNNscore 0.796203673
REMARK CNNaffinity 7.45434237
REMARK  4 active torsions:
REMARK  status: ('A' for Active; 'I' for Inactive)
REMARK    1  A    between atoms: O1_2  and  C2_3 
REMARK    2  A    between atoms: C5_6  and  N1_7 
REMARK    3  A    between atoms: N1_7  and  C6_8 
REMARK    4  A    between atoms: C10_14  and  C11_15 
ROOT
HETATM    1  C6  UNL     1       4.736  -5.030  29.295  1.00  0.00     0.684 A 
HETATM    2  N2  UNL     1       4.444  -3.960  30.048  1.00  0.00    -0.201 N 
ATOM      3  H2  UNL     1       3.535  -3.501  29.985  1.00  0.00     0.183 HD
HETATM    4  C7  UNL     1       5.394  -3.514  30.889  1.00  0.00     0.121 A 
HETATM    5  C8  UNL     1       6.635  -4.092  31.015  1.00  0.00     0.026 A 
HETATM    6  C9  UNL     1       7.655  -3.604  31.925  1.00  0.00     0.034 A 
HETATM    7  C10 UNL     1       8.841  -4.230  31.985  1.00  0.00     0.047 A 
HETATM    8  C17 UNL     1       9.122  -5.427  31.120  1.00  0.00     0.260 A 
HETATM    9  O2  UNL     1      10.219  -5.980  31.197  1.00  0.00    -0.267 OA
HETATM   10  N3  UNL     1       8.108  -5.844  30.273  1.00  0.00    -0.303 N 
HETATM   11  C18 UNL     1       8.314  -6.994  29.410  1.00  0.00     0.161 C 
HETATM   12  C19 UNL     1       6.853  -5.188  30.204  1.00  0.00     0.137 A 
HETATM   13  N4  UNL     1       5.920  -5.661  29.350  1.00  0.00    -0.175 N 
ATOM     14  H4  UNL     1       6.108  -6.474  28.763  1.00  0.00     0.186 HD
ENDROOT
BRANCH   1  15
HETATM   15  N1  UNL     1       3.826  -5.572  28.394  1.00  0.00    -0.192 N 
HETATM   16  H6  UNL     1       3.362  -4.821  27.904  1.00  0.00     0.184 HD
BRANCH  15  17
HETATM   17  C5  UNL     1       3.448  -6.874  28.053  1.00  0.00     0.050 A 
HETATM   18  C4  UNL     1       4.345  -7.878  27.689  1.00  0.00     0.033 A 
HETATM   19  C3  UNL     1       3.904  -9.167  27.357  1.00  0.00     0.039 A 
HETATM   20  C2  UNL     1       2.547  -9.484  27.383  1.00  0.00     0.074 A 
HETATM   21  C21 UNL     1       1.623  -8.493  27.745  1.00  0.00    -0.026 A 
HETATM   22  C20 UNL     1       2.084  -7.205  28.075  1.00  0.00     0.039 A 
HETATM   23  C22 UNL     1       0.149  -8.792  27.786  1.00  0.00     0.051 C 
BRANCH  20  24
HETATM   24  O1  UNL     1       2.018 -10.710  27.077  1.00  0.00    -0.355 OA
HETATM   25  C1  UNL     1       2.932 -11.779  26.869  1.00  0.00     0.210 C 
ENDBRANCH  20  24
ENDBRANCH  15  17
ENDBRANCH   1  15
BRANCH   7  26
HETATM   26  C11 UNL     1       9.884  -3.740  32.909  1.00  0.00     0.023 A 
HETATM   27  C12 UNL     1      10.912  -2.895  32.454  1.00  0.00     0.046 A 
HETATM   28 CL1  UNL     1      10.995  -2.358  30.809  1.00  0.00    -0.083 Cl
HETATM   29  C13 UNL     1      11.909  -2.443  33.327  1.00  0.00     0.025 A 
HETATM   30  C14 UNL     1      11.896  -2.831  34.665  1.00  0.00     0.003 A 
HETATM   31  C15 UNL     1      10.885  -3.667  35.133  1.00  0.00     0.025 A 
HETATM   32  C16 UNL     1       9.887  -4.121  34.263  1.00  0.00     0.046 A 
HETATM   33 CL2  UNL     1       8.661  -5.149  34.927  1.00  0.00    -0.083 Cl
ENDBRANCH   7  26
TORSDOF 4
ENDMDL
MODEL 3
REMARK minimizedAffinity -9.71432972
REMARK CNNscore 0.514427006
REMARK CNNaffinity 7.21650934
REMARK  4 active torsions:
REMARK  status: ('A' for Active; 'I' for Inactive)
REMARK    1  A    between atoms: O1_2  and  C2_3 
REMARK    2  A    between atoms: C5_6  and  N1_7 
REMARK    3  A    between atoms: N1_7  and  C6_8 
REMARK    4  A    between atoms: C10_14  and  C11_15 
ROOT
HETATM    1  C6  UNL     1       5.698  -6.128  28.763  1.00  0.00     0.684 A 
HETATM    2  N2  UNL     1       5.164  -5.105  29.445  1.00  0.00    -0.201 N 
ATOM      3  H2  UNL     1       4.214  -4.782  29.258  1.00  0.00     0.183 HD
HETATM    4  C7  UNL     1       5.926  -4.520  30.387  1.00  0.00     0.121 A 
HETATM    5  C8  UNL     1       7.210  -4.913  30.681  1.00  0.00     0.026 A 
HETATM    6  C9  UNL     1       8.027  -4.275  31.698  1.00  0.00     0.034 A 
HETATM    7  C10 UNL     1       9.272  -4.723  31.921  1.00  0.00     0.047 A 
HETATM    8  C17 UNL     1       9.828  -5.874  31.130  1.00  0.00     0.260 A 
HETATM    9  O2  UNL     1      10.973  -6.263  31.358  1.00  0.00    -0.267 OA
HETATM   10  N3  UNL     1       9.000  -6.440  30.175  1.00  0.00    -0.303 N 
HETATM   11  C18 UNL     1       9.474  -7.555  29.375  1.00  0.00     0.161 C 
HETATM   12  C19 UNL     1       7.683  -5.972  29.932  1.00  0.00     0.137 A 
HETATM   13  N4  UNL     1       6.942  -6.581  28.982  1.00  0.00    -0.175 N 
ATOM     14  H4  UNL     1       7.318  -7.363  28.444  1.00  0.00     0.186 HD
ENDROOT
BRANCH   1  15
HETATM   15  N1  UNL     1       4.996  -6.803  27.770  1.00  0.00    -0.192 N 
HETATM   16  H6  UNL     1       5.504  -6.729  26.902  1.00  0.00     0.184 HD
BRANCH  15  17
HETATM   17  C5  UNL     1       3.797  -7.520  27.739  1.00  0.00     0.050 A 
HETATM   18  C4  UNL     1       2.552  -6.978  28.065  1.00  0.00     0.033 A 
HETATM   19  C3  UNL     1       1.383  -7.751  28.014  1.00  0.00     0.039 A 
HETATM   20  C2  UNL     1       1.432  -9.092  27.635  1.00  0.00     0.074 A 
HETATM   21  C21 UNL     1       2.669  -9.661  27.303  1.00  0.00    -0.026 A 
HETATM   22  C20 UNL     1       3.832  -8.871  27.359  1.00  0.00     0.039 A 
HETATM   23  C22 UNL     1       2.766 -11.105  26.889  1.00  0.00     0.051 C 
BRANCH  20  24
HETATM   24  O1  UNL     1       0.348  -9.927  27.555  1.00  0.00    -0.355 OA
HETATM   25  C1  UNL     1      -0.808  -9.567  28.300  1.00  0.00     0.210 C 
ENDBRANCH  20  24
ENDBRANCH  15  17
ENDBRANCH   1  15
BRANCH   7  26
HETATM   26  C11 UNL     1      10.109  -4.080  32.955  1.00  0.00     0.023 A 
HETATM   27  C12 UNL     1       9.877  -4.317  34.321  1.00  0.00     0.046 A 
HETATM   28 CL1  UNL     1       8.630  -5.390  34.866  1.00  0.00    -0.083 Cl
HETATM   29  C13 UNL     1      10.661  -3.695  35.301  1.00  0.00     0.025 A 
HETATM   30  C14 UNL     1      11.685  -2.827  34.931  1.00  0.00     0.003 A 
HETATM   31  C15 UNL     1      11.930  -2.582  33.581  1.00  0.00     0.025 A 
HETATM   32  C16 UNL     1      11.148  -3.201  32.600  1.00  0.00     0.046 A 
HETATM   33 CL2  UNL     1      11.526  -2.850  30.946  1.00  0.00    -0.083 Cl
ENDBRANCH   7  26
TORSDOF 4
ENDMDL
MODEL 4
REMARK minimizedAffinity -9.59092236
REMARK CNNscore 0.282978475
REMARK CNNaffinity 6.73597765
REMARK  4 active torsions:
REMARK  status: ('A' for Active; 'I' for Inactive)
REMARK    1  A    between atoms: O1_2  and  C2_3 
REMARK    2  A    between atoms: C5_6  and  N1_7 
REMARK    3  A    between atoms: N1_7  and  C6_8 
REMARK    4  A    between atoms: C10_14  and  C11_15 
ROOT
HETATM    1  C6  UNL     1       6.313  -7.209  28.226  1.00  0.00     0.684 A 
HETATM    2  N2  UNL     1       7.490  -7.835  28.366  1.00  0.00    -0.201 N 
ATOM      3  H2  UNL     1       7.713  -8.670  27.824  1.00  0.00     0.183 HD
HETATM    4  C7  UNL     1       8.366  -7.323  29.250  1.00  0.00     0.121 A 
HETATM    5  C8  UNL     1       8.117  -6.203  30.007  1.00  0.00     0.026 A 
HETATM    6  C9  UNL     1       9.068  -5.656  30.959  1.00  0.00     0.034 A 
HETATM    7  C10 UNL     1       8.744  -4.556  31.657  1.00  0.00     0.047 A 
HETATM    8  C17 UNL     1       7.412  -3.888  31.464  1.00  0.00     0.260 A 
HETATM    9  O2  UNL     1       7.144  -2.881  32.119  1.00  0.00    -0.267 OA
HETATM   10  N3  UNL     1       6.550  -4.457  30.542  1.00  0.00    -0.303 N 
HETATM   11  C18 UNL     1       5.245  -3.862  30.307  1.00  0.00     0.161 C 
HETATM   12  C19 UNL     1       6.883  -5.619  29.800  1.00  0.00     0.137 A 
HETATM   13  N4  UNL     1       5.984  -6.109  28.921  1.00  0.00    -0.175 N 
ATOM     14  H4  UNL     1       5.079  -5.656  28.788  1.00  0.00     0.186 HD
ENDROOT
BRANCH   1  15
HETATM   15  N1  UNL     1       5.338  -7.655  27.340  1.00  0.00    -0.192 N 
HETATM   16  H6  UNL     1       5.772  -7.866  26.454  1.00  0.00     0.184 HD
BRANCH  15  17
HETATM   17  C5  UNL     1       3.958  -7.856  27.429  1.00  0.00     0.050 A 
HETATM   18  C4  UNL     1       3.074  -6.959  28.029  1.00  0.00     0.033 A 
HETATM   19  C3  UNL     1       1.697  -7.217  28.087  1.00  0.00     0.039 A 
HETATM   20  C2  UNL     1       1.169  -8.388  27.543  1.00  0.00     0.074 A 
HETATM   21  C21 UNL     1       2.035  -9.307  26.934  1.00  0.00    -0.026 A 
HETATM   22  C20 UNL     1       3.414  -9.031  26.885  1.00  0.00     0.039 A 
HETATM   23  C22 UNL     1       1.507 -10.582  26.335  1.00  0.00     0.051 C 
BRANCH  20  24
HETATM   24  O1  UNL     1      -0.158  -8.730  27.549  1.00  0.00    -0.355 OA
HETATM   25  C1  UNL     1      -0.647  -9.418  28.693  1.00  0.00     0.210 C 
ENDBRANCH  20  24
ENDBRANCH  15  17
ENDBRANCH   1  15
BRANCH   7  26
HETATM   26  C11 UNL     1       9.706  -3.994  32.627  1.00  0.00     0.023 A 
HETATM   27  C12 UNL     1      10.692  -3.079  32.217  1.00  0.00     0.046 A 
HETATM   28 CL1  UNL     1      10.815  -2.538  30.576  1.00  0.00    -0.083 Cl
HETATM   29  C13 UNL     1      11.613  -2.557  33.134  1.00  0.00     0.025 A 
HETATM   30  C14 UNL     1      11.564  -2.944  34.472  1.00  0.00     0.003 A 
HETATM   31  C15 UNL     1      10.593  -3.849  34.895  1.00  0.00     0.025 A 
HETATM   32  C16 UNL     1       9.672  -4.372  33.982  1.00  0.00     0.046 A 
HETATM   33 CL2  UNL     1       8.491  -5.483  34.592  1.00  0.00    -0.083 Cl
ENDBRANCH   7  26
TORSDOF 4
ENDMDL
MODEL 5
REMARK minimizedAffinity -6.5406189
REMARK CNNscore 0.246511012
REMARK CNNaffinity 5.59857416
REMARK  4 active torsions:
REMARK  status: ('A' for Active; 'I' for Inactive)
REMARK    1  A    between atoms: O1_2  and  C2_3 
REMARK    2  A    between atoms: C5_6  and  N1_7 
REMARK    3  A    between atoms: N1_7  and  C6_8 
REMARK    4  A    between atoms: C10_14  and  C11_15 
ROOT
HETATM    1  C6  UNL     1       4.971   8.313  40.008  1.00  0.00     0.684 A 
HETATM    2  N2  UNL     1       4.978   6.995  39.761  1.00  0.00    -0.201 N 
ATOM      3  H2  UNL     1       5.000   6.636  38.807  1.00  0.00     0.183 HD
HETATM    4  C7  UNL     1       4.955   6.164  40.819  1.00  0.00     0.121 A 
HETATM    5  C8  UNL     1       4.925   6.593  42.125  1.00  0.00     0.026 A 
HETATM    6  C9  UNL     1       4.900   5.689  43.262  1.00  0.00     0.034 A 
HETATM    7  C10 UNL     1       4.872   6.193  44.505  1.00  0.00     0.047 A 
HETATM    8  C17 UNL     1       4.865   7.679  44.732  1.00  0.00     0.260 A 
HETATM    9  O2  UNL     1       4.839   8.111  45.884  1.00  0.00    -0.267 OA
HETATM   10  N3  UNL     1       4.891   8.488  43.608  1.00  0.00    -0.303 N 
HETATM   11  C18 UNL     1       4.885   9.933  43.756  1.00  0.00     0.161 C 
HETATM   12  C19 UNL     1       4.920   7.963  42.290  1.00  0.00     0.137 A 
HETATM   13  N4  UNL     1       4.943   8.823  41.249  1.00  0.00    -0.175 N 
ATOM     14  H4  UNL     1       4.940   9.832  41.401  1.00  0.00     0.186 HD
ENDROOT
BRANCH   1  15
HETATM   15  N1  UNL     1       4.994   9.257  38.988  1.00  0.00    -0.192 N 
HETATM   16  H6  UNL     1       5.215  10.160  39.381  1.00  0.00     0.184 HD
BRANCH  15  17
HETATM   17  C5  UNL     1       4.782   9.207  37.607  1.00  0.00     0.050 A 
HETATM   18  C4  UNL     1       3.782   8.451  36.996  1.00  0.00     0.033 A 
HETATM   19  C3  UNL     1       3.620   8.442  35.603  1.00  0.00     0.039 A 
HETATM   20  C2  UNL     1       4.460   9.194  34.784  1.00  0.00     0.074 A 
HETATM   21  C21 UNL     1       5.475   9.963  35.372  1.00  0.00    -0.026 A 
HETATM   22  C20 UNL     1       5.622   9.961  36.771  1.00  0.00     0.039 A 
HETATM   23  C22 UNL     1       6.404  10.790  34.525  1.00  0.00     0.051 C 
BRANCH  20  24
HETATM   24  O1  UNL     1       4.383   9.252  33.417  1.00  0.00    -0.355 OA
HETATM   25  C1  UNL     1       4.762   8.088  32.694  1.00  0.00     0.210 C 
ENDBRANCH  20  24
ENDBRANCH  15  17
ENDBRANCH   1  15
BRANCH   7  26
HETATM   26  C11 UNL     1       4.847   5.281  45.666  1.00  0.00     0.023 A 
HETATM   27  C12 UNL     1       3.631   4.919  46.274  1.00  0.00     0.046 A 
HETATM   28 CL1  UNL     1       2.106   5.489  45.682  1.00  0.00    -0.083 Cl
HETATM   29  C13 UNL     1       3.609   4.066  47.384  1.00  0.00     0.025 A 
HETATM   30  C14 UNL     1       4.800   3.565  47.905  1.00  0.00     0.003 A 
HETATM   31  C15 UNL     1       6.014   3.912  47.316  1.00  0.00     0.025 A 
HETATM   32  C16 UNL     1       6.039   4.765  46.206  1.00  0.00     0.046 A 
HETATM   33 CL2  UNL     1       7.588   5.138  45.527  1.00  0.00    -0.083 Cl
ENDBRANCH   7  26
TORSDOF 4
ENDMDL
MODEL 6
REMARK minimizedAffinity -6.80359316
REMARK CNNscore 0.24261196
REMARK CNNaffinity 5.36137152
REMARK  4 active torsions:
REMARK  status: ('A' for Active; 'I' for Inactive)
REMARK    1  A    between atoms: O1_2  and  C2_3 
REMARK    2  A    between atoms: C5_6  and  N1_7 
REMARK    3  A    between atoms: N1_7  and  C6_8 
REMARK    4  A    between atoms: C10_14  and  C11_15 
ROOT
HETATM    1  C6  UNL     1      -0.385 -14.725  42.833  1.00  0.00     0.684 A 
HETATM    2  N2  UNL     1      -0.763 -14.050  43.927  1.00  0.00    -0.201 N 
ATOM      3  H2  UNL     1      -1.748 -13.869  44.123  1.00  0.00     0.183 HD
HETATM    4  C7  UNL     1       0.204 -13.620  44.758  1.00  0.00     0.121 A 
HETATM    5  C8  UNL     1       1.545 -13.835  44.543  1.00  0.00     0.026 A 
HETATM    6  C9  UNL     1       2.583 -13.368  45.444  1.00  0.00     0.034 A 
HETATM    7  C10 UNL     1       3.869 -13.622  45.159  1.00  0.00     0.047 A 
HETATM    8  C17 UNL     1       4.244 -14.384  43.918  1.00  0.00     0.260 A 
HETATM    9  O2  UNL     1       5.432 -14.602  43.683  1.00  0.00    -0.267 OA
HETATM   10  N3  UNL     1       3.209 -14.804  43.099  1.00  0.00    -0.303 N 
HETATM   11  C18 UNL     1       3.501 -15.544  41.884  1.00  0.00     0.161 C 
HETATM   12  C19 UNL     1       1.847 -14.538  43.394  1.00  0.00     0.137 A 
HETATM   13  N4  UNL     1       0.900 -14.983  42.541  1.00  0.00    -0.175 N 
ATOM     14  H4  UNL     1       1.152 -15.501  41.699  1.00  0.00     0.186 HD
ENDROOT
BRANCH   1  15
HETATM   15  N1  UNL     1      -1.304 -15.213  41.910  1.00  0.00    -0.192 N 
HETATM   16  H6  UNL     1      -1.028 -16.144  41.634  1.00  0.00     0.184 HD
BRANCH  15  17
HETATM   17  C5  UNL     1      -2.464 -14.701  41.323  1.00  0.00     0.050 A 
HETATM   18  C4  UNL     1      -3.233 -13.676  41.876  1.00  0.00     0.033 A 
HETATM   19  C3  UNL     1      -4.389 -13.203  41.239  1.00  0.00     0.039 A 
HETATM   20  C2  UNL     1      -4.805 -13.749  40.025  1.00  0.00     0.074 A 
HETATM   21  C21 UNL     1      -4.052 -14.780  39.447  1.00  0.00    -0.026 A 
HETATM   22  C20 UNL     1      -2.894 -15.241  40.101  1.00  0.00     0.039 A 
HETATM   23  C22 UNL     1      -4.466 -15.396  38.138  1.00  0.00     0.051 C 
BRANCH  20  24
HETATM   24  O1  UNL     1      -5.917 -13.357  39.325  1.00  0.00    -0.355 OA
HETATM   25  C1  UNL     1      -6.078 -13.881  38.014  1.00  0.00     0.210 C 
ENDBRANCH  20  24
ENDBRANCH  15  17
ENDBRANCH   1  15
BRANCH   7  26
HETATM   26  C11 UNL     1       4.931 -13.151  46.071  1.00  0.00     0.023 A 
HETATM   27  C12 UNL     1       5.396 -11.825  46.012  1.00  0.00     0.046 A 
HETATM   28 CL1  UNL     1       4.736 -10.671  44.901  1.00  0.00    -0.083 Cl
HETATM   29  C13 UNL     1       6.414 -11.383  46.866  1.00  0.00     0.025 A 
HETATM   30  C14 UNL     1       6.982 -12.258  47.789  1.00  0.00     0.003 A 
HETATM   31  C15 UNL     1       6.533 -13.575  47.862  1.00  0.00     0.025 A 
HETATM   32  C16 UNL     1       5.517 -14.020  47.009  1.00  0.00     0.046 A 
HETATM   33 CL2  UNL     1       5.009 -15.668  47.171  1.00  0.00    -0.083 Cl
ENDBRANCH   7  26
TORSDOF 4
ENDMDL
MODEL 7
REMARK minimizedAffinity -8.50205135
REMARK CNNscore 0.223481074
REMARK CNNaffinity 6.7971034
REMARK  4 active torsions:
REMARK  status: ('A' for Active; 'I' for Inactive)
REMARK    1  A    between atoms: O1_2  and  C2_3 
REMARK    2  A    between atoms: C5_6  and  N1_7 
REMARK    3  A    between atoms: N1_7  and  C6_8 
REMARK    4  A    between atoms: C10_14  and  C11_15 
ROOT
HETATM    1  C6  UNL     1       6.088  -6.174  28.309  1.00  0.00     0.684 A 
HETATM    2  N2  UNL     1       5.541  -5.110  28.913  1.00  0.00    -0.201 N 
ATOM      3  H2  UNL     1       4.628  -4.752  28.629  1.00  0.00     0.183 HD
HETATM    4  C7  UNL     1       6.239  -4.531  29.907  1.00  0.00     0.121 A 
HETATM    5  C8  UNL     1       7.471  -4.971  30.329  1.00  0.00     0.026 A 
HETATM    6  C9  UNL     1       8.218  -4.340  31.403  1.00  0.00     0.034 A 
HETATM    7  C10 UNL     1       9.415  -4.834  31.753  1.00  0.00     0.047 A 
HETATM    8  C17 UNL     1       9.989  -6.031  31.046  1.00  0.00     0.260 A 
HETATM    9  O2  UNL     1      11.089  -6.462  31.390  1.00  0.00    -0.267 OA
HETATM   10  N3  UNL     1       9.227  -6.588  30.032  1.00  0.00    -0.303 N 
HETATM   11  C18 UNL     1       9.723  -7.745  29.308  1.00  0.00     0.161 C 
HETATM   12  C19 UNL     1       7.962  -6.071  29.655  1.00  0.00     0.137 A 
HETATM   13  N4  UNL     1       7.285  -6.674  28.654  1.00  0.00    -0.175 N 
ATOM     14  H4  UNL     1       7.672  -7.487  28.174  1.00  0.00     0.186 HD
ENDROOT
BRANCH   1  15
HETATM   15  N1  UNL     1       5.451  -6.847  27.272  1.00  0.00    -0.192 N 
HETATM   16  H6  UNL     1       4.808  -6.216  26.818  1.00  0.00     0.184 HD
BRANCH  15  17
HETATM   17  C5  UNL     1       5.521  -8.147  26.764  1.00  0.00     0.050 A 
HETATM   18  C4  UNL     1       6.579  -8.630  25.993  1.00  0.00     0.033 A 
HETATM   19  C3  UNL     1       6.591  -9.947  25.512  1.00  0.00     0.039 A 
HETATM   20  C2  UNL     1       5.539 -10.817  25.793  1.00  0.00     0.074 A 
HETATM   21  C21 UNL     1       4.463 -10.358  26.566  1.00  0.00    -0.026 A 
HETATM   22  C20 UNL     1       4.468  -9.033  27.041  1.00  0.00     0.039 A 
HETATM   23  C22 UNL     1       3.307 -11.264  26.893  1.00  0.00     0.051 C 
BRANCH  20  24
HETATM   24  O1  UNL     1       5.458 -12.119  25.371  1.00  0.00    -0.355 OA
HETATM   25  C1  UNL     1       6.002 -12.423  24.093  1.00  0.00     0.210 C 
ENDBRANCH  20  24
ENDBRANCH  15  17
ENDBRANCH   1  15
BRANCH   7  26
HETATM   26  C11 UNL     1      10.182  -4.199  32.844  1.00  0.00     0.023 A 
HETATM   27  C12 UNL     1      11.234  -3.309  32.564  1.00  0.00     0.046 A 
HETATM   28 CL1  UNL     1      11.666  -2.885  30.941  1.00  0.00    -0.083 Cl
HETATM   29  C13 UNL     1      11.969  -2.719  33.599  1.00  0.00     0.025 A 
HETATM   30  C14 UNL     1      11.668  -3.011  34.927  1.00  0.00     0.003 A 
HETATM   31  C15 UNL     1      10.628  -3.890  35.223  1.00  0.00     0.025 A 
HETATM   32  C16 UNL     1       9.891  -4.482  34.191  1.00  0.00     0.046 A 
HETATM   33 CL2  UNL     1       8.609  -5.554  34.645  1.00  0.00    -0.083 Cl
ENDBRANCH   7  26
TORSDOF 4
ENDMDL
MODEL 8
REMARK minimizedAffinity -8.59257984
REMARK CNNscore 0.217060119
REMARK CNNaffinity 6.73534727
REMARK  4 active torsions:
REMARK  status: ('A' for Active; 'I' for Inactive)
REMARK    1  A    between atoms: O1_2  and  C2_3 
REMARK    2  A    between atoms: C5_6  and  N1_7 
REMARK    3  A    between atoms: N1_7  and  C6_8 
REMARK    4  A    between atoms: C10_14  and  C11_15 
ROOT
HETATM    1  C6  UNL     1       6.223  -7.592  28.341  1.00  0.00     0.684 A 
HETATM    2  N2  UNL     1       5.550  -6.534  28.814  1.00  0.00    -0.201 N 
ATOM      3  H2  UNL     1       4.576  -6.369  28.558  1.00  0.00     0.183 HD
HETATM    4  C7  UNL     1       6.205  -5.698  29.640  1.00  0.00     0.121 A 
HETATM    5  C8  UNL     1       7.515  -5.872  30.018  1.00  0.00     0.026 A 
HETATM    6  C9  UNL     1       8.216  -4.965  30.910  1.00  0.00     0.034 A 
HETATM    7  C10 UNL     1       9.496  -5.210  31.228  1.00  0.00     0.047 A 
HETATM    8  C17 UNL     1      10.210  -6.411  30.673  1.00  0.00     0.260 A 
HETATM    9  O2  UNL     1      11.384  -6.610  30.983  1.00  0.00    -0.267 OA
HETATM   10  N3  UNL     1       9.487  -7.238  29.829  1.00  0.00    -0.303 N 
HETATM   11  C18 UNL     1      10.116  -8.416  29.257  1.00  0.00     0.161 C 
HETATM   12  C19 UNL     1       8.134  -6.986  29.487  1.00  0.00     0.137 A 
HETATM   13  N4  UNL     1       7.503  -7.844  28.656  1.00  0.00    -0.175 N 
ATOM     14  H4  UNL     1       7.986  -8.660  28.279  1.00  0.00     0.186 HD
ENDROOT
BRANCH   1  15
HETATM   15  N1  UNL     1       5.640  -8.518  27.482  1.00  0.00    -0.192 N 
HETATM   16  H6  UNL     1       6.245  -9.321  27.406  1.00  0.00     0.184 HD
BRANCH  15  17
HETATM   17  C5  UNL     1       4.451  -8.553  26.748  1.00  0.00     0.050 A 
HETATM   18  C4  UNL     1       4.389  -8.760  25.369  1.00  0.00     0.033 A 
HETATM   19  C3  UNL     1       3.164  -8.784  24.688  1.00  0.00     0.039 A 
HETATM   20  C2  UNL     1       1.964  -8.602  25.375  1.00  0.00     0.074 A 
HETATM   21  C21 UNL     1       1.997  -8.392  26.760  1.00  0.00    -0.026 A 
HETATM   22  C20 UNL     1       3.236  -8.370  27.428  1.00  0.00     0.039 A 
HETATM   23  C22 UNL     1       0.726  -8.190  27.539  1.00  0.00     0.051 C 
BRANCH  20  24
HETATM   24  O1  UNL     1       0.719  -8.609  24.801  1.00  0.00    -0.355 OA
HETATM   25  C1  UNL     1       0.341  -9.777  24.083  1.00  0.00     0.210 C 
ENDBRANCH  20  24
ENDBRANCH  15  17
ENDBRANCH   1  15
BRANCH   7  26
HETATM   26  C11 UNL     1      10.216  -4.293  32.135  1.00  0.00     0.023 A 
HETATM   27  C12 UNL     1      11.043  -3.276  31.625  1.00  0.00     0.046 A 
HETATM   28 CL1  UNL     1      11.238  -3.022  29.923  1.00  0.00    -0.083 Cl
HETATM   29  C13 UNL     1      11.737  -2.417  32.485  1.00  0.00     0.025 A 
HETATM   30  C14 UNL     1      11.618  -2.561  33.866  1.00  0.00     0.003 A 
HETATM   31  C15 UNL     1      10.802  -3.563  34.388  1.00  0.00     0.025 A 
HETATM   32  C16 UNL     1      10.108  -4.424  33.532  1.00  0.00     0.046 A 
HETATM   33 CL2  UNL     1       9.107  -5.634  34.262  1.00  0.00    -0.083 Cl
ENDBRANCH   7  26
TORSDOF 4
ENDMDL
MODEL 9
REMARK minimizedAffinity -9.6830759
REMARK CNNscore 0.212475389
REMARK CNNaffinity 6.57434464
REMARK  4 active torsions:
REMARK  status: ('A' for Active; 'I' for Inactive)
REMARK    1  A    between atoms: O1_2  and  C2_3 
REMARK    2  A    between atoms: C5_6  and  N1_7 
REMARK    3  A    between atoms: N1_7  and  C6_8 
REMARK    4  A    between atoms: C10_14  and  C11_15 
ROOT
HETATM    1  C6  UNL     1       6.355  -7.030  28.338  1.00  0.00     0.684 A 
HETATM    2  N2  UNL     1       7.538  -7.654  28.414  1.00  0.00    -0.201 N 
ATOM      3  H2  UNL     1       7.748  -8.465  27.830  1.00  0.00     0.183 HD
HETATM    4  C7  UNL     1       8.440  -7.172  29.288  1.00  0.00     0.121 A 
HETATM    5  C8  UNL     1       8.212  -6.086  30.098  1.00  0.00     0.026 A 
HETATM    6  C9  UNL     1       9.191  -5.572  31.040  1.00  0.00     0.034 A 
HETATM    7  C10 UNL     1       8.885  -4.505  31.793  1.00  0.00     0.047 A 
HETATM    8  C17 UNL     1       7.543  -3.838  31.673  1.00  0.00     0.260 A 
HETATM    9  O2  UNL     1       7.293  -2.861  32.377  1.00  0.00    -0.267 OA
HETATM   10  N3  UNL     1       6.654  -4.375  30.757  1.00  0.00    -0.303 N 
HETATM   11  C18 UNL     1       5.339  -3.779  30.591  1.00  0.00     0.161 C 
HETATM   12  C19 UNL     1       6.969  -5.503  29.957  1.00  0.00     0.137 A 
HETATM   13  N4  UNL     1       6.042  -5.962  29.089  1.00  0.00    -0.175 N 
ATOM     14  H4  UNL     1       5.131  -5.510  29.005  1.00  0.00     0.186 HD
ENDROOT
BRANCH   1  15
HETATM   15  N1  UNL     1       5.352  -7.446  27.468  1.00  0.00    -0.192 N 
HETATM   16  H6  UNL     1       5.754  -7.600  26.555  1.00  0.00     0.184 HD
BRANCH  15  17
HETATM   17  C5  UNL     1       3.980  -7.679  27.600  1.00  0.00     0.050 A 
HETATM   18  C4  UNL     1       3.095  -6.801  28.226  1.00  0.00     0.033 A 
HETATM   19  C3  UNL     1       1.727  -7.090  28.327  1.00  0.00     0.039 A 
HETATM   20  C2  UNL     1       1.209  -8.273  27.799  1.00  0.00     0.074 A 
HETATM   21  C21 UNL     1       2.077  -9.173  27.164  1.00  0.00    -0.026 A 
HETATM   22  C20 UNL     1       3.447  -8.865  27.072  1.00  0.00     0.039 A 
HETATM   23  C22 UNL     1       1.559 -10.460  26.581  1.00  0.00     0.051 C 
BRANCH  20  24
HETATM   24  O1  UNL     1      -0.109  -8.645  27.846  1.00  0.00    -0.355 OA
HETATM   25  C1  UNL     1      -0.479  -9.605  28.828  1.00  0.00     0.210 C 
ENDBRANCH  20  24
ENDBRANCH  15  17
ENDBRANCH   1  15
BRANCH   7  26
HETATM   26  C11 UNL     1       9.876  -3.976  32.753  1.00  0.00     0.023 A 
HETATM   27  C12 UNL     1       9.814  -4.317  34.116  1.00  0.00     0.046 A 
HETATM   28 CL1  UNL     1       8.606  -5.392  34.737  1.00  0.00    -0.083 Cl
HETATM   29  C13 UNL     1      10.744  -3.803  35.027  1.00  0.00     0.025 A 
HETATM   30  C14 UNL     1      11.747  -2.939  34.593  1.00  0.00     0.003 A 
HETATM   31  C15 UNL     1      11.823  -2.591  33.246  1.00  0.00     0.025 A 
HETATM   32  C16 UNL     1      10.895  -3.102  32.332  1.00  0.00     0.046 A 
HETATM   33 CL2  UNL     1      11.068  -2.628  30.675  1.00  0.00    -0.083 Cl
ENDBRANCH   7  26
TORSDOF 4
ENDMDL
