MODEL 1
REMARK minimizedAffinity -8.0783577
REMARK  8 active torsions:
REMARK  status: ('A' for Active; 'I' for Inactive)
REMARK    1  A    between atoms: O1_2  and  C2_3 
REMARK    2  A    between atoms: C6_11  and  N3_12 
REMARK    3  A    between atoms: N3_12  and  C7_13 
REMARK    4  A    between atoms: C15_23  and  O2_24 
REMARK    5  A    between atoms: O2_24  and  C16_25 
REMARK    6  A    between atoms: C16_25  and  C17_26 
REMARK    7  A    between atoms: C17_26  and  C18_27 
REMARK    8  A    between atoms: C18_27  and  N4_28 
ROOT
HETATM    1  C2  UNL     1       4.588  -7.667  28.126  1.00  0.00     0.103 A 
HETATM    2  C3  UNL     1       4.138  -6.419  28.572  1.00  0.00     0.070 A 
HETATM    3  C4  UNL     1       4.929  -5.587  29.358  1.00  0.00     0.050 A 
HETATM    4  N1  UNL     1       4.421  -4.417  29.754  1.00  0.00    -0.351 N 
ATOM      5  H1  UNL     1       3.479  -4.128  29.490  1.00  0.00     0.166 HD
HETATM    6  C5  UNL     1       5.204  -3.644  30.512  1.00  0.00     0.182 A 
HETATM    7  N2  UNL     1       6.449  -3.925  30.901  1.00  0.00    -0.338 N 
ATOM      8  H2  UNL     1       6.986  -3.280  31.482  1.00  0.00     0.168 HD
HETATM    9  C6  UNL     1       6.964  -5.097  30.490  1.00  0.00     0.119 A 
HETATM   10  C13 UNL     1       6.221  -6.001  29.704  1.00  0.00     0.038 A 
HETATM   11  C14 UNL     1       6.682  -7.268  29.266  1.00  0.00     0.057 A 
HETATM   12  C15 UNL     1       5.862  -8.099  28.503  1.00  0.00     0.103 A 
ENDROOT
BRANCH   9  13
HETATM   13  N3  UNL     1       8.297  -5.436  30.850  1.00  0.00    -0.342 N 
HETATM   14  H6  UNL     1       8.843  -5.555  30.002  1.00  0.00     0.167 HD
BRANCH  13  15
HETATM   15  C7  UNL     1       9.077  -4.921  31.910  1.00  0.00     0.035 A 
HETATM   16  C8  UNL     1      10.418  -4.584  31.666  1.00  0.00     0.031 A 
HETATM   17  C9  UNL     1      11.247  -4.131  32.697  1.00  0.00     0.028 A 
HETATM   18  C10 UNL     1      10.756  -4.032  33.999  1.00  0.00     0.055 A 
HETATM   19 CL1  UNL     1      11.834  -3.471  35.225  1.00  0.00    -0.083 Cl
HETATM   20  C11 UNL     1       9.433  -4.398  34.266  1.00  0.00     0.058 A 
HETATM   21 CL2  UNL     1       8.761  -4.336  35.858  1.00  0.00    -0.082 Cl
HETATM   22  C12 UNL     1       8.609  -4.848  33.227  1.00  0.00     0.055 A 
ENDBRANCH  13  15
ENDBRANCH   9  13
BRANCH  12  23
HETATM   23  O2  UNL     1       6.309  -9.307  28.037  1.00  0.00    -0.348 OA
BRANCH  23  24
HETATM   24  C16 UNL     1       7.688  -9.577  28.324  1.00  0.00     0.177 C 
BRANCH  24  25
HETATM   25  C17 UNL     1       8.356 -10.137  27.071  1.00  0.00     0.057 C 
BRANCH  25  26
HETATM   26  C18 UNL     1       9.725  -9.491  26.839  1.00  0.00     0.274 C 
BRANCH  26  27
HETATM   27  N4  UNL     1       9.678  -8.494  25.762  1.00  0.00     0.092 N 
HETATM   28  C19 UNL     1       8.609  -8.750  24.769  1.00  0.00     0.298 C 
HETATM   29  C20 UNL     1       9.128  -9.297  23.428  1.00  0.00     0.198 C 
HETATM   30  O3  UNL     1      10.064  -8.418  22.793  1.00  0.00    -0.388 OA
HETATM   31  C21 UNL     1      10.870  -7.687  23.726  1.00  0.00     0.198 C 
HETATM   32  C22 UNL     1      10.992  -8.381  25.092  1.00  0.00     0.298 C 
ENDBRANCH  26  27
ENDBRANCH  25  26
ENDBRANCH  24  25
ENDBRANCH  23  24
ENDBRANCH  12  23
BRANCH   1  33
HETATM   33  O1  UNL     1       3.856  -8.534  27.358  1.00  0.00    -0.353 OA
HETATM   34  C1  UNL     1       2.439  -8.424  27.420  1.00  0.00     0.210 C 
ENDBRANCH   1  33
TORSDOF 8
ENDMDL
MODEL 2
REMARK minimizedAffinity -8.06921959
REMARK  8 active torsions:
REMARK  status: ('A' for Active; 'I' for Inactive)
REMARK    1  A    between atoms: O1_2  and  C2_3 
REMARK    2  A    between atoms: C6_11  and  N3_12 
REMARK    3  A    between atoms: N3_12  and  C7_13 
REMARK    4  A    between atoms: C15_23  and  O2_24 
REMARK    5  A    between atoms: O2_24  and  C16_25 
REMARK    6  A    between atoms: C16_25  and  C17_26 
REMARK    7  A    between atoms: C17_26  and  C18_27 
REMARK    8  A    between atoms: C18_27  and  N4_28 
ROOT
HETATM    1  C2  UNL     1       4.779  -7.896  28.102  1.00  0.00     0.103 A 
HETATM    2  C3  UNL     1       4.287  -6.653  28.515  1.00  0.00     0.070 A 
HETATM    3  C4  UNL     1       5.052  -5.770  29.271  1.00  0.00     0.050 A 
HETATM    4  N1  UNL     1       4.504  -4.609  29.637  1.00  0.00    -0.351 N 
ATOM      5  H1  UNL     1       3.551  -4.361  29.372  1.00  0.00     0.166 HD
HETATM    6  C5  UNL     1       5.263  -3.786  30.367  1.00  0.00     0.182 A 
HETATM    7  N2  UNL     1       6.520  -4.010  30.755  1.00  0.00    -0.338 N 
ATOM      8  H2  UNL     1       7.036  -3.330  31.314  1.00  0.00     0.168 HD
HETATM    9  C6  UNL     1       7.074  -5.175  30.375  1.00  0.00     0.119 A 
HETATM   10  C13 UNL     1       6.360  -6.128  29.620  1.00  0.00     0.038 A 
HETATM   11  C14 UNL     1       6.864  -7.388  29.216  1.00  0.00     0.057 A 
HETATM   12  C15 UNL     1       6.071  -8.270  28.482  1.00  0.00     0.103 A 
ENDROOT
BRANCH   9  13
HETATM   13  N3  UNL     1       8.421  -5.454  30.735  1.00  0.00    -0.342 N 
HETATM   14  H6  UNL     1       8.981  -5.499  29.889  1.00  0.00     0.167 HD
BRANCH  13  15
HETATM   15  C7  UNL     1       9.159  -4.950  31.829  1.00  0.00     0.035 A 
HETATM   16  C8  UNL     1      10.513  -4.628  31.645  1.00  0.00     0.031 A 
HETATM   17  C9  UNL     1      11.301  -4.186  32.712  1.00  0.00     0.028 A 
HETATM   18  C10 UNL     1      10.753  -4.081  33.992  1.00  0.00     0.055 A 
HETATM   19 CL1  UNL     1      11.782  -3.535  35.265  1.00  0.00    -0.083 Cl
HETATM   20  C11 UNL     1       9.416  -4.432  34.200  1.00  0.00     0.058 A 
HETATM   21 CL2  UNL     1       8.674  -4.365  35.761  1.00  0.00    -0.082 Cl
HETATM   22  C12 UNL     1       8.633  -4.873  33.125  1.00  0.00     0.055 A 
ENDBRANCH  13  15
ENDBRANCH   9  13
BRANCH  12  23
HETATM   23  O2  UNL     1       6.559  -9.475  28.048  1.00  0.00    -0.348 OA
BRANCH  23  24
HETATM   24  C16 UNL     1       7.978  -9.622  28.189  1.00  0.00     0.177 C 
BRANCH  24  25
HETATM   25  C17 UNL     1       8.517  -8.465  29.027  1.00  0.00     0.057 C 
BRANCH  25  26
HETATM   26  C18 UNL     1      10.007  -8.236  28.759  1.00  0.00     0.274 C 
BRANCH  26  27
HETATM   27  N4  UNL     1      10.220  -7.315  27.636  1.00  0.00     0.092 N 
HETATM   28  C19 UNL     1      10.993  -7.911  26.522  1.00  0.00     0.298 C 
HETATM   29  C20 UNL     1      12.443  -7.405  26.433  1.00  0.00     0.198 C 
HETATM   30  O3  UNL     1      12.527  -5.985  26.264  1.00  0.00    -0.388 OA
HETATM   31  C21 UNL     1      11.469  -5.277  26.926  1.00  0.00     0.198 C 
HETATM   32  C22 UNL     1      10.858  -6.061  28.097  1.00  0.00     0.298 C 
ENDBRANCH  26  27
ENDBRANCH  25  26
ENDBRANCH  24  25
ENDBRANCH  23  24
ENDBRANCH  12  23
BRANCH   1  33
HETATM   33  O1  UNL     1       4.075  -8.811  27.364  1.00  0.00    -0.353 OA
HETATM   34  C1  UNL     1       2.909  -8.350  26.693  1.00  0.00     0.210 C 
ENDBRANCH   1  33
TORSDOF 8
ENDMDL
MODEL 3
REMARK minimizedAffinity -7.99925995
REMARK  8 active torsions:
REMARK  status: ('A' for Active; 'I' for Inactive)
REMARK    1  A    between atoms: O1_2  and  C2_3 
REMARK    2  A    between atoms: C6_11  and  N3_12 
REMARK    3  A    between atoms: N3_12  and  C7_13 
REMARK    4  A    between atoms: C15_23  and  O2_24 
REMARK    5  A    between atoms: O2_24  and  C16_25 
REMARK    6  A    between atoms: C16_25  and  C17_26 
REMARK    7  A    between atoms: C17_26  and  C18_27 
REMARK    8  A    between atoms: C18_27  and  N4_28 
ROOT
HETATM    1  C2  UNL     1       4.673  -7.621  28.097  1.00  0.00     0.103 A 
HETATM    2  C3  UNL     1       4.232  -6.369  28.540  1.00  0.00     0.070 A 
HETATM    3  C4  UNL     1       5.016  -5.555  29.352  1.00  0.00     0.050 A 
HETATM    4  N1  UNL     1       4.516  -4.380  29.742  1.00  0.00    -0.351 N 
ATOM      5  H1  UNL     1       3.586  -4.073  29.456  1.00  0.00     0.166 HD
HETATM    6  C5  UNL     1       5.291  -3.624  30.526  1.00  0.00     0.182 A 
HETATM    7  N2  UNL     1       6.521  -3.928  30.946  1.00  0.00    -0.338 N 
ATOM      8  H2  UNL     1       7.052  -3.296  31.546  1.00  0.00     0.168 HD
HETATM    9  C6  UNL     1       7.027  -5.106  30.541  1.00  0.00     0.119 A 
HETATM   10  C13 UNL     1       6.291  -5.992  29.729  1.00  0.00     0.038 A 
HETATM   11  C14 UNL     1       6.743  -7.263  29.295  1.00  0.00     0.057 A 
HETATM   12  C15 UNL     1       5.931  -8.076  28.505  1.00  0.00     0.103 A 
ENDROOT
BRANCH   9  13
HETATM   13  N3  UNL     1       8.345  -5.468  30.934  1.00  0.00    -0.342 N 
HETATM   14  H6  UNL     1       8.891  -5.663  30.100  1.00  0.00     0.167 HD
BRANCH  13  15
HETATM   15  C7  UNL     1       9.136  -4.914  31.964  1.00  0.00     0.035 A 
HETATM   16  C8  UNL     1      10.466  -4.561  31.685  1.00  0.00     0.031 A 
HETATM   17  C9  UNL     1      11.308  -4.068  32.687  1.00  0.00     0.028 A 
HETATM   18  C10 UNL     1      10.841  -3.944  33.996  1.00  0.00     0.055 A 
HETATM   19 CL1  UNL     1      11.933  -3.335  35.186  1.00  0.00    -0.083 Cl
HETATM   20  C11 UNL     1       9.530  -4.324  34.299  1.00  0.00     0.058 A 
HETATM   21 CL2  UNL     1       8.888  -4.233  35.903  1.00  0.00    -0.082 Cl
HETATM   22  C12 UNL     1       8.693  -4.815  33.289  1.00  0.00     0.055 A 
ENDBRANCH  13  15
ENDBRANCH   9  13
BRANCH  12  23
HETATM   23  O2  UNL     1       6.370  -9.288  28.043  1.00  0.00    -0.348 OA
BRANCH  23  24
HETATM   24  C16 UNL     1       7.735  -9.292  27.602  1.00  0.00     0.177 C 
BRANCH  24  25
HETATM   25  C17 UNL     1       8.642  -9.580  28.795  1.00  0.00     0.057 C 
BRANCH  25  26
HETATM   26  C18 UNL     1       9.916 -10.309  28.358  1.00  0.00     0.274 C 
BRANCH  26  27
HETATM   27  N4  UNL     1      11.098  -9.444  28.463  1.00  0.00     0.092 N 
HETATM   28  C19 UNL     1      12.335 -10.177  28.816  1.00  0.00     0.298 C 
HETATM   29  C20 UNL     1      12.789  -9.963  30.271  1.00  0.00     0.198 C 
HETATM   30  O3  UNL     1      13.036  -8.585  30.579  1.00  0.00    -0.388 OA
HETATM   31  C21 UNL     1      12.175  -7.687  29.866  1.00  0.00     0.198 C 
HETATM   32  C22 UNL     1      10.858  -8.340  29.419  1.00  0.00     0.298 C 
ENDBRANCH  26  27
ENDBRANCH  25  26
ENDBRANCH  24  25
ENDBRANCH  23  24
ENDBRANCH  12  23
BRANCH   1  33
HETATM   33  O1  UNL     1       3.949  -8.471  27.305  1.00  0.00    -0.353 OA
HETATM   34  C1  UNL     1       2.534  -8.447  27.445  1.00  0.00     0.210 C 
ENDBRANCH   1  33
TORSDOF 8
ENDMDL
MODEL 4
REMARK minimizedAffinity -7.95016289
REMARK  8 active torsions:
REMARK  status: ('A' for Active; 'I' for Inactive)
REMARK    1  A    between atoms: O1_2  and  C2_3 
REMARK    2  A    between atoms: C6_11  and  N3_12 
REMARK    3  A    between atoms: N3_12  and  C7_13 
REMARK    4  A    between atoms: C15_23  and  O2_24 
REMARK    5  A    between atoms: O2_24  and  C16_25 
REMARK    6  A    between atoms: C16_25  and  C17_26 
REMARK    7  A    between atoms: C17_26  and  C18_27 
REMARK    8  A    between atoms: C18_27  and  N4_28 
ROOT
HETATM    1  C2  UNL     1       9.600  -7.010  27.403  1.00  0.00     0.103 A 
HETATM    2  C3  UNL     1       8.289  -6.588  27.154  1.00  0.00     0.070 A 
HETATM    3  C4  UNL     1       7.466  -6.102  28.165  1.00  0.00     0.050 A 
HETATM    4  N1  UNL     1       6.223  -5.732  27.847  1.00  0.00    -0.351 N 
ATOM      5  H1  UNL     1       5.875  -5.795  26.891  1.00  0.00     0.166 HD
HETATM    6  C5  UNL     1       5.456  -5.275  28.842  1.00  0.00     0.182 A 
HETATM    7  N2  UNL     1       5.819  -5.142  30.119  1.00  0.00    -0.338 N 
ATOM      8  H2  UNL     1       5.173  -4.784  30.823  1.00  0.00     0.168 HD
HETATM    9  C6  UNL     1       7.075  -5.503  30.435  1.00  0.00     0.119 A 
HETATM   10  C13 UNL     1       7.966  -6.018  29.470  1.00  0.00     0.038 A 
HETATM   11  C14 UNL     1       9.288  -6.453  29.734  1.00  0.00     0.057 A 
HETATM   12  C15 UNL     1      10.087  -6.963  28.712  1.00  0.00     0.103 A 
ENDROOT
BRANCH   9  13
HETATM   13  N3  UNL     1       7.525  -5.356  31.775  1.00  0.00    -0.342 N 
HETATM   14  H6  UNL     1       7.444  -6.253  32.246  1.00  0.00     0.167 HD
BRANCH  13  15
HETATM   15  C7  UNL     1       8.623  -4.607  32.254  1.00  0.00     0.035 A 
HETATM   16  C8  UNL     1       9.432  -5.155  33.263  1.00  0.00     0.031 A 
HETATM   17  C9  UNL     1      10.491  -4.427  33.814  1.00  0.00     0.028 A 
HETATM   18  C10 UNL     1      10.745  -3.125  33.383  1.00  0.00     0.055 A 
HETATM   19 CL1  UNL     1      12.064  -2.281  34.109  1.00  0.00    -0.083 Cl
HETATM   20  C11 UNL     1       9.928  -2.551  32.405  1.00  0.00     0.058 A 
HETATM   21 CL2  UNL     1      10.156  -0.931  31.843  1.00  0.00    -0.082 Cl
HETATM   22  C12 UNL     1       8.870  -3.287  31.857  1.00  0.00     0.055 A 
ENDBRANCH  13  15
ENDBRANCH   9  13
BRANCH  12  23
HETATM   23  O2  UNL     1      11.382  -7.348  28.944  1.00  0.00    -0.348 OA
BRANCH  23  24
HETATM   24  C16 UNL     1      11.518  -8.681  29.453  1.00  0.00     0.177 C 
BRANCH  24  25
HETATM   25  C17 UNL     1      12.657  -8.711  30.469  1.00  0.00     0.057 C 
BRANCH  25  26
HETATM   26  C18 UNL     1      13.686  -9.789  30.113  1.00  0.00     0.274 C 
BRANCH  26  27
HETATM   27  N4  UNL     1      14.599 -10.055  31.231  1.00  0.00     0.092 N 
HETATM   28  C19 UNL     1      15.877 -10.676  30.814  1.00  0.00     0.298 C 
HETATM   29  C20 UNL     1      15.981 -12.173  31.155  1.00  0.00     0.198 C 
HETATM   30  O3  UNL     1      15.846 -12.434  32.557  1.00  0.00    -0.388 OA
HETATM   31  C21 UNL     1      14.960 -11.520  33.217  1.00  0.00     0.198 C 
HETATM   32  C22 UNL     1      13.936 -10.880  32.267  1.00  0.00     0.298 C 
ENDBRANCH  26  27
ENDBRANCH  25  26
ENDBRANCH  24  25
ENDBRANCH  23  24
ENDBRANCH  12  23
BRANCH   1  33
HETATM   33  O1  UNL     1      10.456  -7.505  26.454  1.00  0.00    -0.353 OA
HETATM   34  C1  UNL     1      10.081  -7.349  25.092  1.00  0.00     0.210 C 
ENDBRANCH   1  33
TORSDOF 8
ENDMDL
MODEL 5
REMARK minimizedAffinity -7.91428232
REMARK  8 active torsions:
REMARK  status: ('A' for Active; 'I' for Inactive)
REMARK    1  A    between atoms: O1_2  and  C2_3 
REMARK    2  A    between atoms: C6_11  and  N3_12 
REMARK    3  A    between atoms: N3_12  and  C7_13 
REMARK    4  A    between atoms: C15_23  and  O2_24 
REMARK    5  A    between atoms: O2_24  and  C16_25 
REMARK    6  A    between atoms: C16_25  and  C17_26 
REMARK    7  A    between atoms: C17_26  and  C18_27 
REMARK    8  A    between atoms: C18_27  and  N4_28 
ROOT
HETATM    1  C2  UNL     1      10.256  -4.269  32.499  1.00  0.00     0.103 A 
HETATM    2  C3  UNL     1       9.168  -3.390  32.529  1.00  0.00     0.070 A 
HETATM    3  C4  UNL     1       8.014  -3.618  31.787  1.00  0.00     0.050 A 
HETATM    4  N1  UNL     1       7.025  -2.724  31.862  1.00  0.00    -0.351 N 
ATOM      5  H1  UNL     1       7.100  -1.892  32.447  1.00  0.00     0.166 HD
HETATM    6  C5  UNL     1       5.932  -2.969  31.132  1.00  0.00     0.182 A 
HETATM    7  N2  UNL     1       5.731  -4.029  30.346  1.00  0.00    -0.338 N 
ATOM      8  H2  UNL     1       4.866  -4.146  29.818  1.00  0.00     0.168 HD
HETATM    9  C6  UNL     1       6.723  -4.935  30.282  1.00  0.00     0.119 A 
HETATM   10  C13 UNL     1       7.929  -4.769  30.994  1.00  0.00     0.038 A 
HETATM   11  C14 UNL     1       9.029  -5.659  30.947  1.00  0.00     0.057 A 
HETATM   12  C15 UNL     1      10.189  -5.398  31.677  1.00  0.00     0.103 A 
ENDROOT
BRANCH   9  13
HETATM   13  N3  UNL     1       6.552  -6.098  29.484  1.00  0.00    -0.342 N 
HETATM   14  H6  UNL     1       7.117  -6.847  29.874  1.00  0.00     0.167 HD
BRANCH  13  15
HETATM   15  C7  UNL     1       5.367  -6.587  28.889  1.00  0.00     0.035 A 
HETATM   16  C8  UNL     1       4.160  -5.908  29.118  1.00  0.00     0.031 A 
HETATM   17  C9  UNL     1       2.952  -6.390  28.605  1.00  0.00     0.028 A 
HETATM   18  C10 UNL     1       2.926  -7.577  27.872  1.00  0.00     0.055 A 
HETATM   19 CL1  UNL     1       1.401  -8.118  27.271  1.00  0.00    -0.083 Cl
HETATM   20  C11 UNL     1       4.113  -8.285  27.665  1.00  0.00     0.058 A 
HETATM   21 CL2  UNL     1       4.158  -9.781  26.798  1.00  0.00    -0.082 Cl
HETATM   22  C12 UNL     1       5.319  -7.795  28.182  1.00  0.00     0.055 A 
ENDBRANCH  13  15
ENDBRANCH   9  13
BRANCH  12  23
HETATM   23  O2  UNL     1      11.244  -6.272  31.675  1.00  0.00    -0.348 OA
BRANCH  23  24
HETATM   24  C16 UNL     1      11.797  -6.526  30.377  1.00  0.00     0.177 C 
BRANCH  24  25
HETATM   25  C17 UNL     1      11.783  -8.030  30.117  1.00  0.00     0.057 C 
BRANCH  25  26
HETATM   26  C18 UNL     1      13.056  -8.477  29.391  1.00  0.00     0.274 C 
BRANCH  26  27
HETATM   27  N4  UNL     1      13.434  -9.847  29.755  1.00  0.00     0.092 N 
HETATM   28  C19 UNL     1      12.843 -10.877  28.870  1.00  0.00     0.298 C 
HETATM   29  C20 UNL     1      11.688 -11.663  29.517  1.00  0.00     0.198 C 
HETATM   30  O3  UNL     1      12.081 -12.341  30.717  1.00  0.00    -0.388 OA
HETATM   31  C21 UNL     1      13.086 -11.636  31.458  1.00  0.00     0.198 C 
HETATM   32  C22 UNL     1      13.101 -10.127  31.170  1.00  0.00     0.298 C 
ENDBRANCH  26  27
ENDBRANCH  25  26
ENDBRANCH  24  25
ENDBRANCH  23  24
ENDBRANCH  12  23
BRANCH   1  33
HETATM   33  O1  UNL     1      11.421  -4.098  33.199  1.00  0.00    -0.353 OA
HETATM   34  C1  UNL     1      11.696  -2.795  33.699  1.00  0.00     0.210 C 
ENDBRANCH   1  33
TORSDOF 8
ENDMDL
MODEL 6
REMARK minimizedAffinity -7.86009836
REMARK  8 active torsions:
REMARK  status: ('A' for Active; 'I' for Inactive)
REMARK    1  A    between atoms: O1_2  and  C2_3 
REMARK    2  A    between atoms: C6_11  and  N3_12 
REMARK    3  A    between atoms: N3_12  and  C7_13 
REMARK    4  A    between atoms: C15_23  and  O2_24 
REMARK    5  A    between atoms: O2_24  and  C16_25 
REMARK    6  A    between atoms: C16_25  and  C17_26 
REMARK    7  A    between atoms: C17_26  and  C18_27 
REMARK    8  A    between atoms: C18_27  and  N4_28 
ROOT
HETATM    1  C2  UNL     1       7.973  -8.951  28.657  1.00  0.00     0.103 A 
HETATM    2  C3  UNL     1       6.779  -8.282  28.946  1.00  0.00     0.070 A 
HETATM    3  C4  UNL     1       6.761  -7.002  29.489  1.00  0.00     0.050 A 
HETATM    4  N1  UNL     1       5.579  -6.438  29.747  1.00  0.00    -0.351 N 
ATOM      5  H1  UNL     1       4.702  -6.922  29.552  1.00  0.00     0.166 HD
HETATM    6  C5  UNL     1       5.597  -5.210  30.275  1.00  0.00     0.182 A 
HETATM    7  N2  UNL     1       6.685  -4.490  30.556  1.00  0.00    -0.338 N 
ATOM      8  H2  UNL     1       6.617  -3.555  30.960  1.00  0.00     0.168 HD
HETATM    9  C6  UNL     1       7.875  -5.054  30.284  1.00  0.00     0.119 A 
HETATM   10  C13 UNL     1       7.976  -6.353  29.745  1.00  0.00     0.038 A 
HETATM   11  C14 UNL     1       9.191  -7.026  29.468  1.00  0.00     0.057 A 
HETATM   12  C15 UNL     1       9.186  -8.320  28.949  1.00  0.00     0.103 A 
ENDROOT
BRANCH   9  13
HETATM   13  N3  UNL     1       9.066  -4.321  30.537  1.00  0.00    -0.342 N 
HETATM   14  H6  UNL     1       9.070  -3.494  29.947  1.00  0.00     0.167 HD
BRANCH  13  15
HETATM   15  C7  UNL     1       9.707  -4.089  31.774  1.00  0.00     0.035 A 
HETATM   16  C8  UNL     1      11.078  -3.786  31.784  1.00  0.00     0.031 A 
HETATM   17  C9  UNL     1      11.770  -3.611  32.986  1.00  0.00     0.028 A 
HETATM   18  C10 UNL     1      11.107  -3.761  34.204  1.00  0.00     0.055 A 
HETATM   19 CL1  UNL     1      12.021  -3.536  35.651  1.00  0.00    -0.083 Cl
HETATM   20  C11 UNL     1       9.750  -4.097  34.214  1.00  0.00     0.058 A 
HETATM   21 CL2  UNL     1       8.866  -4.335  35.681  1.00  0.00    -0.082 Cl
HETATM   22  C12 UNL     1       9.064  -4.269  33.005  1.00  0.00     0.055 A 
ENDBRANCH  13  15
ENDBRANCH   9  13
BRANCH  12  23
HETATM   23  O2  UNL     1      10.353  -8.967  28.635  1.00  0.00    -0.348 OA
BRANCH  23  24
HETATM   24  C16 UNL     1      11.496  -8.512  29.372  1.00  0.00     0.177 C 
BRANCH  24  25
HETATM   25  C17 UNL     1      12.158  -9.708  30.051  1.00  0.00     0.057 C 
BRANCH  25  26
HETATM   26  C18 UNL     1      13.638  -9.433  30.333  1.00  0.00     0.274 C 
BRANCH  26  27
HETATM   27  N4  UNL     1      14.294 -10.590  30.955  1.00  0.00     0.092 N 
HETATM   28  C19 UNL     1      13.424 -11.322  31.904  1.00  0.00     0.298 C 
HETATM   29  C20 UNL     1      13.780 -11.083  33.382  1.00  0.00     0.198 C 
HETATM   30  O3  UNL     1      15.126 -11.460  33.698  1.00  0.00    -0.388 OA
HETATM   31  C21 UNL     1      16.037 -11.254  32.610  1.00  0.00     0.198 C 
HETATM   32  C22 UNL     1      15.557 -10.188  31.613  1.00  0.00     0.298 C 
ENDBRANCH  26  27
ENDBRANCH  25  26
ENDBRANCH  24  25
ENDBRANCH  23  24
ENDBRANCH  12  23
BRANCH   1  33
HETATM   33  O1  UNL     1       8.057 -10.212  28.130  1.00  0.00    -0.353 OA
HETATM   34  C1  UNL     1       7.502 -10.417  26.837  1.00  0.00     0.210 C 
ENDBRANCH   1  33
TORSDOF 8
ENDMDL
MODEL 7
REMARK minimizedAffinity -7.82112837
REMARK  8 active torsions:
REMARK  status: ('A' for Active; 'I' for Inactive)
REMARK    1  A    between atoms: O1_2  and  C2_3 
REMARK    2  A    between atoms: C6_11  and  N3_12 
REMARK    3  A    between atoms: N3_12  and  C7_13 
REMARK    4  A    between atoms: C15_23  and  O2_24 
REMARK    5  A    between atoms: O2_24  and  C16_25 
REMARK    6  A    between atoms: C16_25  and  C17_26 
REMARK    7  A    between atoms: C17_26  and  C18_27 
REMARK    8  A    between atoms: C18_27  and  N4_28 
ROOT
HETATM    1  C2  UNL     1       9.847  -5.179  28.004  1.00  0.00     0.103 A 
HETATM    2  C3  UNL     1       9.680  -5.878  26.803  1.00  0.00     0.070 A 
HETATM    3  C4  UNL     1       8.559  -6.665  26.557  1.00  0.00     0.050 A 
HETATM    4  N1  UNL     1       8.482  -7.310  25.391  1.00  0.00    -0.351 N 
ATOM      5  H1  UNL     1       9.216  -7.233  24.688  1.00  0.00     0.166 HD
HETATM    6  C5  UNL     1       7.396  -8.062  25.188  1.00  0.00     0.182 A 
HETATM    7  N2  UNL     1       6.377  -8.220  26.036  1.00  0.00    -0.338 N 
ATOM      8  H2  UNL     1       5.579  -8.814  25.808  1.00  0.00     0.168 HD
HETATM    9  C6  UNL     1       6.451  -7.559  27.205  1.00  0.00     0.119 A 
HETATM   10  C13 UNL     1       7.560  -6.753  27.534  1.00  0.00     0.038 A 
HETATM   11  C14 UNL     1       7.725  -6.058  28.757  1.00  0.00     0.057 A 
HETATM   12  C15 UNL     1       8.869  -5.297  28.995  1.00  0.00     0.103 A 
ENDROOT
BRANCH   9  13
HETATM   13  N3  UNL     1       5.381  -7.667  28.134  1.00  0.00    -0.342 N 
HETATM   14  H6  UNL     1       5.525  -6.989  28.877  1.00  0.00     0.167 HD
BRANCH  13  15
HETATM   15  C7  UNL     1       4.008  -7.874  27.870  1.00  0.00     0.035 A 
HETATM   16  C8  UNL     1       3.094  -6.855  28.182  1.00  0.00     0.031 A 
HETATM   17  C9  UNL     1       1.720  -7.038  27.999  1.00  0.00     0.028 A 
HETATM   18  C10 UNL     1       1.232  -8.255  27.524  1.00  0.00     0.055 A 
HETATM   19 CL1  UNL     1      -0.475  -8.416  27.327  1.00  0.00    -0.083 Cl
HETATM   20  C11 UNL     1       2.125  -9.293  27.243  1.00  0.00     0.058 A 
HETATM   21 CL2  UNL     1       1.596 -10.843  26.685  1.00  0.00    -0.082 Cl
HETATM   22  C12 UNL     1       3.500  -9.102  27.428  1.00  0.00     0.055 A 
ENDBRANCH  13  15
ENDBRANCH   9  13
BRANCH  12  23
HETATM   23  O2  UNL     1       9.023  -4.585  30.156  1.00  0.00    -0.348 OA
BRANCH  23  24
HETATM   24  C16 UNL     1       8.087  -4.928  31.187  1.00  0.00     0.177 C 
BRANCH  24  25
HETATM   25  C17 UNL     1       8.113  -3.846  32.262  1.00  0.00     0.057 C 
BRANCH  25  26
HETATM   26  C18 UNL     1       9.331  -4.004  33.177  1.00  0.00     0.274 C 
BRANCH  26  27
HETATM   27  N4  UNL     1      10.113  -2.764  33.257  1.00  0.00     0.092 N 
HETATM   28  C19 UNL     1       9.558  -1.664  32.436  1.00  0.00     0.298 C 
HETATM   29  C20 UNL     1      10.360  -1.381  31.154  1.00  0.00     0.198 C 
HETATM   30  O3  UNL     1      11.726  -1.037  31.418  1.00  0.00    -0.388 OA
HETATM   31  C21 UNL     1      12.262  -1.703  32.569  1.00  0.00     0.198 C 
HETATM   32  C22 UNL     1      11.529  -3.011  32.904  1.00  0.00     0.298 C 
ENDBRANCH  26  27
ENDBRANCH  25  26
ENDBRANCH  24  25
ENDBRANCH  23  24
ENDBRANCH  12  23
BRANCH   1  33
HETATM   33  O1  UNL     1      10.929  -4.395  28.309  1.00  0.00    -0.353 OA
HETATM   34  C1  UNL     1      11.322  -3.423  27.349  1.00  0.00     0.210 C 
ENDBRANCH   1  33
TORSDOF 8
ENDMDL
MODEL 8
REMARK minimizedAffinity -7.74182224
REMARK  8 active torsions:
REMARK  status: ('A' for Active; 'I' for Inactive)
REMARK    1  A    between atoms: O1_2  and  C2_3 
REMARK    2  A    between atoms: C6_11  and  N3_12 
REMARK    3  A    between atoms: N3_12  and  C7_13 
REMARK    4  A    between atoms: C15_23  and  O2_24 
REMARK    5  A    between atoms: O2_24  and  C16_25 
REMARK    6  A    between atoms: C16_25  and  C17_26 
REMARK    7  A    between atoms: C17_26  and  C18_27 
REMARK    8  A    between atoms: C18_27  and  N4_28 
ROOT
HETATM    1  C2  UNL     1       9.381  -7.016  27.784  1.00  0.00     0.103 A 
HETATM    2  C3  UNL     1       8.061  -6.556  27.720  1.00  0.00     0.070 A 
HETATM    3  C4  UNL     1       7.470  -5.858  28.769  1.00  0.00     0.050 A 
HETATM    4  N1  UNL     1       6.201  -5.464  28.634  1.00  0.00    -0.351 N 
ATOM      5  H1  UNL     1       5.669  -5.660  27.787  1.00  0.00     0.166 HD
HETATM    6  C5  UNL     1       5.662  -4.802  29.662  1.00  0.00     0.182 A 
HETATM    7  N2  UNL     1       6.275  -4.486  30.804  1.00  0.00    -0.338 N 
ATOM      8  H2  UNL     1       5.794  -3.976  31.546  1.00  0.00     0.168 HD
HETATM    9  C6  UNL     1       7.557  -4.872  30.933  1.00  0.00     0.119 A 
HETATM   10  C13 UNL     1       8.221  -5.595  29.921  1.00  0.00     0.038 A 
HETATM   11  C14 UNL     1       9.555  -6.066  30.000  1.00  0.00     0.057 A 
HETATM   12  C15 UNL     1      10.119  -6.788  28.949  1.00  0.00     0.103 A 
ENDROOT
BRANCH   9  13
HETATM   13  N3  UNL     1       8.268  -4.537  32.117  1.00  0.00    -0.342 N 
HETATM   14  H6  UNL     1       8.386  -5.379  32.675  1.00  0.00     0.167 HD
BRANCH  13  15
HETATM   15  C7  UNL     1       9.358  -3.651  32.265  1.00  0.00     0.035 A 
HETATM   16  C8  UNL     1       9.645  -2.747  31.230  1.00  0.00     0.031 A 
HETATM   17  C9  UNL     1      10.751  -1.895  31.302  1.00  0.00     0.028 A 
HETATM   18  C10 UNL     1      11.608  -1.949  32.402  1.00  0.00     0.055 A 
HETATM   19 CL1  UNL     1      12.957  -0.874  32.425  1.00  0.00    -0.083 Cl
HETATM   20  C11 UNL     1      11.358  -2.869  33.425  1.00  0.00     0.058 A 
HETATM   21 CL2  UNL     1      12.391  -3.022  34.803  1.00  0.00    -0.082 Cl
HETATM   22  C12 UNL     1      10.246  -3.718  33.346  1.00  0.00     0.055 A 
ENDBRANCH  13  15
ENDBRANCH   9  13
BRANCH  12  23
HETATM   23  O2  UNL     1      11.420  -7.213  28.994  1.00  0.00    -0.348 OA
BRANCH  23  24
HETATM   24  C16 UNL     1      11.746  -7.993  30.152  1.00  0.00     0.177 C 
BRANCH  24  25
HETATM   25  C17 UNL     1      12.570  -9.204  29.720  1.00  0.00     0.057 C 
BRANCH  25  26
HETATM   26  C18 UNL     1      13.861  -9.312  30.537  1.00  0.00     0.274 C 
BRANCH  26  27
HETATM   27  N4  UNL     1      14.198 -10.710  30.834  1.00  0.00     0.092 N 
HETATM   28  C19 UNL     1      13.625 -11.196  32.110  1.00  0.00     0.298 C 
HETATM   29  C20 UNL     1      14.659 -11.334  33.241  1.00  0.00     0.198 C 
HETATM   30  O3  UNL     1      15.727 -12.230  32.913  1.00  0.00    -0.388 OA
HETATM   31  C21 UNL     1      16.061 -12.220  31.518  1.00  0.00     0.198 C 
HETATM   32  C22 UNL     1      15.664 -10.914  30.812  1.00  0.00     0.298 C 
ENDBRANCH  26  27
ENDBRANCH  25  26
ENDBRANCH  24  25
ENDBRANCH  23  24
ENDBRANCH  12  23
BRANCH   1  33
HETATM   33  O1  UNL     1      10.015  -7.714  26.791  1.00  0.00    -0.353 OA
HETATM   34  C1  UNL     1      10.729  -6.961  25.818  1.00  0.00     0.210 C 
ENDBRANCH   1  33
TORSDOF 8
ENDMDL
MODEL 9
REMARK minimizedAffinity -7.6641407
REMARK  8 active torsions:
REMARK  status: ('A' for Active; 'I' for Inactive)
REMARK    1  A    between atoms: O1_2  and  C2_3 
REMARK    2  A    between atoms: C6_11  and  N3_12 
REMARK    3  A    between atoms: N3_12  and  C7_13 
REMARK    4  A    between atoms: C15_23  and  O2_24 
REMARK    5  A    between atoms: O2_24  and  C16_25 
REMARK    6  A    between atoms: C16_25  and  C17_26 
REMARK    7  A    between atoms: C17_26  and  C18_27 
REMARK    8  A    between atoms: C18_27  and  N4_28 
ROOT
HETATM    1  C2  UNL     1      10.175  -7.903  26.383  1.00  0.00     0.103 A 
HETATM    2  C3  UNL     1      10.250  -6.542  26.067  1.00  0.00     0.070 A 
HETATM    3  C4  UNL     1      10.683  -5.593  26.988  1.00  0.00     0.050 A 
HETATM    4  N1  UNL     1      10.713  -4.312  26.612  1.00  0.00    -0.351 N 
ATOM      5  H1  UNL     1      10.432  -4.024  25.675  1.00  0.00     0.166 HD
HETATM    6  C5  UNL     1      11.128  -3.425  27.521  1.00  0.00     0.182 A 
HETATM    7  N2  UNL     1      11.526  -3.700  28.765  1.00  0.00    -0.338 N 
ATOM      8  H2  UNL     1      11.830  -2.964  29.403  1.00  0.00     0.168 HD
HETATM    9  C6  UNL     1      11.507  -4.992  29.138  1.00  0.00     0.119 A 
HETATM   10  C13 UNL     1      11.069  -6.010  28.267  1.00  0.00     0.038 A 
HETATM   11  C14 UNL     1      10.986  -7.385  28.601  1.00  0.00     0.057 A 
HETATM   12  C15 UNL     1      10.523  -8.316  27.672  1.00  0.00     0.103 A 
ENDROOT
BRANCH   9  13
HETATM   13  N3  UNL     1      11.948  -5.346  30.442  1.00  0.00    -0.342 N 
HETATM   14  H6  UNL     1      12.950  -5.190  30.500  1.00  0.00     0.167 HD
BRANCH  13  15
HETATM   15  C7  UNL     1      11.306  -5.111  31.678  1.00  0.00     0.035 A 
HETATM   16  C8  UNL     1      10.047  -5.687  31.911  1.00  0.00     0.031 A 
HETATM   17  C9  UNL     1       9.345  -5.432  33.093  1.00  0.00     0.028 A 
HETATM   18  C10 UNL     1       9.879  -4.575  34.055  1.00  0.00     0.055 A 
HETATM   19 CL1  UNL     1       8.958  -4.300  35.489  1.00  0.00    -0.083 Cl
HETATM   20  C11 UNL     1      11.116  -3.965  33.824  1.00  0.00     0.058 A 
HETATM   21 CL2  UNL     1      11.829  -2.864  34.951  1.00  0.00    -0.082 Cl
HETATM   22  C12 UNL     1      11.814  -4.227  32.638  1.00  0.00     0.055 A 
ENDBRANCH  13  15
ENDBRANCH   9  13
BRANCH  12  23
HETATM   23  O2  UNL     1      10.478  -9.654  27.966  1.00  0.00    -0.348 OA
BRANCH  23  24
HETATM   24  C16 UNL     1      11.729 -10.206  28.395  1.00  0.00     0.177 C 
BRANCH  24  25
HETATM   25  C17 UNL     1      11.555 -10.809  29.787  1.00  0.00     0.057 C 
BRANCH  25  26
HETATM   26  C18 UNL     1      12.775 -11.647  30.182  1.00  0.00     0.274 C 
BRANCH  26  27
HETATM   27  N4  UNL     1      13.602 -10.961  31.183  1.00  0.00     0.092 N 
HETATM   28  C19 UNL     1      15.054 -11.184  30.999  1.00  0.00     0.298 C 
HETATM   29  C20 UNL     1      15.669 -12.149  32.028  1.00  0.00     0.198 C 
HETATM   30  O3  UNL     1      15.497 -11.705  33.380  1.00  0.00    -0.388 OA
HETATM   31  C21 UNL     1      14.273 -10.987  33.584  1.00  0.00     0.198 C 
HETATM   32  C22 UNL     1      13.189 -11.337  32.553  1.00  0.00     0.298 C 
ENDBRANCH  26  27
ENDBRANCH  25  26
ENDBRANCH  24  25
ENDBRANCH  23  24
ENDBRANCH  12  23
BRANCH   1  33
HETATM   33  O1  UNL     1       9.751  -8.884  25.525  1.00  0.00    -0.353 OA
HETATM   34  C1  UNL     1       9.501  -8.508  24.177  1.00  0.00     0.210 C 
ENDBRANCH   1  33
TORSDOF 8
ENDMDL
