MODEL 1
REMARK minimizedAffinity -10.162715
REMARK CNNscore 0.902863204
REMARK CNNaffinity 7.59124899
REMARK  4 active torsions:
REMARK  status: ('A' for Active; 'I' for Inactive)
REMARK    1  A    between atoms: O1_2  and  C2_3 
REMARK    2  A    between atoms: C7_8  and  N1_9 
REMARK    3  A    between atoms: N1_9  and  C8_10 
REMARK    4  A    between atoms: C12_16  and  C13_17 
ROOT
HETATM    1  C8  UNL     1       5.006  -5.175  29.118  1.00  0.00     0.684 A 
HETATM    2  N2  UNL     1       4.658  -4.100  29.844  1.00  0.00    -0.201 N 
ATOM      3  H2  UNL     1       3.748  -3.653  29.726  1.00  0.00     0.183 HD
HETATM    4  C9  UNL     1       5.555  -3.636  30.734  1.00  0.00     0.121 A 
HETATM    5  C10 UNL     1       6.793  -4.198  30.932  1.00  0.00     0.026 A 
HETATM    6  C11 UNL     1       7.757  -3.690  31.893  1.00  0.00     0.034 A 
HETATM    7  C12 UNL     1       8.945  -4.301  32.023  1.00  0.00     0.047 A 
HETATM    8  C19 UNL     1       9.287  -5.502  31.186  1.00  0.00     0.260 A 
HETATM    9  O2  UNL     1      10.385  -6.041  31.327  1.00  0.00    -0.267 OA
HETATM   10  N3  UNL     1       8.327  -5.937  30.287  1.00  0.00    -0.303 N 
HETATM   11  C20 UNL     1       8.592  -7.091  29.447  1.00  0.00     0.161 C 
HETATM   12  C21 UNL     1       7.069  -5.297  30.144  1.00  0.00     0.137 A 
HETATM   13  N4  UNL     1       6.191  -5.787  29.245  1.00  0.00    -0.175 N 
ATOM     14  H4  UNL     1       6.424  -6.602  28.676  1.00  0.00     0.186 HD
ENDROOT
BRANCH   1  15
HETATM   15  N1  UNL     1       4.046  -5.612  28.219  1.00  0.00    -0.189 N 
HETATM   16  H8  UNL     1       3.792  -4.875  27.572  1.00  0.00     0.184 HD
BRANCH  15  17
HETATM   17  C7  UNL     1       3.361  -6.819  28.001  1.00  0.00     0.082 A 
HETATM   18  C2  UNL     1       4.092  -7.923  27.499  1.00  0.00     0.095 A 
HETATM   19  C3  UNL     1       3.454  -9.147  27.265  1.00  0.00     0.039 A 
HETATM   20  C4  UNL     1       2.091  -9.287  27.526  1.00  0.00     0.003 A 
HETATM   21  C5  UNL     1       1.363  -8.209  28.018  1.00  0.00     0.002 A 
HETATM   22  C6  UNL     1       1.994  -6.985  28.253  1.00  0.00     0.033 A 
BRANCH  18  23
HETATM   23  O1  UNL     1       5.430  -7.680  27.277  1.00  0.00    -0.354 OA
HETATM   24  C1  UNL     1       5.964  -8.097  26.028  1.00  0.00     0.210 C 
ENDBRANCH  18  23
ENDBRANCH  15  17
ENDBRANCH   1  15
BRANCH   7  25
HETATM   25  C13 UNL     1       9.929  -3.792  32.998  1.00  0.00     0.023 A 
HETATM   26  C14 UNL     1       9.870  -4.173  34.351  1.00  0.00     0.046 A 
HETATM   27 CL1  UNL     1       8.632  -5.224  34.953  1.00  0.00    -0.083 Cl
HETATM   28  C15 UNL     1      10.814  -3.700  35.271  1.00  0.00     0.025 A 
HETATM   29  C16 UNL     1      11.831  -2.844  34.855  1.00  0.00     0.003 A 
HETATM   30  C17 UNL     1      11.904  -2.456  33.520  1.00  0.00     0.025 A 
HETATM   31  C18 UNL     1      10.963  -2.925  32.597  1.00  0.00     0.046 A 
HETATM   32 CL2  UNL     1      11.119  -2.386  30.958  1.00  0.00    -0.083 Cl
ENDBRANCH   7  25
TORSDOF 4
ENDMDL
MODEL 2
REMARK minimizedAffinity -10.1337824
REMARK CNNscore 0.901125312
REMARK CNNaffinity 7.59493113
REMARK  4 active torsions:
REMARK  status: ('A' for Active; 'I' for Inactive)
REMARK    1  A    between atoms: O1_2  and  C2_3 
REMARK    2  A    between atoms: C7_8  and  N1_9 
REMARK    3  A    between atoms: N1_9  and  C8_10 
REMARK    4  A    between atoms: C12_16  and  C13_17 
ROOT
HETATM    1  C8  UNL     1       5.017  -5.142  29.133  1.00  0.00     0.684 A 
HETATM    2  N2  UNL     1       4.683  -4.055  29.846  1.00  0.00    -0.201 N 
ATOM      3  H2  UNL     1       3.779  -3.597  29.723  1.00  0.00     0.183 HD
HETATM    4  C9  UNL     1       5.586  -3.592  30.730  1.00  0.00     0.121 A 
HETATM    5  C10 UNL     1       6.817  -4.168  30.936  1.00  0.00     0.026 A 
HETATM    6  C11 UNL     1       7.787  -3.662  31.891  1.00  0.00     0.034 A 
HETATM    7  C12 UNL     1       8.967  -4.287  32.028  1.00  0.00     0.047 A 
HETATM    8  C19 UNL     1       9.293  -5.502  31.205  1.00  0.00     0.260 A 
HETATM    9  O2  UNL     1      10.383  -6.054  31.353  1.00  0.00    -0.267 OA
HETATM   10  N3  UNL     1       8.327  -5.935  30.311  1.00  0.00    -0.303 N 
HETATM   11  C20 UNL     1       8.576  -7.102  29.485  1.00  0.00     0.161 C 
HETATM   12  C21 UNL     1       7.077  -5.280  30.161  1.00  0.00     0.137 A 
HETATM   13  N4  UNL     1       6.194  -5.768  29.266  1.00  0.00    -0.175 N 
ATOM     14  H4  UNL     1       6.415  -6.592  28.707  1.00  0.00     0.186 HD
ENDROOT
BRANCH   1  15
HETATM   15  N1  UNL     1       4.051  -5.577  28.238  1.00  0.00    -0.189 N 
HETATM   16  H8  UNL     1       3.782  -4.833  27.605  1.00  0.00     0.184 HD
BRANCH  15  17
HETATM   17  C7  UNL     1       3.376  -6.787  28.012  1.00  0.00     0.082 A 
HETATM   18  C2  UNL     1       4.119  -7.885  27.511  1.00  0.00     0.095 A 
HETATM   19  C3  UNL     1       3.491  -9.113  27.268  1.00  0.00     0.039 A 
HETATM   20  C4  UNL     1       2.127  -9.263  27.518  1.00  0.00     0.003 A 
HETATM   21  C5  UNL     1       1.388  -8.191  28.008  1.00  0.00     0.002 A 
HETATM   22  C6  UNL     1       2.009  -6.964  28.252  1.00  0.00     0.033 A 
BRANCH  18  23
HETATM   23  O1  UNL     1       5.457  -7.632  27.301  1.00  0.00    -0.354 OA
HETATM   24  C1  UNL     1       6.000  -8.029  26.049  1.00  0.00     0.210 C 
ENDBRANCH  18  23
ENDBRANCH  15  17
ENDBRANCH   1  15
BRANCH   7  25
HETATM   25  C13 UNL     1       9.957  -3.780  32.998  1.00  0.00     0.023 A 
HETATM   26  C14 UNL     1      10.978  -2.899  32.595  1.00  0.00     0.046 A 
HETATM   27 CL1  UNL     1      11.150  -2.390  30.948  1.00  0.00    -0.083 Cl
HETATM   28  C15 UNL     1      11.907  -2.407  33.520  1.00  0.00     0.025 A 
HETATM   29  C16 UNL     1      11.831  -2.784  34.858  1.00  0.00     0.003 A 
HETATM   30  C17 UNL     1      10.828  -3.656  35.275  1.00  0.00     0.025 A 
HETATM   31  C18 UNL     1       9.897  -4.151  34.354  1.00  0.00     0.046 A 
HETATM   32 CL2  UNL     1       8.690  -5.239  34.952  1.00  0.00    -0.083 Cl
ENDBRANCH   7  25
TORSDOF 4
ENDMDL
MODEL 3
REMARK minimizedAffinity -9.4312048
REMARK CNNscore 0.572971046
REMARK CNNaffinity 7.16393852
REMARK  4 active torsions:
REMARK  status: ('A' for Active; 'I' for Inactive)
REMARK    1  A    between atoms: O1_2  and  C2_3 
REMARK    2  A    between atoms: C7_8  and  N1_9 
REMARK    3  A    between atoms: N1_9  and  C8_10 
REMARK    4  A    between atoms: C12_16  and  C13_17 
ROOT
HETATM    1  C8  UNL     1       5.131  -6.273  28.987  1.00  0.00     0.684 A 
HETATM    2  N2  UNL     1       4.662  -5.208  29.657  1.00  0.00    -0.201 N 
ATOM      3  H2  UNL     1       3.699  -4.890  29.541  1.00  0.00     0.183 HD
HETATM    4  C9  UNL     1       5.511  -4.576  30.489  1.00  0.00     0.121 A 
HETATM    5  C10 UNL     1       6.817  -4.960  30.682  1.00  0.00     0.026 A 
HETATM    6  C11 UNL     1       7.728  -4.273  31.580  1.00  0.00     0.034 A 
HETATM    7  C12 UNL     1       8.988  -4.716  31.709  1.00  0.00     0.047 A 
HETATM    8  C19 UNL     1       9.464  -5.913  30.936  1.00  0.00     0.260 A 
HETATM    9  O2  UNL     1      10.626  -6.296  31.075  1.00  0.00    -0.267 OA
HETATM   10  N3  UNL     1       8.549  -6.525  30.095  1.00  0.00    -0.303 N 
HETATM   11  C20 UNL     1       8.942  -7.687  29.318  1.00  0.00     0.161 C 
HETATM   12  C21 UNL     1       7.215  -6.063  29.953  1.00  0.00     0.137 A 
HETATM   13  N4  UNL     1       6.388  -6.718  29.113  1.00  0.00    -0.175 N 
ATOM     14  H4  UNL     1       6.711  -7.531  28.587  1.00  0.00     0.186 HD
ENDROOT
BRANCH   1  15
HETATM   15  N1  UNL     1       4.215  -6.887  28.146  1.00  0.00    -0.189 N 
HETATM   16  H8  UNL     1       3.499  -6.234  27.850  1.00  0.00     0.184 HD
BRANCH  15  17
HETATM   17  C7  UNL     1       4.057  -8.179  27.619  1.00  0.00     0.082 A 
HETATM   18  C2  UNL     1       2.745  -8.702  27.513  1.00  0.00     0.095 A 
HETATM   19  C3  UNL     1       2.534  -9.986  26.994  1.00  0.00     0.039 A 
HETATM   20  C4  UNL     1       3.618 -10.759  26.578  1.00  0.00     0.003 A 
HETATM   21  C5  UNL     1       4.911 -10.255  26.679  1.00  0.00     0.002 A 
HETATM   22  C6  UNL     1       5.127  -8.976  27.195  1.00  0.00     0.033 A 
BRANCH  18  23
HETATM   23  O1  UNL     1       1.747  -7.859  27.950  1.00  0.00    -0.354 OA
HETATM   24  C1  UNL     1       0.407  -8.252  27.687  1.00  0.00     0.210 C 
ENDBRANCH  18  23
ENDBRANCH  15  17
ENDBRANCH   1  15
BRANCH   7  25
HETATM   25  C13 UNL     1       9.920  -4.023  32.620  1.00  0.00     0.023 A 
HETATM   26  C14 UNL     1       9.910  -4.287  34.002  1.00  0.00     0.046 A 
HETATM   27 CL1  UNL     1       8.793  -5.404  34.713  1.00  0.00    -0.083 Cl
HETATM   28  C15 UNL     1      10.805  -3.639  34.863  1.00  0.00     0.025 A 
HETATM   29  C16 UNL     1      11.723  -2.722  34.358  1.00  0.00     0.003 A 
HETATM   30  C17 UNL     1      11.747  -2.447  32.992  1.00  0.00     0.025 A 
HETATM   31  C18 UNL     1      10.854  -3.092  32.128  1.00  0.00     0.046 A 
HETATM   32 CL2  UNL     1      10.942  -2.686  30.447  1.00  0.00    -0.083 Cl
ENDBRANCH   7  25
TORSDOF 4
ENDMDL
MODEL 4
REMARK minimizedAffinity -8.58046532
REMARK CNNscore 0.272999495
REMARK CNNaffinity 6.82212639
REMARK  4 active torsions:
REMARK  status: ('A' for Active; 'I' for Inactive)
REMARK    1  A    between atoms: O1_2  and  C2_3 
REMARK    2  A    between atoms: C7_8  and  N1_9 
REMARK    3  A    between atoms: N1_9  and  C8_10 
REMARK    4  A    between atoms: C12_16  and  C13_17 
ROOT
HETATM    1  C8  UNL     1       6.393  -6.169  28.430  1.00  0.00     0.684 A 
HETATM    2  N2  UNL     1       5.788  -5.140  29.046  1.00  0.00    -0.201 N 
ATOM      3  H2  UNL     1       4.863  -4.819  28.757  1.00  0.00     0.183 HD
HETATM    4  C9  UNL     1       6.448  -4.549  30.059  1.00  0.00     0.121 A 
HETATM    5  C10 UNL     1       7.694  -4.940  30.488  1.00  0.00     0.026 A 
HETATM    6  C11 UNL     1       8.402  -4.296  31.581  1.00  0.00     0.034 A 
HETATM    7  C12 UNL     1       9.617  -4.742  31.935  1.00  0.00     0.047 A 
HETATM    8  C19 UNL     1      10.251  -5.898  31.213  1.00  0.00     0.260 A 
HETATM    9  O2  UNL     1      11.367  -6.285  31.561  1.00  0.00    -0.267 OA
HETATM   10  N3  UNL     1       9.527  -6.469  30.179  1.00  0.00    -0.303 N 
HETATM   11  C20 UNL     1      10.081  -7.589  29.440  1.00  0.00     0.161 C 
HETATM   12  C21 UNL     1       8.242  -6.003  29.799  1.00  0.00     0.137 A 
HETATM   13  N4  UNL     1       7.606  -6.617  28.781  1.00  0.00    -0.175 N 
ATOM     14  H4  UNL     1       8.036  -7.401  28.290  1.00  0.00     0.186 HD
ENDROOT
BRANCH   1  15
HETATM   15  N1  UNL     1       5.669  -6.742  27.396  1.00  0.00    -0.189 N 
HETATM   16  H8  UNL     1       5.413  -6.047  26.704  1.00  0.00     0.184 HD
BRANCH  15  17
HETATM   17  C7  UNL     1       5.221  -8.037  27.091  1.00  0.00     0.082 A 
HETATM   18  C2  UNL     1       6.121  -8.924  26.452  1.00  0.00     0.095 A 
HETATM   19  C3  UNL     1       5.722 -10.226  26.127  1.00  0.00     0.039 A 
HETATM   20  C4  UNL     1       4.432 -10.659  26.432  1.00  0.00     0.003 A 
HETATM   21  C5  UNL     1       3.539  -9.796  27.059  1.00  0.00     0.002 A 
HETATM   22  C6  UNL     1       3.932  -8.496  27.385  1.00  0.00     0.033 A 
BRANCH  18  23
HETATM   23  O1  UNL     1       7.369  -8.399  26.197  1.00  0.00    -0.354 OA
HETATM   24  C1  UNL     1       8.031  -8.847  25.021  1.00  0.00     0.210 C 
ENDBRANCH  18  23
ENDBRANCH  15  17
ENDBRANCH   1  15
BRANCH   7  25
HETATM   25  C13 UNL     1      10.341  -4.094  33.046  1.00  0.00     0.023 A 
HETATM   26  C14 UNL     1      11.372  -3.170  32.795  1.00  0.00     0.046 A 
HETATM   27 CL1  UNL     1      11.870  -2.769  31.185  1.00  0.00    -0.083 Cl
HETATM   28  C15 UNL     1      12.048  -2.545  33.851  1.00  0.00     0.025 A 
HETATM   29  C16 UNL     1      11.704  -2.830  35.170  1.00  0.00     0.003 A 
HETATM   30  C17 UNL     1      10.686  -3.743  35.437  1.00  0.00     0.025 A 
HETATM   31  C18 UNL     1      10.008  -4.371  34.385  1.00  0.00     0.046 A 
HETATM   32 CL2  UNL     1       8.764  -5.500  34.804  1.00  0.00    -0.083 Cl
ENDBRANCH   7  25
TORSDOF 4
ENDMDL
MODEL 5
REMARK minimizedAffinity -8.55341244
REMARK CNNscore 0.270951807
REMARK CNNaffinity 6.63296318
REMARK  4 active torsions:
REMARK  status: ('A' for Active; 'I' for Inactive)
REMARK    1  A    between atoms: O1_2  and  C2_3 
REMARK    2  A    between atoms: C7_8  and  N1_9 
REMARK    3  A    between atoms: N1_9  and  C8_10 
REMARK    4  A    between atoms: C12_16  and  C13_17 
ROOT
HETATM    1  C8  UNL     1       6.908  -3.728  31.081  1.00  0.00     0.684 A 
HETATM    2  N2  UNL     1       5.750  -3.208  30.645  1.00  0.00    -0.201 N 
ATOM      3  H2  UNL     1       5.431  -2.290  30.955  1.00  0.00     0.183 HD
HETATM    4  C9  UNL     1       5.026  -3.945  29.781  1.00  0.00     0.121 A 
HETATM    5  C10 UNL     1       5.408  -5.186  29.332  1.00  0.00     0.026 A 
HETATM    6  C11 UNL     1       4.621  -5.976  28.401  1.00  0.00     0.034 A 
HETATM    7  C12 UNL     1       5.070  -7.181  28.013  1.00  0.00     0.047 A 
HETATM    8  C19 UNL     1       6.374  -7.718  28.531  1.00  0.00     0.260 A 
HETATM    9  O2  UNL     1       6.759  -8.826  28.157  1.00  0.00    -0.267 OA
HETATM   10  N3  UNL     1       7.078  -6.918  29.417  1.00  0.00    -0.303 N 
HETATM   11  C20 UNL     1       8.345  -7.376  29.956  1.00  0.00     0.161 C 
HETATM   12  C21 UNL     1       6.611  -5.644  29.831  1.00  0.00     0.137 A 
HETATM   13  N4  UNL     1       7.359  -4.930  30.697  1.00  0.00    -0.175 N 
ATOM     14  H4  UNL     1       8.244  -5.295  31.049  1.00  0.00     0.186 HD
ENDROOT
BRANCH   1  15
HETATM   15  N1  UNL     1       7.614  -2.929  31.967  1.00  0.00    -0.189 N 
HETATM   16  H8  UNL     1       6.988  -2.339  32.502  1.00  0.00     0.184 HD
BRANCH  15  17
HETATM   17  C7  UNL     1       8.970  -2.753  32.288  1.00  0.00     0.082 A 
HETATM   18  C2  UNL     1       9.481  -3.424  33.426  1.00  0.00     0.095 A 
HETATM   19  C3  UNL     1      10.826  -3.280  33.787  1.00  0.00     0.039 A 
HETATM   20  C4  UNL     1      11.673  -2.474  33.027  1.00  0.00     0.003 A 
HETATM   21  C5  UNL     1      11.182  -1.810  31.908  1.00  0.00     0.002 A 
HETATM   22  C6  UNL     1       9.841  -1.949  31.543  1.00  0.00     0.033 A 
BRANCH  18  23
HETATM   23  O1  UNL     1       8.564  -4.194  34.106  1.00  0.00    -0.354 OA
HETATM   24  C1  UNL     1       8.820  -4.442  35.482  1.00  0.00     0.210 C 
ENDBRANCH  18  23
ENDBRANCH  15  17
ENDBRANCH   1  15
BRANCH   7  25
HETATM   25  C13 UNL     1       4.276  -7.989  27.066  1.00  0.00     0.023 A 
HETATM   26  C14 UNL     1       4.838  -8.451  25.862  1.00  0.00     0.046 A 
HETATM   27 CL1  UNL     1       6.467  -8.075  25.409  1.00  0.00    -0.083 Cl
HETATM   28  C15 UNL     1       4.088  -9.231  24.973  1.00  0.00     0.025 A 
HETATM   29  C16 UNL     1       2.769  -9.561  25.273  1.00  0.00     0.003 A 
HETATM   30  C17 UNL     1       2.195  -9.112  26.459  1.00  0.00     0.025 A 
HETATM   31  C18 UNL     1       2.941  -8.332  27.351  1.00  0.00     0.046 A 
HETATM   32 CL2  UNL     1       2.150  -7.804  28.799  1.00  0.00    -0.083 Cl
ENDBRANCH   7  25
TORSDOF 4
ENDMDL
MODEL 6
REMARK minimizedAffinity -7.00725794
REMARK CNNscore 0.2461963
REMARK CNNaffinity 6.23597765
REMARK  4 active torsions:
REMARK  status: ('A' for Active; 'I' for Inactive)
REMARK    1  A    between atoms: O1_2  and  C2_3 
REMARK    2  A    between atoms: C7_8  and  N1_9 
REMARK    3  A    between atoms: N1_9  and  C8_10 
REMARK    4  A    between atoms: C12_16  and  C13_17 
ROOT
HETATM    1  C8  UNL     1       3.604  -6.602  28.306  1.00  0.00     0.684 A 
HETATM    2  N2  UNL     1       2.279  -6.411  28.399  1.00  0.00    -0.201 N 
ATOM      3  H2  UNL     1       1.893  -5.542  28.768  1.00  0.00     0.183 HD
HETATM    4  C9  UNL     1       1.478  -7.412  27.987  1.00  0.00     0.121 A 
HETATM    5  C10 UNL     1       1.944  -8.602  27.483  1.00  0.00     0.026 A 
HETATM    6  C11 UNL     1       1.074  -9.678  27.040  1.00  0.00     0.034 A 
HETATM    7  C12 UNL     1       1.614 -10.810  26.560  1.00  0.00     0.047 A 
HETATM    8  C19 UNL     1       3.106 -10.973  26.478  1.00  0.00     0.260 A 
HETATM    9  O2  UNL     1       3.572 -12.023  26.033  1.00  0.00    -0.267 OA
HETATM   10  N3  UNL     1       3.882  -9.913  26.916  1.00  0.00    -0.303 N 
HETATM   11  C20 UNL     1       5.330 -10.004  26.863  1.00  0.00     0.161 C 
HETATM   12  C21 UNL     1       3.319  -8.714  27.424  1.00  0.00     0.137 A 
HETATM   13  N4  UNL     1       4.147  -7.730  27.829  1.00  0.00    -0.175 N 
ATOM     14  H4  UNL     1       5.160  -7.841  27.773  1.00  0.00     0.186 HD
ENDROOT
BRANCH   1  15
HETATM   15  N1  UNL     1       4.382  -5.541  28.744  1.00  0.00    -0.189 N 
HETATM   16  H8  UNL     1       3.903  -4.659  28.607  1.00  0.00     0.184 HD
BRANCH  15  17
HETATM   17  C7  UNL     1       5.656  -5.411  29.322  1.00  0.00     0.082 A 
HETATM   18  C2  UNL     1       6.788  -5.693  28.519  1.00  0.00     0.095 A 
HETATM   19  C3  UNL     1       8.078  -5.579  29.048  1.00  0.00     0.039 A 
HETATM   20  C4  UNL     1       8.258  -5.185  30.374  1.00  0.00     0.003 A 
HETATM   21  C5  UNL     1       7.154  -4.906  31.173  1.00  0.00     0.002 A 
HETATM   22  C6  UNL     1       5.864  -5.018  30.649  1.00  0.00     0.033 A 
BRANCH  18  23
HETATM   23  O1  UNL     1       6.501  -6.072  27.225  1.00  0.00    -0.354 OA
HETATM   24  C1  UNL     1       7.529  -6.736  26.503  1.00  0.00     0.210 C 
ENDBRANCH  18  23
ENDBRANCH  15  17
ENDBRANCH   1  15
BRANCH   7  25
HETATM   25  C13 UNL     1       0.737 -11.907  26.108  1.00  0.00     0.023 A 
HETATM   26  C14 UNL     1       0.378 -12.952  26.979  1.00  0.00     0.046 A 
HETATM   27 CL1  UNL     1       0.967 -13.030  28.606  1.00  0.00    -0.083 Cl
HETATM   28  C15 UNL     1      -0.467 -13.983  26.551  1.00  0.00     0.025 A 
HETATM   29  C16 UNL     1      -0.968 -13.986  25.252  1.00  0.00     0.003 A 
HETATM   30  C17 UNL     1      -0.623 -12.960  24.376  1.00  0.00     0.025 A 
HETATM   31  C18 UNL     1       0.221 -11.927  24.798  1.00  0.00     0.046 A 
HETATM   32 CL2  UNL     1       0.610 -10.696  23.644  1.00  0.00    -0.083 Cl
ENDBRANCH   7  25
TORSDOF 4
ENDMDL
MODEL 7
REMARK minimizedAffinity -9.55344963
REMARK CNNscore 0.238379687
REMARK CNNaffinity 6.5652976
REMARK  4 active torsions:
REMARK  status: ('A' for Active; 'I' for Inactive)
REMARK    1  A    between atoms: O1_2  and  C2_3 
REMARK    2  A    between atoms: C7_8  and  N1_9 
REMARK    3  A    between atoms: N1_9  and  C8_10 
REMARK    4  A    between atoms: C12_16  and  C13_17 
ROOT
HETATM    1  C8  UNL     1       6.666  -7.005  28.089  1.00  0.00     0.684 A 
HETATM    2  N2  UNL     1       7.850  -7.621  28.234  1.00  0.00    -0.201 N 
ATOM      3  H2  UNL     1       8.105  -8.423  27.658  1.00  0.00     0.183 HD
HETATM    4  C9  UNL     1       8.689  -7.138  29.171  1.00  0.00     0.121 A 
HETATM    5  C10 UNL     1       8.396  -6.062  29.974  1.00  0.00     0.026 A 
HETATM    6  C11 UNL     1       9.306  -5.548  30.983  1.00  0.00     0.034 A 
HETATM    7  C12 UNL     1       8.940  -4.491  31.725  1.00  0.00     0.047 A 
HETATM    8  C19 UNL     1       7.602  -3.837  31.523  1.00  0.00     0.260 A 
HETATM    9  O2  UNL     1       7.294  -2.869  32.219  1.00  0.00    -0.267 OA
HETATM   10  N3  UNL     1       6.779  -4.374  30.546  1.00  0.00    -0.303 N 
HETATM   11  C20 UNL     1       5.473  -3.791  30.298  1.00  0.00     0.161 C 
HETATM   12  C21 UNL     1       7.159  -5.490  29.757  1.00  0.00     0.137 A 
HETATM   13  N4  UNL     1       6.297  -5.950  28.827  1.00  0.00    -0.175 N 
ATOM     14  H4  UNL     1       5.388  -5.506  28.690  1.00  0.00     0.186 HD
ENDROOT
BRANCH   1  15
HETATM   15  N1  UNL     1       5.842  -7.541  27.111  1.00  0.00    -0.189 N 
HETATM   16  H8  UNL     1       5.968  -7.062  26.227  1.00  0.00     0.184 HD
BRANCH  15  17
HETATM   17  C7  UNL     1       4.893  -8.575  27.065  1.00  0.00     0.082 A 
HETATM   18  C2  UNL     1       3.566  -8.283  27.466  1.00  0.00     0.095 A 
HETATM   19  C3  UNL     1       2.583  -9.280  27.439  1.00  0.00     0.039 A 
HETATM   20  C4  UNL     1       2.905 -10.569  27.015  1.00  0.00     0.003 A 
HETATM   21  C5  UNL     1       4.205 -10.867  26.620  1.00  0.00     0.002 A 
HETATM   22  C6  UNL     1       5.190  -9.876  26.645  1.00  0.00     0.033 A 
BRANCH  18  23
HETATM   23  O1  UNL     1       3.353  -6.982  27.865  1.00  0.00    -0.354 OA
HETATM   24  C1  UNL     1       2.103  -6.689  28.474  1.00  0.00     0.210 C 
ENDBRANCH  18  23
ENDBRANCH  15  17
ENDBRANCH   1  15
BRANCH   7  25
HETATM   25  C13 UNL     1       9.859  -3.962  32.752  1.00  0.00     0.023 A 
HETATM   26  C14 UNL     1       9.774  -4.391  34.089  1.00  0.00     0.046 A 
HETATM   27 CL1  UNL     1       8.577  -5.530  34.610  1.00  0.00    -0.083 Cl
HETATM   28  C15 UNL     1      10.658  -3.900  35.058  1.00  0.00     0.025 A 
HETATM   29  C16 UNL     1      11.638  -2.975  34.707  1.00  0.00     0.003 A 
HETATM   30  C17 UNL     1      11.736  -2.537  33.389  1.00  0.00     0.025 A 
HETATM   31  C18 UNL     1      10.856  -3.026  32.417  1.00  0.00     0.046 A 
HETATM   32 CL2  UNL     1      11.038  -2.422  30.804  1.00  0.00    -0.083 Cl
ENDBRANCH   7  25
TORSDOF 4
ENDMDL
MODEL 8
REMARK minimizedAffinity -9.84167767
REMARK CNNscore 0.233437821
REMARK CNNaffinity 6.56240273
REMARK  4 active torsions:
REMARK  status: ('A' for Active; 'I' for Inactive)
REMARK    1  A    between atoms: O1_2  and  C2_3 
REMARK    2  A    between atoms: C7_8  and  N1_9 
REMARK    3  A    between atoms: N1_9  and  C8_10 
REMARK    4  A    between atoms: C12_16  and  C13_17 
ROOT
HETATM    1  C8  UNL     1       6.340  -7.008  28.500  1.00  0.00     0.684 A 
HETATM    2  N2  UNL     1       7.496  -7.677  28.640  1.00  0.00    -0.201 N 
ATOM      3  H2  UNL     1       7.680  -8.533  28.115  1.00  0.00     0.183 HD
HETATM    4  C9  UNL     1       8.402  -7.177  29.501  1.00  0.00     0.121 A 
HETATM    5  C10 UNL     1       8.205  -6.031  30.234  1.00  0.00     0.026 A 
HETATM    6  C11 UNL     1       9.187  -5.497  31.161  1.00  0.00     0.034 A 
HETATM    7  C12 UNL     1       8.913  -4.371  31.838  1.00  0.00     0.047 A 
HETATM    8  C19 UNL     1       7.604  -3.659  31.646  1.00  0.00     0.260 A 
HETATM    9  O2  UNL     1       7.381  -2.628  32.280  1.00  0.00    -0.267 OA
HETATM   10  N3  UNL     1       6.708  -4.218  30.748  1.00  0.00    -0.303 N 
HETATM   11  C20 UNL     1       5.425  -3.581  30.514  1.00  0.00     0.161 C 
HETATM   12  C21 UNL     1       6.991  -5.408  30.029  1.00  0.00     0.137 A 
HETATM   13  N4  UNL     1       6.063  -5.884  29.174  1.00  0.00    -0.175 N 
ATOM     14  H4  UNL     1       5.173  -5.401  29.044  1.00  0.00     0.186 HD
ENDROOT
BRANCH   1  15
HETATM   15  N1  UNL     1       5.443  -7.566  27.602  1.00  0.00    -0.189 N 
HETATM   16  H8  UNL     1       5.902  -7.802  26.730  1.00  0.00     0.184 HD
BRANCH  15  17
HETATM   17  C7  UNL     1       4.073  -7.874  27.623  1.00  0.00     0.082 A 
HETATM   18  C2  UNL     1       3.671  -9.165  27.203  1.00  0.00     0.095 A 
HETATM   19  C3  UNL     1       2.317  -9.521  27.205  1.00  0.00     0.039 A 
HETATM   20  C4  UNL     1       1.353  -8.603  27.622  1.00  0.00     0.003 A 
HETATM   21  C5  UNL     1       1.737  -7.332  28.036  1.00  0.00     0.002 A 
HETATM   22  C6  UNL     1       3.086  -6.972  28.035  1.00  0.00     0.033 A 
BRANCH  18  23
HETATM   23  O1  UNL     1       4.700  -9.995  26.812  1.00  0.00    -0.354 OA
HETATM   24  C1  UNL     1       4.652 -10.504  25.486  1.00  0.00     0.210 C 
ENDBRANCH  18  23
ENDBRANCH  15  17
ENDBRANCH   1  15
BRANCH   7  25
HETATM   25  C13 UNL     1       9.907  -3.822  32.781  1.00  0.00     0.023 A 
HETATM   26  C14 UNL     1       9.897  -4.192  34.139  1.00  0.00     0.046 A 
HETATM   27 CL1  UNL     1       8.709  -5.277  34.783  1.00  0.00    -0.083 Cl
HETATM   28  C15 UNL     1      10.850  -3.682  35.029  1.00  0.00     0.025 A 
HETATM   29  C16 UNL     1      11.827  -2.798  34.578  1.00  0.00     0.003 A 
HETATM   30  C17 UNL     1      11.852  -2.419  33.238  1.00  0.00     0.025 A 
HETATM   31  C18 UNL     1      10.901  -2.927  32.344  1.00  0.00     0.046 A 
HETATM   32 CL2  UNL     1      10.995  -2.397  30.698  1.00  0.00    -0.083 Cl
ENDBRANCH   7  25
TORSDOF 4
ENDMDL
MODEL 9
REMARK minimizedAffinity -8.07284832
REMARK CNNscore 0.227272704
REMARK CNNaffinity 6.62312508
REMARK  4 active torsions:
REMARK  status: ('A' for Active; 'I' for Inactive)
REMARK    1  A    between atoms: O1_2  and  C2_3 
REMARK    2  A    between atoms: C7_8  and  N1_9 
REMARK    3  A    between atoms: N1_9  and  C8_10 
REMARK    4  A    between atoms: C12_16  and  C13_17 
ROOT
HETATM    1  C8  UNL     1       5.638  -6.991  28.203  1.00  0.00     0.684 A 
HETATM    2  N2  UNL     1       5.108  -6.798  29.421  1.00  0.00    -0.201 N 
ATOM      3  H2  UNL     1       4.169  -7.127  29.649  1.00  0.00     0.183 HD
HETATM    4  C9  UNL     1       5.862  -6.153  30.330  1.00  0.00     0.121 A 
HETATM    5  C10 UNL     1       7.130  -5.687  30.076  1.00  0.00     0.026 A 
HETATM    6  C11 UNL     1       7.938  -4.991  31.062  1.00  0.00     0.034 A 
HETATM    7  C12 UNL     1       9.169  -4.569  30.730  1.00  0.00     0.047 A 
HETATM    8  C19 UNL     1       9.716  -4.811  29.351  1.00  0.00     0.260 A 
HETATM    9  O2  UNL     1      10.848  -4.413  29.076  1.00  0.00    -0.267 OA
HETATM   10  N3  UNL     1       8.898  -5.480  28.456  1.00  0.00    -0.303 N 
HETATM   11  C20 UNL     1       9.364  -5.746  27.107  1.00  0.00     0.161 C 
HETATM   12  C21 UNL     1       7.596  -5.929  28.800  1.00  0.00     0.137 A 
HETATM   13  N4  UNL     1       6.865  -6.572  27.867  1.00  0.00    -0.175 N 
ATOM     14  H4  UNL     1       7.237  -6.736  26.931  1.00  0.00     0.186 HD
ENDROOT
BRANCH   1  15
HETATM   15  N1  UNL     1       4.820  -7.661  27.306  1.00  0.00    -0.189 N 
HETATM   16  H8  UNL     1       5.280  -7.776  26.411  1.00  0.00     0.184 HD
BRANCH  15  17
HETATM   17  C7  UNL     1       3.527  -8.208  27.353  1.00  0.00     0.082 A 
HETATM   18  C2  UNL     1       3.374  -9.589  27.076  1.00  0.00     0.095 A 
HETATM   19  C3  UNL     1       2.106 -10.181  27.109  1.00  0.00     0.039 A 
HETATM   20  C4  UNL     1       0.983  -9.412  27.415  1.00  0.00     0.003 A 
HETATM   21  C5  UNL     1       1.121  -8.055  27.688  1.00  0.00     0.002 A 
HETATM   22  C6  UNL     1       2.384  -7.460  27.656  1.00  0.00     0.033 A 
BRANCH  18  23
HETATM   23  O1  UNL     1       4.544 -10.256  26.787  1.00  0.00    -0.354 OA
HETATM   24  C1  UNL     1       4.640 -10.869  25.508  1.00  0.00     0.210 C 
ENDBRANCH  18  23
ENDBRANCH  15  17
ENDBRANCH   1  15
BRANCH   7  25
HETATM   25  C13 UNL     1       9.996  -3.862  31.726  1.00  0.00     0.023 A 
HETATM   26  C14 UNL     1      11.082  -4.502  32.351  1.00  0.00     0.046 A 
HETATM   27 CL1  UNL     1      11.487  -6.152  32.015  1.00  0.00    -0.083 Cl
HETATM   28  C15 UNL     1      11.875  -3.823  33.284  1.00  0.00     0.025 A 
HETATM   29  C16 UNL     1      11.597  -2.497  33.607  1.00  0.00     0.003 A 
HETATM   30  C17 UNL     1      10.525  -1.847  33.000  1.00  0.00     0.025 A 
HETATM   31  C18 UNL     1       9.730  -2.521  32.066  1.00  0.00     0.046 A 
HETATM   32 CL2  UNL     1       8.411  -1.645  31.365  1.00  0.00    -0.083 Cl
ENDBRANCH   7  25
TORSDOF 4
ENDMDL
