MODEL 1
REMARK minimizedAffinity -7.62192678
REMARK  4 active torsions:
REMARK  status: ('A' for Active; 'I' for Inactive)
REMARK    1  A    between atoms: N1_1  and  C1_2 
REMARK    2  A    between atoms: C1_2  and  N2_4 
REMARK    3  A    between atoms: C2_7  and  C3_8 
REMARK    4  A    between atoms: C10_15  and  C11_16 
ROOT
HETATM    1  N2  UNL     1      10.519  35.532  18.177  1.00  0.00    -0.258 N 
HETATM    2  N3  UNL     1      11.634  35.756  17.389  1.00  0.00    -0.299 N 
ATOM      3  H3  UNL     1      11.683  36.346  16.559  1.00  0.00     0.187 HD
HETATM    4  C2  UNL     1      12.607  35.071  17.913  1.00  0.00     0.038 C 
HETATM    5  C9  UNL     1      12.227  34.213  19.092  1.00  0.00     0.091 C 
HETATM    6  C10 UNL     1      10.832  34.753  19.388  1.00  0.00     0.150 C 
ENDROOT
BRANCH   6   7
HETATM    7  C11 UNL     1      10.832  35.560  20.687  1.00  0.00    -0.022 A 
HETATM    8  C12 UNL     1      11.797  36.570  20.882  1.00  0.00     0.010 A 
HETATM    9  C13 UNL     1      11.840  37.305  22.061  1.00  0.00     0.002 A 
HETATM   10  C14 UNL     1      10.930  37.037  23.077  1.00  0.00     0.012 A 
HETATM   11  C15 UNL     1       9.968  36.029  22.934  1.00  0.00    -0.025 A 
HETATM   12  C16 UNL     1       9.070  35.774  23.984  1.00  0.00     0.012 A 
HETATM   13  C20 UNL     1       9.905  35.270  21.736  1.00  0.00    -0.018 A 
HETATM   14  C17 UNL     1       8.107  34.774  23.879  1.00  0.00     0.001 A 
HETATM   15  C18 UNL     1       8.030  34.015  22.721  1.00  0.00     0.001 A 
HETATM   16  C19 UNL     1       8.915  34.259  21.667  1.00  0.00     0.013 A 
ENDBRANCH   6   7
BRANCH   1  17
HETATM   17  C1  UNL     1       9.275  35.979  17.764  1.00  0.00     0.187 C 
HETATM   18  S1  UNL     1       8.101  36.697  18.701  1.00  0.00    -0.040 SA
BRANCH  17  19
HETATM   19  N1  UNL     1       9.038  35.780  16.436  1.00  0.00    -0.375 N 
HETATM   20  H1  UNL     1       8.127  35.961  16.040  1.00  0.00     0.158 HD
HETATM   21  H2  UNL     1       9.715  35.211  15.942  1.00  0.00     0.158 HD
ENDBRANCH  17  19
ENDBRANCH   1  17
BRANCH   4  22
HETATM   22  C3  UNL     1      13.988  35.082  17.373  1.00  0.00    -0.012 A 
HETATM   23  C4  UNL     1      15.001  34.434  18.090  1.00  0.00     0.013 A 
HETATM   24  C5  UNL     1      16.311  34.428  17.605  1.00  0.00     0.001 A 
HETATM   25  C6  UNL     1      16.614  35.069  16.406  1.00  0.00     0.000 A 
HETATM   26  C7  UNL     1      15.609  35.718  15.689  1.00  0.00     0.001 A 
HETATM   27  C8  UNL     1      14.297  35.726  16.170  1.00  0.00     0.013 A 
ENDBRANCH   4  22
TORSDOF 4
ENDMDL
MODEL 2
REMARK minimizedAffinity -7.13140488
REMARK  4 active torsions:
REMARK  status: ('A' for Active; 'I' for Inactive)
REMARK    1  A    between atoms: N1_1  and  C1_2 
REMARK    2  A    between atoms: C1_2  and  N2_4 
REMARK    3  A    between atoms: C2_7  and  C3_8 
REMARK    4  A    between atoms: C10_15  and  C11_16 
ROOT
HETATM    1  N2  UNL     1      12.545  35.738  21.860  1.00  0.00    -0.258 N 
HETATM    2  N3  UNL     1      11.282  36.194  21.526  1.00  0.00    -0.299 N 
ATOM      3  H3  UNL     1      10.873  37.093  21.780  1.00  0.00     0.187 HD
HETATM    4  C2  UNL     1      10.717  35.256  20.825  1.00  0.00     0.038 C 
HETATM    5  C9  UNL     1      11.523  33.990  20.679  1.00  0.00     0.091 C 
HETATM    6  C10 UNL     1      12.875  34.462  21.201  1.00  0.00     0.150 C 
ENDROOT
BRANCH   6   7
HETATM    7  C11 UNL     1      13.884  34.573  20.057  1.00  0.00    -0.022 A 
HETATM    8  C12 UNL     1      15.230  34.212  20.273  1.00  0.00     0.010 A 
HETATM    9  C13 UNL     1      16.176  34.325  19.262  1.00  0.00     0.002 A 
HETATM   10  C14 UNL     1      15.803  34.815  18.016  1.00  0.00     0.012 A 
HETATM   11  C15 UNL     1      14.480  35.204  17.763  1.00  0.00    -0.025 A 
HETATM   12  C16 UNL     1      14.136  35.707  16.497  1.00  0.00     0.012 A 
HETATM   13  C20 UNL     1      13.498  35.093  18.782  1.00  0.00    -0.018 A 
HETATM   14  C17 UNL     1      12.835  36.112  16.214  1.00  0.00     0.001 A 
HETATM   15  C18 UNL     1      11.859  36.018  17.195  1.00  0.00     0.001 A 
HETATM   16  C19 UNL     1      12.186  35.517  18.459  1.00  0.00     0.013 A 
ENDBRANCH   6   7
BRANCH   1  17
HETATM   17  C1  UNL     1      13.320  36.441  22.766  1.00  0.00     0.187 C 
HETATM   18  S1  UNL     1      14.705  37.309  22.446  1.00  0.00    -0.040 SA
BRANCH  17  19
HETATM   19  N1  UNL     1      12.855  36.378  24.047  1.00  0.00    -0.375 N 
HETATM   20  H1  UNL     1      13.394  36.756  24.812  1.00  0.00     0.158 HD
HETATM   21  H2  UNL     1      12.101  35.723  24.215  1.00  0.00     0.158 HD
ENDBRANCH  17  19
ENDBRANCH   1  17
BRANCH   4  22
HETATM   22  C3  UNL     1       9.359  35.385  20.245  1.00  0.00    -0.012 A 
HETATM   23  C4  UNL     1       8.378  34.450  20.601  1.00  0.00     0.013 A 
HETATM   24  C5  UNL     1       7.090  34.546  20.071  1.00  0.00     0.001 A 
HETATM   25  C6  UNL     1       6.777  35.573  19.183  1.00  0.00     0.000 A 
HETATM   26  C7  UNL     1       7.749  36.504  18.822  1.00  0.00     0.001 A 
HETATM   27  C8  UNL     1       9.040  36.412  19.351  1.00  0.00     0.013 A 
ENDBRANCH   4  22
TORSDOF 4
ENDMDL
MODEL 3
REMARK minimizedAffinity -7.00442123
REMARK  4 active torsions:
REMARK  status: ('A' for Active; 'I' for Inactive)
REMARK    1  A    between atoms: N1_1  and  C1_2 
REMARK    2  A    between atoms: C1_2  and  N2_4 
REMARK    3  A    between atoms: C2_7  and  C3_8 
REMARK    4  A    between atoms: C10_15  and  C11_16 
ROOT
HETATM    1  N2  UNL     1       1.543  64.445  -3.609  1.00  0.00    -0.258 N 
HETATM    2  N3  UNL     1       1.762  64.577  -4.969  1.00  0.00    -0.299 N 
ATOM      3  H3  UNL     1       1.192  64.186  -5.718  1.00  0.00     0.187 HD
HETATM    4  C2  UNL     1       2.835  65.299  -5.107  1.00  0.00     0.038 C 
HETATM    5  C9  UNL     1       3.530  65.668  -3.822  1.00  0.00     0.091 C 
HETATM    6  C10 UNL     1       2.467  65.266  -2.807  1.00  0.00     0.150 C 
ENDROOT
BRANCH   6   7
HETATM    7  C11 UNL     1       1.836  66.504  -2.169  1.00  0.00    -0.022 A 
HETATM    8  C12 UNL     1       1.132  66.383  -0.953  1.00  0.00     0.010 A 
HETATM    9  C13 UNL     1       0.527  67.485  -0.361  1.00  0.00     0.002 A 
HETATM   10  C14 UNL     1       0.597  68.729  -0.977  1.00  0.00     0.012 A 
HETATM   11  C15 UNL     1       1.270  68.890  -2.196  1.00  0.00    -0.025 A 
HETATM   12  C16 UNL     1       1.313  70.158  -2.800  1.00  0.00     0.012 A 
HETATM   13  C20 UNL     1       1.897  67.778  -2.815  1.00  0.00    -0.018 A 
HETATM   14  C17 UNL     1       1.964  70.353  -4.015  1.00  0.00     0.001 A 
HETATM   15  C18 UNL     1       2.580  69.280  -4.642  1.00  0.00     0.001 A 
HETATM   16  C19 UNL     1       2.547  68.014  -4.052  1.00  0.00     0.013 A 
ENDBRANCH   6   7
BRANCH   1  17
HETATM   17  C1  UNL     1       0.575  63.570  -3.144  1.00  0.00     0.187 C 
HETATM   18  S1  UNL     1      -1.047  63.883  -2.933  1.00  0.00    -0.040 SA
BRANCH  17  19
HETATM   19  N1  UNL     1       1.061  62.334  -2.834  1.00  0.00    -0.375 N 
HETATM   20  H1  UNL     1       0.477  61.647  -2.382  1.00  0.00     0.158 HD
HETATM   21  H2  UNL     1       2.070  62.238  -2.838  1.00  0.00     0.158 HD
ENDBRANCH  17  19
ENDBRANCH   1  17
BRANCH   4  22
HETATM   22  C3  UNL     1       3.379  65.696  -6.428  1.00  0.00    -0.012 A 
HETATM   23  C4  UNL     1       4.767  65.788  -6.590  1.00  0.00     0.013 A 
HETATM   24  C5  UNL     1       5.308  66.160  -7.823  1.00  0.00     0.001 A 
HETATM   25  C6  UNL     1       4.466  66.443  -8.896  1.00  0.00     0.000 A 
HETATM   26  C7  UNL     1       3.083  66.356  -8.740  1.00  0.00     0.001 A 
HETATM   27  C8  UNL     1       2.538  65.984  -7.508  1.00  0.00     0.013 A 
ENDBRANCH   4  22
TORSDOF 4
ENDMDL
MODEL 4
REMARK minimizedAffinity -6.99100924
REMARK  4 active torsions:
REMARK  status: ('A' for Active; 'I' for Inactive)
REMARK    1  A    between atoms: N1_1  and  C1_2 
REMARK    2  A    between atoms: C1_2  and  N2_4 
REMARK    3  A    between atoms: C2_7  and  C3_8 
REMARK    4  A    between atoms: C10_15  and  C11_16 
ROOT
HETATM    1  N2  UNL     1      12.955  35.857  20.383  1.00  0.00    -0.258 N 
HETATM    2  N3  UNL     1      11.623  36.139  20.634  1.00  0.00    -0.299 N 
ATOM      3  H3  UNL     1      11.261  36.874  21.241  1.00  0.00     0.187 HD
HETATM    4  C2  UNL     1      10.923  35.287  19.944  1.00  0.00     0.038 C 
HETATM    5  C9  UNL     1      11.725  34.249  19.202  1.00  0.00     0.091 C 
HETATM    6  C10 UNL     1      13.127  34.833  19.338  1.00  0.00     0.150 C 
ENDROOT
BRANCH   6   7
HETATM    7  C11 UNL     1      13.619  35.368  17.992  1.00  0.00    -0.022 A 
HETATM    8  C12 UNL     1      12.741  36.101  17.168  1.00  0.00     0.010 A 
HETATM    9  C13 UNL     1      13.149  36.580  15.929  1.00  0.00     0.002 A 
HETATM   10  C14 UNL     1      14.439  36.323  15.478  1.00  0.00     0.012 A 
HETATM   11  C15 UNL     1      15.338  35.583  16.256  1.00  0.00    -0.025 A 
HETATM   12  C16 UNL     1      16.631  35.330  15.769  1.00  0.00     0.012 A 
HETATM   13  C20 UNL     1      14.941  35.088  17.526  1.00  0.00    -0.018 A 
HETATM   14  C17 UNL     1      17.547  34.589  16.510  1.00  0.00     0.001 A 
HETATM   15  C18 UNL     1      17.181  34.091  17.751  1.00  0.00     0.001 A 
HETATM   16  C19 UNL     1      15.898  34.336  18.251  1.00  0.00     0.013 A 
ENDBRANCH   6   7
BRANCH   1  17
HETATM   17  C1  UNL     1      13.947  36.477  21.124  1.00  0.00     0.187 C 
HETATM   18  S1  UNL     1      14.135  36.448  22.778  1.00  0.00    -0.040 SA
BRANCH  17  19
HETATM   19  N1  UNL     1      14.837  37.179  20.365  1.00  0.00    -0.375 N 
HETATM   20  H1  UNL     1      15.537  37.764  20.797  1.00  0.00     0.158 HD
HETATM   21  H2  UNL     1      14.598  37.289  19.386  1.00  0.00     0.158 HD
ENDBRANCH  17  19
ENDBRANCH   1  17
BRANCH   4  22
HETATM   22  C3  UNL     1       9.441  35.291  19.918  1.00  0.00    -0.012 A 
HETATM   23  C4  UNL     1       8.779  36.240  19.129  1.00  0.00     0.013 A 
HETATM   24  C5  UNL     1       7.384  36.267  19.084  1.00  0.00     0.001 A 
HETATM   25  C6  UNL     1       6.645  35.350  19.827  1.00  0.00     0.000 A 
HETATM   26  C7  UNL     1       7.298  34.404  20.617  1.00  0.00     0.001 A 
HETATM   27  C8  UNL     1       8.694  34.373  20.664  1.00  0.00     0.013 A 
ENDBRANCH   4  22
TORSDOF 4
ENDMDL
MODEL 5
REMARK minimizedAffinity -6.971457
REMARK  4 active torsions:
REMARK  status: ('A' for Active; 'I' for Inactive)
REMARK    1  A    between atoms: N1_1  and  C1_2 
REMARK    2  A    between atoms: C1_2  and  N2_4 
REMARK    3  A    between atoms: C2_7  and  C3_8 
REMARK    4  A    between atoms: C10_15  and  C11_16 
ROOT
HETATM    1  N2  UNL     1      10.308  35.559  18.610  1.00  0.00    -0.258 N 
HETATM    2  N3  UNL     1      11.557  36.116  18.398  1.00  0.00    -0.299 N 
ATOM      3  H3  UNL     1      11.763  36.964  17.872  1.00  0.00     0.187 HD
HETATM    4  C2  UNL     1      12.417  35.348  19.000  1.00  0.00     0.038 C 
HETATM    5  C9  UNL     1      11.839  34.104  19.626  1.00  0.00     0.091 C 
HETATM    6  C10 UNL     1      10.350  34.419  19.543  1.00  0.00     0.150 C 
ENDROOT
BRANCH   6   7
HETATM    7  C11 UNL     1       9.783  34.709  20.934  1.00  0.00    -0.022 A 
HETATM    8  C12 UNL     1       8.412  34.501  21.188  1.00  0.00     0.010 A 
HETATM    9  C13 UNL     1       7.861  34.778  22.434  1.00  0.00     0.002 A 
HETATM   10  C14 UNL     1       8.665  35.282  23.449  1.00  0.00     0.012 A 
HETATM   11  C15 UNL     1      10.029  35.521  23.235  1.00  0.00    -0.025 A 
HETATM   12  C16 UNL     1      10.813  36.043  24.278  1.00  0.00     0.012 A 
HETATM   13  C20 UNL     1      10.611  35.242  21.970  1.00  0.00    -0.018 A 
HETATM   14  C17 UNL     1      12.168  36.302  24.097  1.00  0.00     0.001 A 
HETATM   15  C18 UNL     1      12.759  36.043  22.870  1.00  0.00     0.001 A 
HETATM   16  C19 UNL     1      11.992  35.521  21.823  1.00  0.00     0.013 A 
ENDBRANCH   6   7
BRANCH   1  17
HETATM   17  C1  UNL     1       9.205  36.049  17.932  1.00  0.00     0.187 C 
HETATM   18  S1  UNL     1       7.928  36.906  18.572  1.00  0.00    -0.040 SA
BRANCH  17  19
HETATM   19  N1  UNL     1       9.214  35.766  16.598  1.00  0.00    -0.375 N 
HETATM   20  H1  UNL     1       8.413  35.973  16.019  1.00  0.00     0.158 HD
HETATM   21  H2  UNL     1       9.929  35.121  16.284  1.00  0.00     0.158 HD
ENDBRANCH  17  19
ENDBRANCH   1  17
BRANCH   4  22
HETATM   22  C3  UNL     1      13.871  35.633  19.035  1.00  0.00    -0.012 A 
HETATM   23  C4  UNL     1      14.311  36.942  18.803  1.00  0.00     0.013 A 
HETATM   24  C5  UNL     1      15.675  37.241  18.830  1.00  0.00     0.001 A 
HETATM   25  C6  UNL     1      16.603  36.235  19.087  1.00  0.00     0.000 A 
HETATM   26  C7  UNL     1      16.172  34.929  19.316  1.00  0.00     0.001 A 
HETATM   27  C8  UNL     1      14.808  34.626  19.290  1.00  0.00     0.013 A 
ENDBRANCH   4  22
TORSDOF 4
ENDMDL
MODEL 6
REMARK minimizedAffinity -6.91979074
REMARK  4 active torsions:
REMARK  status: ('A' for Active; 'I' for Inactive)
REMARK    1  A    between atoms: N1_1  and  C1_2 
REMARK    2  A    between atoms: C1_2  and  N2_4 
REMARK    3  A    between atoms: C2_7  and  C3_8 
REMARK    4  A    between atoms: C10_15  and  C11_16 
ROOT
HETATM    1  N2  UNL     1      12.682  59.575   7.514  1.00  0.00    -0.258 N 
HETATM    2  N3  UNL     1      12.777  58.926   8.732  1.00  0.00    -0.299 N 
ATOM      3  H3  UNL     1      12.018  58.756   9.392  1.00  0.00     0.187 HD
HETATM    4  C2  UNL     1      14.021  58.575   8.874  1.00  0.00     0.038 C 
HETATM    5  C9  UNL     1      14.948  59.038   7.780  1.00  0.00     0.091 C 
HETATM    6  C10 UNL     1      13.936  59.512   6.742  1.00  0.00     0.150 C 
ENDROOT
BRANCH   6   7
HETATM    7  C11 UNL     1      13.906  58.559   5.547  1.00  0.00    -0.022 A 
HETATM    8  C12 UNL     1      14.240  57.201   5.727  1.00  0.00     0.010 A 
HETATM    9  C13 UNL     1      14.246  56.314   4.657  1.00  0.00     0.002 A 
HETATM   10  C14 UNL     1      13.933  56.767   3.380  1.00  0.00     0.012 A 
HETATM   11  C15 UNL     1      13.613  58.112   3.153  1.00  0.00    -0.025 A 
HETATM   12  C16 UNL     1      13.312  58.542   1.850  1.00  0.00     0.012 A 
HETATM   13  C20 UNL     1      13.598  59.033   4.234  1.00  0.00    -0.018 A 
HETATM   14  C17 UNL     1      13.000  59.873   1.586  1.00  0.00     0.001 A 
HETATM   15  C18 UNL     1      12.984  60.792   2.624  1.00  0.00     0.001 A 
HETATM   16  C19 UNL     1      13.279  60.379   3.927  1.00  0.00     0.013 A 
ENDBRANCH   6   7
BRANCH   1  17
HETATM   17  C1  UNL     1      11.514  60.233   7.167  1.00  0.00     0.187 C 
HETATM   18  S1  UNL     1      11.373  61.769   6.536  1.00  0.00    -0.040 SA
BRANCH  17  19
HETATM   19  N1  UNL     1      10.387  59.500   7.392  1.00  0.00    -0.375 N 
HETATM   20  H1  UNL     1       9.472  59.912   7.285  1.00  0.00     0.158 HD
HETATM   21  H2  UNL     1      10.512  58.638   7.910  1.00  0.00     0.158 HD
ENDBRANCH  17  19
ENDBRANCH   1  17
BRANCH   4  22
HETATM   22  C3  UNL     1      14.519  57.815  10.046  1.00  0.00    -0.012 A 
HETATM   23  C4  UNL     1      13.606  57.086  10.819  1.00  0.00     0.013 A 
HETATM   24  C5  UNL     1      14.047  56.361  11.928  1.00  0.00     0.001 A 
HETATM   25  C6  UNL     1      15.397  56.362  12.270  1.00  0.00     0.000 A 
HETATM   26  C7  UNL     1      16.310  57.088  11.506  1.00  0.00     0.001 A 
HETATM   27  C8  UNL     1      15.874  57.815  10.395  1.00  0.00     0.013 A 
ENDBRANCH   4  22
TORSDOF 4
ENDMDL
MODEL 7
REMARK minimizedAffinity -6.85094404
REMARK  4 active torsions:
REMARK  status: ('A' for Active; 'I' for Inactive)
REMARK    1  A    between atoms: N1_1  and  C1_2 
REMARK    2  A    between atoms: C1_2  and  N2_4 
REMARK    3  A    between atoms: C2_7  and  C3_8 
REMARK    4  A    between atoms: C10_15  and  C11_16 
ROOT
HETATM    1  N2  UNL     1       1.237  64.858  -3.513  1.00  0.00    -0.258 N 
HETATM    2  N3  UNL     1       2.057  64.816  -4.627  1.00  0.00    -0.299 N 
ATOM      3  H3  UNL     1       1.769  64.629  -5.587  1.00  0.00     0.187 HD
HETATM    4  C2  UNL     1       3.265  65.061  -4.213  1.00  0.00     0.038 C 
HETATM    5  C9  UNL     1       3.415  65.211  -2.721  1.00  0.00     0.091 C 
HETATM    6  C10 UNL     1       1.951  65.307  -2.305  1.00  0.00     0.150 C 
ENDROOT
BRANCH   6   7
HETATM    7  C11 UNL     1       1.614  66.728  -1.852  1.00  0.00    -0.022 A 
HETATM    8  C12 UNL     1       1.029  66.939  -0.586  1.00  0.00     0.010 A 
HETATM    9  C13 UNL     1       0.689  68.216  -0.155  1.00  0.00     0.002 A 
HETATM   10  C14 UNL     1       0.909  69.309  -0.985  1.00  0.00     0.012 A 
HETATM   11  C15 UNL     1       1.470  69.143  -2.258  1.00  0.00    -0.025 A 
HETATM   12  C16 UNL     1       1.669  70.266  -3.079  1.00  0.00     0.012 A 
HETATM   13  C20 UNL     1       1.828  67.848  -2.716  1.00  0.00    -0.018 A 
HETATM   14  C17 UNL     1       2.214  70.137  -4.353  1.00  0.00     0.001 A 
HETATM   15  C18 UNL     1       2.567  68.882  -4.824  1.00  0.00     0.001 A 
HETATM   16  C19 UNL     1       2.377  67.755  -4.019  1.00  0.00     0.013 A 
ENDBRANCH   6   7
BRANCH   1  17
HETATM   17  C1  UNL     1      -0.083  64.450  -3.606  1.00  0.00     0.187 C 
HETATM   18  S1  UNL     1      -1.262  65.076  -4.603  1.00  0.00    -0.040 SA
BRANCH  17  19
HETATM   19  N1  UNL     1      -0.398  63.425  -2.764  1.00  0.00    -0.375 N 
HETATM   20  H1  UNL     1      -1.353  63.116  -2.660  1.00  0.00     0.158 HD
HETATM   21  H2  UNL     1       0.306  63.179  -2.078  1.00  0.00     0.158 HD
ENDBRANCH  17  19
ENDBRANCH   1  17
BRANCH   4  22
HETATM   22  C3  UNL     1       4.432  65.141  -5.124  1.00  0.00    -0.012 A 
HETATM   23  C4  UNL     1       4.296  65.818  -6.342  1.00  0.00     0.013 A 
HETATM   24  C5  UNL     1       5.378  65.911  -7.220  1.00  0.00     0.001 A 
HETATM   25  C6  UNL     1       6.597  65.326  -6.887  1.00  0.00     0.000 A 
HETATM   26  C7  UNL     1       6.739  64.648  -5.676  1.00  0.00     0.001 A 
HETATM   27  C8  UNL     1       5.658  64.554  -4.795  1.00  0.00     0.013 A 
ENDBRANCH   4  22
TORSDOF 4
ENDMDL
MODEL 8
REMARK minimizedAffinity -6.83835649
REMARK  4 active torsions:
REMARK  status: ('A' for Active; 'I' for Inactive)
REMARK    1  A    between atoms: N1_1  and  C1_2 
REMARK    2  A    between atoms: C1_2  and  N2_4 
REMARK    3  A    between atoms: C2_7  and  C3_8 
REMARK    4  A    between atoms: C10_15  and  C11_16 
ROOT
HETATM    1  N2  UNL     1      15.147  36.358  15.196  1.00  0.00    -0.258 N 
HETATM    2  N3  UNL     1      15.361  35.472  14.154  1.00  0.00    -0.299 N 
ATOM      3  H3  UNL     1      14.653  34.922  13.668  1.00  0.00     0.187 HD
HETATM    4  C2  UNL     1      16.640  35.474  13.916  1.00  0.00     0.038 C 
HETATM    5  C9  UNL     1      17.465  36.317  14.854  1.00  0.00     0.091 C 
HETATM    6  C10 UNL     1      16.366  37.100  15.564  1.00  0.00     0.150 C 
ENDROOT
BRANCH   6   7
HETATM    7  C11 UNL     1      16.381  38.565  15.127  1.00  0.00    -0.022 A 
HETATM    8  C12 UNL     1      16.762  38.899  13.811  1.00  0.00     0.010 A 
HETATM    9  C13 UNL     1      16.810  40.222  13.390  1.00  0.00     0.002 A 
HETATM   10  C14 UNL     1      16.493  41.243  14.279  1.00  0.00     0.012 A 
HETATM   11  C15 UNL     1      16.127  40.958  15.601  1.00  0.00    -0.025 A 
HETATM   12  C16 UNL     1      15.823  42.012  16.479  1.00  0.00     0.012 A 
HETATM   13  C20 UNL     1      16.069  39.612  16.049  1.00  0.00    -0.018 A 
HETATM   14  C17 UNL     1      15.466  41.766  17.801  1.00  0.00     0.001 A 
HETATM   15  C18 UNL     1      15.408  40.460  18.264  1.00  0.00     0.001 A 
HETATM   16  C19 UNL     1      15.705  39.400  17.402  1.00  0.00     0.013 A 
ENDBRANCH   6   7
BRANCH   1  17
HETATM   17  C1  UNL     1      13.904  36.430  15.801  1.00  0.00     0.187 C 
HETATM   18  S1  UNL     1      13.566  36.291  17.426  1.00  0.00    -0.040 SA
BRANCH  17  19
HETATM   19  N1  UNL     1      12.880  36.633  14.923  1.00  0.00    -0.375 N 
HETATM   20  H1  UNL     1      11.920  36.592  15.230  1.00  0.00     0.158 HD
HETATM   21  H2  UNL     1      13.116  36.563  13.940  1.00  0.00     0.158 HD
ENDBRANCH  17  19
ENDBRANCH   1  17
BRANCH   4  22
HETATM   22  C3  UNL     1      17.264  34.674  12.836  1.00  0.00    -0.012 A 
HETATM   23  C4  UNL     1      18.279  35.253  12.063  1.00  0.00     0.013 A 
HETATM   24  C5  UNL     1      18.885  34.523  11.039  1.00  0.00     0.001 A 
HETATM   25  C6  UNL     1      18.480  33.215  10.781  1.00  0.00     0.000 A 
HETATM   26  C7  UNL     1      17.468  32.634  11.545  1.00  0.00     0.001 A 
HETATM   27  C8  UNL     1      16.859  33.361  12.571  1.00  0.00     0.013 A 
ENDBRANCH   4  22
TORSDOF 4
ENDMDL
MODEL 9
REMARK minimizedAffinity -6.83159685
REMARK  4 active torsions:
REMARK  status: ('A' for Active; 'I' for Inactive)
REMARK    1  A    between atoms: N1_1  and  C1_2 
REMARK    2  A    between atoms: C1_2  and  N2_4 
REMARK    3  A    between atoms: C2_7  and  C3_8 
REMARK    4  A    between atoms: C10_15  and  C11_16 
ROOT
HETATM    1  N2  UNL     1      14.131  34.958  19.281  1.00  0.00    -0.258 N 
HETATM    2  N3  UNL     1      12.866  35.243  19.766  1.00  0.00    -0.299 N 
ATOM      3  H3  UNL     1      12.630  35.536  20.714  1.00  0.00     0.187 HD
HETATM    4  C2  UNL     1      12.037  35.065  18.780  1.00  0.00     0.038 C 
HETATM    5  C9  UNL     1      12.655  34.538  17.510  1.00  0.00     0.091 C 
HETATM    6  C10 UNL     1      14.135  34.715  17.828  1.00  0.00     0.150 C 
ENDROOT
BRANCH   6   7
HETATM    7  C11 UNL     1      14.734  35.845  16.991  1.00  0.00    -0.022 A 
HETATM    8  C12 UNL     1      13.976  37.008  16.741  1.00  0.00     0.010 A 
HETATM    9  C13 UNL     1      14.482  38.043  15.964  1.00  0.00     0.002 A 
HETATM   10  C14 UNL     1      15.750  37.934  15.406  1.00  0.00     0.012 A 
HETATM   11  C15 UNL     1      16.531  36.789  15.613  1.00  0.00    -0.025 A 
HETATM   12  C16 UNL     1      17.805  36.703  15.027  1.00  0.00     0.012 A 
HETATM   13  C20 UNL     1      16.033  35.722  16.407  1.00  0.00    -0.018 A 
HETATM   14  C17 UNL     1      18.603  35.577  15.203  1.00  0.00     0.001 A 
HETATM   15  C18 UNL     1      18.136  34.519  15.969  1.00  0.00     0.001 A 
HETATM   16  C19 UNL     1      16.872  34.590  16.562  1.00  0.00     0.013 A 
ENDBRANCH   6   7
BRANCH   1  17
HETATM   17  C1  UNL     1      15.205  34.876  20.151  1.00  0.00     0.187 C 
HETATM   18  S1  UNL     1      15.532  35.874  21.443  1.00  0.00    -0.040 SA
BRANCH  17  19
HETATM   19  N1  UNL     1      16.060  33.851  19.867  1.00  0.00    -0.375 N 
HETATM   20  H1  UNL     1      16.936  33.757  20.360  1.00  0.00     0.158 HD
HETATM   21  H2  UNL     1      15.900  33.368  18.991  1.00  0.00     0.158 HD
ENDBRANCH  17  19
ENDBRANCH   1  17
BRANCH   4  22
HETATM   22  C3  UNL     1      10.580  35.309  18.893  1.00  0.00    -0.012 A 
HETATM   23  C4  UNL     1       9.888  34.785  19.993  1.00  0.00     0.013 A 
HETATM   24  C5  UNL     1       8.514  34.999  20.126  1.00  0.00     0.001 A 
HETATM   25  C6  UNL     1       7.827  35.734  19.164  1.00  0.00     0.000 A 
HETATM   26  C7  UNL     1       8.509  36.257  18.066  1.00  0.00     0.001 A 
HETATM   27  C8  UNL     1       9.884  36.045  17.928  1.00  0.00     0.013 A 
ENDBRANCH   4  22
TORSDOF 4
ENDMDL
