MODEL 1
REMARK minimizedAffinity -8.42607212
REMARK  6 active torsions:
REMARK  status: ('A' for Active; 'I' for Inactive)
REMARK    1  A    between atoms: O1_1  and  C1_2 
REMARK    2  A    between atoms: C1_2  and  C2_3 
REMARK    3  A    between atoms: C6_12  and  N4_13 
REMARK    4  A    between atoms: N4_13  and  C7_14 
REMARK    5  A    between atoms: N6_22  and  C13_23 
REMARK    6  A    between atoms: C13_23  and  C14_24 
ROOT
HETATM    1  C7  UNL     1      12.320  35.031  18.101  1.00  0.00     0.034 A 
HETATM    2  C8  UNL     1      12.670  35.841  17.006  1.00  0.00     0.032 A 
HETATM    3  C9  UNL     1      13.984  35.938  16.526  1.00  0.00     0.034 A 
HETATM    4  C10 UNL     1      14.962  35.183  17.181  1.00  0.00     0.062 A 
HETATM    5  C11 UNL     1      14.658  34.362  18.261  1.00  0.00     0.011 A 
HETATM    6  C12 UNL     1      15.891  33.780  18.626  1.00  0.00     0.121 A 
HETATM    7  N5  UNL     1      16.904  34.191  17.862  1.00  0.00    -0.308 N 
ATOM      8  H5  UNL     1      17.888  33.931  17.925  1.00  0.00     0.186 HD
HETATM    9  N6  UNL     1      16.316  35.035  16.983  1.00  0.00    -0.288 N 
HETATM   10  C20 UNL     1      13.329  34.284  18.724  1.00  0.00     0.044 A 
ENDROOT
BRANCH   1  11
HETATM   11  N4  UNL     1      10.970  35.013  18.506  1.00  0.00    -0.341 N 
HETATM   12  H7  UNL     1      10.331  35.408  17.816  1.00  0.00     0.167 HD
BRANCH  11  13
HETATM   13  C6  UNL     1      10.409  34.747  19.739  1.00  0.00     0.136 A 
HETATM   14  N3  UNL     1      11.027  34.080  20.668  1.00  0.00    -0.336 N 
HETATM   15  C5  UNL     1      10.438  33.884  21.889  1.00  0.00     0.199 A 
ATOM     16  H3  UNL     1      11.957  33.700  20.487  1.00  0.00     0.168 HD
HETATM   17  N2  UNL     1       9.275  34.305  22.270  1.00  0.00    -0.289 N 
HETATM   18  N1  UNL     1       8.618  34.983  21.323  1.00  0.00    -0.262 N 
ATOM     19  H2  UNL     1       8.897  34.136  23.202  1.00  0.00     0.188 HD
HETATM   20  C4  UNL     1       7.371  35.527  21.461  1.00  0.00     0.117 A 
HETATM   21  C21 UNL     1       9.088  35.230  20.066  1.00  0.00     0.108 A 
HETATM   22  C3  UNL     1       7.023  36.113  20.265  1.00  0.00     0.031 A 
HETATM   23  C2  UNL     1       8.108  35.920  19.359  1.00  0.00    -0.001 A 
BRANCH  23  24
HETATM   24  C1  UNL     1       8.139  36.369  17.939  1.00  0.00     0.205 C 
BRANCH  24  25
HETATM   25  O1  UNL     1       8.551  35.307  17.081  1.00  0.00    -0.396 OA
HETATM   26  H1  UNL     1       9.470  35.104  17.342  1.00  0.00     0.209 HD
ENDBRANCH  24  25
ENDBRANCH  23  24
ENDBRANCH  11  13
ENDBRANCH   1  11
BRANCH   9  27
HETATM   27  C13 UNL     1      17.139  35.717  15.992  1.00  0.00     0.187 C 
BRANCH  27  28
HETATM   28  C14 UNL     1      17.193  34.970  14.682  1.00  0.00    -0.035 A 
HETATM   29  C15 UNL     1      18.280  34.134  14.378  1.00  0.00     0.009 A 
HETATM   30  C16 UNL     1      18.324  33.433  13.169  1.00  0.00     0.004 A 
HETATM   31  C17 UNL     1      17.280  33.554  12.255  1.00  0.00     0.042 A 
HETATM   32  C18 UNL     1      16.199  34.375  12.555  1.00  0.00     0.117 A 
HETATM   33  F1  UNL     1      15.192  34.484  11.679  1.00  0.00    -0.206 F 
HETATM   34  C19 UNL     1      16.145  35.079  13.754  1.00  0.00     0.051 A 
ENDBRANCH  27  28
ENDBRANCH   9  27
TORSDOF 6
ENDMDL
MODEL 2
REMARK minimizedAffinity -8.18326664
REMARK  6 active torsions:
REMARK  status: ('A' for Active; 'I' for Inactive)
REMARK    1  A    between atoms: O1_1  and  C1_2 
REMARK    2  A    between atoms: C1_2  and  C2_3 
REMARK    3  A    between atoms: C6_12  and  N4_13 
REMARK    4  A    between atoms: N4_13  and  C7_14 
REMARK    5  A    between atoms: N6_22  and  C13_23 
REMARK    6  A    between atoms: C13_23  and  C14_24 
ROOT
HETATM    1  C7  UNL     1      12.246  35.036  18.101  1.00  0.00     0.034 A 
HETATM    2  C8  UNL     1      13.373  34.203  18.224  1.00  0.00     0.032 A 
HETATM    3  C9  UNL     1      14.586  34.470  17.572  1.00  0.00     0.034 A 
HETATM    4  C10 UNL     1      14.646  35.620  16.779  1.00  0.00     0.062 A 
HETATM    5  C11 UNL     1      13.560  36.475  16.636  1.00  0.00     0.011 A 
HETATM    6  C12 UNL     1      14.018  37.498  15.779  1.00  0.00     0.121 A 
HETATM    7  N5  UNL     1      15.282  37.320  15.391  1.00  0.00    -0.308 N 
ATOM      8  H5  UNL     1      15.840  37.905  14.769  1.00  0.00     0.186 HD
HETATM    9  N6  UNL     1      15.649  36.179  16.019  1.00  0.00    -0.288 N 
HETATM   10  C20 UNL     1      12.352  36.183  17.301  1.00  0.00     0.044 A 
ENDROOT
BRANCH   1  11
HETATM   11  N4  UNL     1      11.075  34.669  18.792  1.00  0.00    -0.341 N 
HETATM   12  H7  UNL     1      11.085  33.709  19.135  1.00  0.00     0.167 HD
BRANCH  11  13
HETATM   13  C6  UNL     1       9.859  35.315  18.900  1.00  0.00     0.136 A 
HETATM   14  N3  UNL     1       9.321  35.978  17.919  1.00  0.00    -0.336 N 
HETATM   15  C5  UNL     1       8.092  36.562  18.070  1.00  0.00     0.199 A 
ATOM     16  H3  UNL     1       9.818  36.063  17.032  1.00  0.00     0.168 HD
HETATM   17  N2  UNL     1       7.340  36.537  19.123  1.00  0.00    -0.289 N 
HETATM   18  N1  UNL     1       7.882  35.871  20.148  1.00  0.00    -0.262 N 
ATOM     19  H2  UNL     1       6.424  36.982  19.167  1.00  0.00     0.188 HD
HETATM   20  C4  UNL     1       7.304  35.701  21.375  1.00  0.00     0.117 A 
HETATM   21  C21 UNL     1       9.103  35.261  20.129  1.00  0.00     0.108 A 
HETATM   22  C3  UNL     1       8.178  34.992  22.168  1.00  0.00     0.031 A 
HETATM   23  C2  UNL     1       9.339  34.714  21.387  1.00  0.00    -0.001 A 
BRANCH  23  24
HETATM   24  C1  UNL     1      10.551  33.993  21.865  1.00  0.00     0.205 C 
BRANCH  24  25
HETATM   25  O1  UNL     1      11.182  34.710  22.924  1.00  0.00    -0.396 OA
HETATM   26  H1  UNL     1      11.482  35.550  22.526  1.00  0.00     0.209 HD
ENDBRANCH  24  25
ENDBRANCH  23  24
ENDBRANCH  11  13
ENDBRANCH   1  11
BRANCH   9  27
HETATM   27  C13 UNL     1      16.987  35.644  15.799  1.00  0.00     0.187 C 
BRANCH  27  28
HETATM   28  C14 UNL     1      17.085  34.858  14.515  1.00  0.00    -0.035 A 
HETATM   29  C15 UNL     1      16.143  35.040  13.489  1.00  0.00     0.009 A 
HETATM   30  C16 UNL     1      16.241  34.321  12.294  1.00  0.00     0.004 A 
HETATM   31  C17 UNL     1      17.286  33.418  12.109  1.00  0.00     0.042 A 
HETATM   32  C18 UNL     1      18.225  33.240  13.118  1.00  0.00     0.117 A 
HETATM   33  F1  UNL     1      19.233  32.379  12.935  1.00  0.00    -0.206 F 
HETATM   34  C19 UNL     1      18.137  33.949  14.312  1.00  0.00     0.051 A 
ENDBRANCH  27  28
ENDBRANCH   9  27
TORSDOF 6
ENDMDL
MODEL 3
REMARK minimizedAffinity -8.13566589
REMARK  6 active torsions:
REMARK  status: ('A' for Active; 'I' for Inactive)
REMARK    1  A    between atoms: O1_1  and  C1_2 
REMARK    2  A    between atoms: C1_2  and  C2_3 
REMARK    3  A    between atoms: C6_12  and  N4_13 
REMARK    4  A    between atoms: N4_13  and  C7_14 
REMARK    5  A    between atoms: N6_22  and  C13_23 
REMARK    6  A    between atoms: C13_23  and  C14_24 
ROOT
HETATM    1  C7  UNL     1      13.099  34.975  17.960  1.00  0.00     0.034 A 
HETATM    2  C8  UNL     1      13.059  36.044  17.046  1.00  0.00     0.032 A 
HETATM    3  C9  UNL     1      14.196  36.494  16.358  1.00  0.00     0.034 A 
HETATM    4  C10 UNL     1      15.401  35.830  16.610  1.00  0.00     0.062 A 
HETATM    5  C11 UNL     1      15.483  34.764  17.498  1.00  0.00     0.011 A 
HETATM    6  C12 UNL     1      16.839  34.375  17.466  1.00  0.00     0.121 A 
HETATM    7  N5  UNL     1      17.574  35.124  16.642  1.00  0.00    -0.308 N 
ATOM      8  H5  UNL     1      18.573  35.056  16.449  1.00  0.00     0.186 HD
HETATM    9  N6  UNL     1      16.678  35.995  16.124  1.00  0.00    -0.288 N 
HETATM   10  C20 UNL     1      14.326  34.332  18.177  1.00  0.00     0.044 A 
ENDROOT
BRANCH   1  11
HETATM   11  N4  UNL     1      11.900  34.610  18.602  1.00  0.00    -0.341 N 
HETATM   12  H7  UNL     1      11.947  33.708  19.076  1.00  0.00     0.167 HD
BRANCH  11  13
HETATM   13  C6  UNL     1      10.637  35.163  18.522  1.00  0.00     0.136 A 
HETATM   14  N3  UNL     1      10.088  35.514  17.397  1.00  0.00    -0.336 N 
HETATM   15  C5  UNL     1       8.815  36.016  17.374  1.00  0.00     0.199 A 
ATOM     16  H3  UNL     1      10.610  35.415  16.526  1.00  0.00     0.168 HD
HETATM   17  N2  UNL     1       8.028  36.195  18.387  1.00  0.00    -0.289 N 
HETATM   18  N1  UNL     1       8.579  35.851  19.556  1.00  0.00    -0.262 N 
ATOM     19  H2  UNL     1       7.081  36.562  18.301  1.00  0.00     0.188 HD
HETATM   20  C4  UNL     1       7.971  35.947  20.776  1.00  0.00     0.117 A 
HETATM   21  C21 UNL     1       9.841  35.356  19.712  1.00  0.00     0.108 A 
HETATM   22  C3  UNL     1       8.865  35.531  21.736  1.00  0.00     0.031 A 
HETATM   23  C2  UNL     1      10.071  35.160  21.071  1.00  0.00    -0.001 A 
BRANCH  23  24
HETATM   24  C1  UNL     1      11.313  34.681  21.737  1.00  0.00     0.205 C 
BRANCH  24  25
HETATM   25  O1  UNL     1      11.561  33.312  21.424  1.00  0.00    -0.396 OA
HETATM   26  H1  UNL     1      10.814  32.818  21.813  1.00  0.00     0.209 HD
ENDBRANCH  24  25
ENDBRANCH  23  24
ENDBRANCH  11  13
ENDBRANCH   1  11
BRANCH   9  27
HETATM   27  C13 UNL     1      17.136  37.013  15.186  1.00  0.00     0.187 C 
BRANCH  27  28
HETATM   28  C14 UNL     1      17.245  36.485  13.777  1.00  0.00    -0.035 A 
HETATM   29  C15 UNL     1      17.891  37.234  12.779  1.00  0.00     0.009 A 
HETATM   30  C16 UNL     1      18.002  36.738  11.476  1.00  0.00     0.004 A 
HETATM   31  C17 UNL     1      17.476  35.488  11.159  1.00  0.00     0.042 A 
HETATM   32  C18 UNL     1      16.842  34.741  12.145  1.00  0.00     0.117 A 
HETATM   33  F1  UNL     1      16.344  33.537  11.840  1.00  0.00    -0.206 F 
HETATM   34  C19 UNL     1      16.724  35.224  13.445  1.00  0.00     0.051 A 
ENDBRANCH  27  28
ENDBRANCH   9  27
TORSDOF 6
ENDMDL
MODEL 4
REMARK minimizedAffinity -7.6795969
REMARK  6 active torsions:
REMARK  status: ('A' for Active; 'I' for Inactive)
REMARK    1  A    between atoms: O1_1  and  C1_2 
REMARK    2  A    between atoms: C1_2  and  C2_3 
REMARK    3  A    between atoms: C6_12  and  N4_13 
REMARK    4  A    between atoms: N4_13  and  C7_14 
REMARK    5  A    between atoms: N6_22  and  C13_23 
REMARK    6  A    between atoms: C13_23  and  C14_24 
ROOT
HETATM    1  C7  UNL     1      15.670  38.456  16.941  1.00  0.00     0.034 A 
HETATM    2  C8  UNL     1      15.584  37.918  18.237  1.00  0.00     0.032 A 
HETATM    3  C9  UNL     1      14.594  36.997  18.610  1.00  0.00     0.034 A 
HETATM    4  C10 UNL     1      13.674  36.615  17.630  1.00  0.00     0.062 A 
HETATM    5  C11 UNL     1      13.727  37.115  16.334  1.00  0.00     0.011 A 
HETATM    6  C12 UNL     1      12.653  36.492  15.664  1.00  0.00     0.121 A 
HETATM    7  N5  UNL     1      11.957  35.671  16.453  1.00  0.00    -0.308 N 
ATOM      8  H5  UNL     1      11.136  35.115  16.217  1.00  0.00     0.186 HD
HETATM    9  N6  UNL     1      12.601  35.752  17.640  1.00  0.00    -0.288 N 
HETATM   10  C20 UNL     1      14.732  38.041  15.985  1.00  0.00     0.044 A 
ENDROOT
BRANCH   1  11
HETATM   11  N4  UNL     1      16.700  39.381  16.676  1.00  0.00    -0.341 N 
HETATM   12  H7  UNL     1      17.606  38.946  16.506  1.00  0.00     0.167 HD
BRANCH  11  13
HETATM   13  C6  UNL     1      16.726  40.755  16.811  1.00  0.00     0.136 A 
HETATM   14  N3  UNL     1      16.640  41.354  17.962  1.00  0.00    -0.336 N 
HETATM   15  C5  UNL     1      16.716  42.719  18.039  1.00  0.00     0.199 A 
ATOM     16  H3  UNL     1      16.514  40.804  18.811  1.00  0.00     0.168 HD
HETATM   17  N2  UNL     1      16.880  43.548  17.059  1.00  0.00    -0.289 N 
HETATM   18  N1  UNL     1      16.958  42.951  15.864  1.00  0.00    -0.262 N 
ATOM     19  H2  UNL     1      16.942  44.558  17.184  1.00  0.00     0.188 HD
HETATM   20  C4  UNL     1      17.121  43.593  14.668  1.00  0.00     0.117 A 
HETATM   21  C21 UNL     1      16.879  41.605  15.654  1.00  0.00     0.108 A 
HETATM   22  C3  UNL     1      17.122  42.646  13.669  1.00  0.00     0.031 A 
HETATM   23  C2  UNL     1      16.956  41.370  14.284  1.00  0.00    -0.001 A 
BRANCH  23  24
HETATM   24  C1  UNL     1      16.870  40.069  13.566  1.00  0.00     0.205 C 
BRANCH  24  25
HETATM   25  O1  UNL     1      15.560  39.867  13.038  1.00  0.00    -0.396 OA
HETATM   26  H1  UNL     1      14.973  39.810  13.816  1.00  0.00     0.209 HD
ENDBRANCH  24  25
ENDBRANCH  23  24
ENDBRANCH  11  13
ENDBRANCH   1  11
BRANCH   9  27
HETATM   27  C13 UNL     1      12.092  34.998  18.779  1.00  0.00     0.187 C 
BRANCH  27  28
HETATM   28  C14 UNL     1      10.635  35.283  19.048  1.00  0.00    -0.035 A 
HETATM   29  C15 UNL     1       9.925  36.199  18.254  1.00  0.00     0.009 A 
HETATM   30  C16 UNL     1       8.572  36.454  18.497  1.00  0.00     0.004 A 
HETATM   31  C17 UNL     1       7.912  35.792  19.530  1.00  0.00     0.042 A 
HETATM   32  C18 UNL     1       8.609  34.880  20.314  1.00  0.00     0.117 A 
HETATM   33  F1  UNL     1       7.972  34.239  21.302  1.00  0.00    -0.206 F 
HETATM   34  C19 UNL     1       9.957  34.619  20.083  1.00  0.00     0.051 A 
ENDBRANCH  27  28
ENDBRANCH   9  27
TORSDOF 6
ENDMDL
MODEL 5
REMARK minimizedAffinity -7.63761044
REMARK  6 active torsions:
REMARK  status: ('A' for Active; 'I' for Inactive)
REMARK    1  A    between atoms: O1_1  and  C1_2 
REMARK    2  A    between atoms: C1_2  and  C2_3 
REMARK    3  A    between atoms: C6_12  and  N4_13 
REMARK    4  A    between atoms: N4_13  and  C7_14 
REMARK    5  A    between atoms: N6_22  and  C13_23 
REMARK    6  A    between atoms: C13_23  and  C14_24 
ROOT
HETATM    1  C7  UNL     1      15.403  36.490  16.865  1.00  0.00     0.034 A 
HETATM    2  C8  UNL     1      14.947  37.483  17.751  1.00  0.00     0.032 A 
HETATM    3  C9  UNL     1      13.889  37.270  18.647  1.00  0.00     0.034 A 
HETATM    4  C10 UNL     1      13.287  36.008  18.637  1.00  0.00     0.062 A 
HETATM    5  C11 UNL     1      13.711  34.995  17.784  1.00  0.00     0.011 A 
HETATM    6  C12 UNL     1      12.871  33.901  18.081  1.00  0.00     0.121 A 
HETATM    7  N5  UNL     1      11.977  34.177  19.031  1.00  0.00    -0.308 N 
ATOM      8  H5  UNL     1      11.255  33.568  19.416  1.00  0.00     0.186 HD
HETATM    9  N6  UNL     1      12.253  35.459  19.363  1.00  0.00    -0.288 N 
HETATM   10  C20 UNL     1      14.776  35.236  16.893  1.00  0.00     0.044 A 
ENDROOT
BRANCH   1  11
HETATM   11  N4  UNL     1      16.467  36.814  16.001  1.00  0.00    -0.341 N 
HETATM   12  H7  UNL     1      16.713  37.804  16.007  1.00  0.00     0.167 HD
BRANCH  11  13
HETATM   13  C6  UNL     1      17.081  36.065  15.017  1.00  0.00     0.136 A 
HETATM   14  N3  UNL     1      17.427  34.823  15.186  1.00  0.00    -0.336 N 
HETATM   15  C5  UNL     1      17.992  34.115  14.159  1.00  0.00     0.199 A 
ATOM     16  H3  UNL     1      17.275  34.372  16.089  1.00  0.00     0.168 HD
HETATM   17  N2  UNL     1      18.241  34.541  12.962  1.00  0.00    -0.289 N 
HETATM   18  N1  UNL     1      17.905  35.822  12.773  1.00  0.00    -0.262 N 
ATOM     19  H2  UNL     1      18.654  33.958  12.235  1.00  0.00     0.188 HD
HETATM   20  C4  UNL     1      18.068  36.519  11.608  1.00  0.00     0.117 A 
HETATM   21  C21 UNL     1      17.351  36.635  13.718  1.00  0.00     0.108 A 
HETATM   22  C3  UNL     1      17.636  37.809  11.815  1.00  0.00     0.031 A 
HETATM   23  C2  UNL     1      17.184  37.902  13.165  1.00  0.00    -0.001 A 
BRANCH  23  24
HETATM   24  C1  UNL     1      16.663  39.132  13.819  1.00  0.00     0.205 C 
BRANCH  24  25
HETATM   25  O1  UNL     1      15.718  39.793  12.979  1.00  0.00    -0.396 OA
HETATM   26  H1  UNL     1      16.224  40.074  12.192  1.00  0.00     0.209 HD
ENDBRANCH  24  25
ENDBRANCH  23  24
ENDBRANCH  11  13
ENDBRANCH   1  11
BRANCH   9  27
HETATM   27  C13 UNL     1      11.437  36.126  20.370  1.00  0.00     0.187 C 
BRANCH  27  28
HETATM   28  C14 UNL     1       9.980  36.184  19.979  1.00  0.00    -0.035 A 
HETATM   29  C15 UNL     1       9.601  36.570  18.682  1.00  0.00     0.009 A 
HETATM   30  C16 UNL     1       8.252  36.612  18.317  1.00  0.00     0.004 A 
HETATM   31  C17 UNL     1       7.269  36.261  19.240  1.00  0.00     0.042 A 
HETATM   32  C18 UNL     1       7.640  35.871  20.521  1.00  0.00     0.117 A 
HETATM   33  F1  UNL     1       6.695  35.527  21.404  1.00  0.00    -0.206 F 
HETATM   34  C19 UNL     1       8.980  35.828  20.897  1.00  0.00     0.051 A 
ENDBRANCH  27  28
ENDBRANCH   9  27
TORSDOF 6
ENDMDL
MODEL 6
REMARK minimizedAffinity -7.57233667
REMARK  6 active torsions:
REMARK  status: ('A' for Active; 'I' for Inactive)
REMARK    1  A    between atoms: O1_1  and  C1_2 
REMARK    2  A    between atoms: C1_2  and  C2_3 
REMARK    3  A    between atoms: C6_12  and  N4_13 
REMARK    4  A    between atoms: N4_13  and  C7_14 
REMARK    5  A    between atoms: N6_22  and  C13_23 
REMARK    6  A    between atoms: C13_23  and  C14_24 
ROOT
HETATM    1  C7  UNL     1      14.659  37.904  16.795  1.00  0.00     0.034 A 
HETATM    2  C8  UNL     1      13.666  37.116  16.186  1.00  0.00     0.032 A 
HETATM    3  C9  UNL     1      12.872  36.210  16.904  1.00  0.00     0.034 A 
HETATM    4  C10 UNL     1      13.099  36.113  18.280  1.00  0.00     0.062 A 
HETATM    5  C11 UNL     1      14.063  36.879  18.925  1.00  0.00     0.011 A 
HETATM    6  C12 UNL     1      13.976  36.499  20.281  1.00  0.00     0.121 A 
HETATM    7  N5  UNL     1      13.049  35.565  20.498  1.00  0.00    -0.308 N 
ATOM      8  H5  UNL     1      12.797  35.118  21.380  1.00  0.00     0.186 HD
HETATM    9  N6  UNL     1      12.520  35.352  19.271  1.00  0.00    -0.288 N 
HETATM   10  C20 UNL     1      14.848  37.781  18.179  1.00  0.00     0.044 A 
ENDROOT
BRANCH   1  11
HETATM   11  N4  UNL     1      15.405  38.776  15.978  1.00  0.00    -0.341 N 
HETATM   12  H7  UNL     1      15.986  38.297  15.290  1.00  0.00     0.167 HD
BRANCH  11  13
HETATM   13  C6  UNL     1      15.631  40.134  16.089  1.00  0.00     0.136 A 
HETATM   14  N3  UNL     1      15.133  40.857  17.048  1.00  0.00    -0.336 N 
HETATM   15  C5  UNL     1      15.428  42.192  17.133  1.00  0.00     0.199 A 
ATOM     16  H3  UNL     1      14.519  40.428  17.740  1.00  0.00     0.168 HD
HETATM   17  N2  UNL     1      16.189  42.875  16.340  1.00  0.00    -0.289 N 
HETATM   18  N1  UNL     1      16.701  42.150  15.339  1.00  0.00    -0.262 N 
ATOM     19  H2  UNL     1      16.380  43.869  16.466  1.00  0.00     0.188 HD
HETATM   20  C4  UNL     1      17.527  42.627  14.360  1.00  0.00     0.117 A 
HETATM   21  C21 UNL     1      16.471  40.821  15.136  1.00  0.00     0.108 A 
HETATM   22  C3  UNL     1      17.813  41.593  13.498  1.00  0.00     0.031 A 
HETATM   23  C2  UNL     1      17.134  40.433  13.975  1.00  0.00    -0.001 A 
BRANCH  23  24
HETATM   24  C1  UNL     1      17.144  39.095  13.323  1.00  0.00     0.205 C 
BRANCH  24  25
HETATM   25  O1  UNL     1      17.767  38.125  14.162  1.00  0.00    -0.396 OA
HETATM   26  H1  UNL     1      18.696  38.414  14.247  1.00  0.00     0.209 HD
ENDBRANCH  24  25
ENDBRANCH  23  24
ENDBRANCH  11  13
ENDBRANCH   1  11
BRANCH   9  27
HETATM   27  C13 UNL     1      11.475  34.348  19.111  1.00  0.00     0.187 C 
BRANCH  27  28
HETATM   28  C14 UNL     1      10.105  34.892  19.435  1.00  0.00    -0.035 A 
HETATM   29  C15 UNL     1       9.411  34.452  20.574  1.00  0.00     0.009 A 
HETATM   30  C16 UNL     1       8.146  34.965  20.881  1.00  0.00     0.004 A 
HETATM   31  C17 UNL     1       7.566  35.927  20.057  1.00  0.00     0.042 A 
HETATM   32  C18 UNL     1       8.253  36.370  18.933  1.00  0.00     0.117 A 
HETATM   33  F1  UNL     1       7.698  37.301  18.147  1.00  0.00    -0.206 F 
HETATM   34  C19 UNL     1       9.511  35.867  18.617  1.00  0.00     0.051 A 
ENDBRANCH  27  28
ENDBRANCH   9  27
TORSDOF 6
ENDMDL
MODEL 7
REMARK minimizedAffinity -7.50295639
REMARK  6 active torsions:
REMARK  status: ('A' for Active; 'I' for Inactive)
REMARK    1  A    between atoms: O1_1  and  C1_2 
REMARK    2  A    between atoms: C1_2  and  C2_3 
REMARK    3  A    between atoms: C6_12  and  N4_13 
REMARK    4  A    between atoms: N4_13  and  C7_14 
REMARK    5  A    between atoms: N6_22  and  C13_23 
REMARK    6  A    between atoms: C13_23  and  C14_24 
ROOT
HETATM    1  C7  UNL     1      16.418  52.859   5.241  1.00  0.00     0.034 A 
HETATM    2  C8  UNL     1      15.058  53.217   5.272  1.00  0.00     0.032 A 
HETATM    3  C9  UNL     1      14.593  54.465   4.830  1.00  0.00     0.034 A 
HETATM    4  C10 UNL     1      15.545  55.365   4.342  1.00  0.00     0.062 A 
HETATM    5  C11 UNL     1      16.898  55.050   4.286  1.00  0.00     0.011 A 
HETATM    6  C12 UNL     1      17.511  56.196   3.737  1.00  0.00     0.121 A 
HETATM    7  N5  UNL     1      16.641  57.171   3.471  1.00  0.00    -0.308 N 
ATOM      8  H5  UNL     1      16.829  58.096   3.084  1.00  0.00     0.186 HD
HETATM    9  N6  UNL     1      15.451  56.642   3.835  1.00  0.00    -0.288 N 
HETATM   10  C20 UNL     1      17.338  53.789   4.737  1.00  0.00     0.044 A 
ENDROOT
BRANCH   1  11
HETATM   11  N4  UNL     1      16.776  51.582   5.717  1.00  0.00    -0.341 N 
HETATM   12  H7  UNL     1      16.082  50.862   5.519  1.00  0.00     0.167 HD
BRANCH  11  13
HETATM   13  C6  UNL     1      17.792  51.197   6.569  1.00  0.00     0.136 A 
HETATM   14  N3  UNL     1      18.410  52.029   7.354  1.00  0.00    -0.336 N 
HETATM   15  C5  UNL     1      19.380  51.581   8.211  1.00  0.00     0.199 A 
ATOM     16  H3  UNL     1      18.171  53.020   7.332  1.00  0.00     0.168 HD
HETATM   17  N2  UNL     1      19.788  50.362   8.360  1.00  0.00    -0.289 N 
HETATM   18  N1  UNL     1      19.173  49.493   7.551  1.00  0.00    -0.262 N 
ATOM     19  H2  UNL     1      20.508  50.091   9.029  1.00  0.00     0.188 HD
HETATM   20  C4  UNL     1      19.420  48.149   7.499  1.00  0.00     0.117 A 
HETATM   21  C21 UNL     1      18.204  49.815   6.645  1.00  0.00     0.108 A 
HETATM   22  C3  UNL     1      18.615  47.602   6.525  1.00  0.00     0.031 A 
HETATM   23  C2  UNL     1      17.840  48.658   5.962  1.00  0.00    -0.001 A 
BRANCH  23  24
HETATM   24  C1  UNL     1      16.860  48.513   4.851  1.00  0.00     0.205 C 
BRANCH  24  25
HETATM   25  O1  UNL     1      17.257  49.285   3.720  1.00  0.00    -0.396 OA
HETATM   26  H1  UNL     1      17.226  50.215   4.016  1.00  0.00     0.209 HD
ENDBRANCH  24  25
ENDBRANCH  23  24
ENDBRANCH  11  13
ENDBRANCH   1  11
BRANCH   9  27
HETATM   27  C13 UNL     1      14.245  57.452   3.715  1.00  0.00     0.187 C 
BRANCH  27  28
HETATM   28  C14 UNL     1      13.750  57.534   2.291  1.00  0.00    -0.035 A 
HETATM   29  C15 UNL     1      13.418  58.772   1.718  1.00  0.00     0.009 A 
HETATM   30  C16 UNL     1      12.971  58.848   0.395  1.00  0.00     0.004 A 
HETATM   31  C17 UNL     1      12.860  57.690  -0.370  1.00  0.00     0.042 A 
HETATM   32  C18 UNL     1      13.195  56.463   0.191  1.00  0.00     0.117 A 
HETATM   33  F1  UNL     1      13.095  55.352  -0.549  1.00  0.00    -0.206 F 
HETATM   34  C19 UNL     1      13.639  56.374   1.507  1.00  0.00     0.051 A 
ENDBRANCH  27  28
ENDBRANCH   9  27
TORSDOF 6
ENDMDL
MODEL 8
REMARK minimizedAffinity -7.47711754
REMARK  6 active torsions:
REMARK  status: ('A' for Active; 'I' for Inactive)
REMARK    1  A    between atoms: O1_1  and  C1_2 
REMARK    2  A    between atoms: C1_2  and  C2_3 
REMARK    3  A    between atoms: C6_12  and  N4_13 
REMARK    4  A    between atoms: N4_13  and  C7_14 
REMARK    5  A    between atoms: N6_22  and  C13_23 
REMARK    6  A    between atoms: C13_23  and  C14_24 
ROOT
HETATM    1  C7  UNL     1      15.169  36.001  17.577  1.00  0.00     0.034 A 
HETATM    2  C8  UNL     1      14.245  35.052  17.107  1.00  0.00     0.032 A 
HETATM    3  C9  UNL     1      13.112  34.669  17.841  1.00  0.00     0.034 A 
HETATM    4  C10 UNL     1      12.922  35.277  19.086  1.00  0.00     0.062 A 
HETATM    5  C11 UNL     1      13.806  36.227  19.586  1.00  0.00     0.011 A 
HETATM    6  C12 UNL     1      13.268  36.594  20.837  1.00  0.00     0.121 A 
HETATM    7  N5  UNL     1      12.145  35.938  21.131  1.00  0.00    -0.308 N 
ATOM      8  H5  UNL     1      11.571  36.011  21.971  1.00  0.00     0.186 HD
HETATM    9  N6  UNL     1      11.946  35.151  20.048  1.00  0.00    -0.288 N 
HETATM   10  C20 UNL     1      14.937  36.593  18.827  1.00  0.00     0.044 A 
ENDROOT
BRANCH   1  11
HETATM   11  N4  UNL     1      16.277  36.306  16.761  1.00  0.00    -0.341 N 
HETATM   12  H7  UNL     1      17.167  35.986  17.143  1.00  0.00     0.167 HD
BRANCH  11  13
HETATM   13  C6  UNL     1      16.376  37.130  15.658  1.00  0.00     0.136 A 
HETATM   14  N3  UNL     1      15.875  38.329  15.623  1.00  0.00    -0.336 N 
HETATM   15  C5  UNL     1      16.043  39.118  14.517  1.00  0.00     0.199 A 
ATOM     16  H3  UNL     1      15.354  38.684  16.425  1.00  0.00     0.168 HD
HETATM   17  N2  UNL     1      16.680  38.815  13.431  1.00  0.00    -0.289 N 
HETATM   18  N1  UNL     1      17.191  37.580  13.443  1.00  0.00    -0.262 N 
ATOM     19  H2  UNL     1      16.781  39.456  12.644  1.00  0.00     0.188 HD
HETATM   20  C4  UNL     1      17.900  37.008  12.423  1.00  0.00     0.117 A 
HETATM   21  C21 UNL     1      17.079  36.694  14.474  1.00  0.00     0.108 A 
HETATM   22  C3  UNL     1      18.228  35.723  12.795  1.00  0.00     0.031 A 
HETATM   23  C2  UNL     1      17.698  35.504  14.101  1.00  0.00    -0.001 A 
BRANCH  23  24
HETATM   24  C1  UNL     1      17.795  34.234  14.871  1.00  0.00     0.205 C 
BRANCH  24  25
HETATM   25  O1  UNL     1      18.849  33.414  14.368  1.00  0.00    -0.396 OA
HETATM   26  H1  UNL     1      18.584  33.183  13.456  1.00  0.00     0.209 HD
ENDBRANCH  24  25
ENDBRANCH  23  24
ENDBRANCH  11  13
ENDBRANCH   1  11
BRANCH   9  27
HETATM   27  C13 UNL     1      10.803  34.246  20.026  1.00  0.00     0.187 C 
BRANCH  27  28
HETATM   28  C14 UNL     1       9.507  34.968  19.748  1.00  0.00    -0.035 A 
HETATM   29  C15 UNL     1       9.426  35.925  18.723  1.00  0.00     0.009 A 
HETATM   30  C16 UNL     1       8.222  36.585  18.458  1.00  0.00     0.004 A 
HETATM   31  C17 UNL     1       7.086  36.291  19.209  1.00  0.00     0.042 A 
HETATM   32  C18 UNL     1       7.161  35.341  20.220  1.00  0.00     0.117 A 
HETATM   33  F1  UNL     1       6.066  35.054  20.935  1.00  0.00    -0.206 F 
HETATM   34  C19 UNL     1       8.353  34.678  20.494  1.00  0.00     0.051 A 
ENDBRANCH  27  28
ENDBRANCH   9  27
TORSDOF 6
ENDMDL
MODEL 9
REMARK minimizedAffinity -7.44453192
REMARK  6 active torsions:
REMARK  status: ('A' for Active; 'I' for Inactive)
REMARK    1  A    between atoms: O1_1  and  C1_2 
REMARK    2  A    between atoms: C1_2  and  C2_3 
REMARK    3  A    between atoms: C6_12  and  N4_13 
REMARK    4  A    between atoms: N4_13  and  C7_14 
REMARK    5  A    between atoms: N6_22  and  C13_23 
REMARK    6  A    between atoms: C13_23  and  C14_24 
ROOT
HETATM    1  C7  UNL     1      12.587  35.156  17.530  1.00  0.00     0.034 A 
HETATM    2  C8  UNL     1      12.741  36.095  16.495  1.00  0.00     0.032 A 
HETATM    3  C9  UNL     1      13.988  36.401  15.930  1.00  0.00     0.034 A 
HETATM    4  C10 UNL     1      15.102  35.725  16.434  1.00  0.00     0.062 A 
HETATM    5  C11 UNL     1      14.995  34.782  17.451  1.00  0.00     0.011 A 
HETATM    6  C12 UNL     1      16.316  34.334  17.665  1.00  0.00     0.121 A 
HETATM    7  N5  UNL     1      17.202  34.936  16.870  1.00  0.00    -0.308 N 
ATOM      8  H5  UNL     1      18.212  34.800  16.834  1.00  0.00     0.186 HD
HETATM    9  N6  UNL     1      16.443  35.769  16.123  1.00  0.00    -0.288 N 
HETATM   10  C20 UNL     1      13.730  34.494  18.002  1.00  0.00     0.044 A 
ENDROOT
BRANCH   1  11
HETATM   11  N4  UNL     1      11.290  34.930  18.032  1.00  0.00    -0.341 N 
HETATM   12  H7  UNL     1      10.549  35.202  17.386  1.00  0.00     0.167 HD
BRANCH  11  13
HETATM   13  C6  UNL     1      10.866  34.603  19.304  1.00  0.00     0.136 A 
HETATM   14  N3  UNL     1      11.564  33.862  20.113  1.00  0.00    -0.336 N 
HETATM   15  C5  UNL     1      11.114  33.607  21.381  1.00  0.00     0.199 A 
ATOM     16  H3  UNL     1      12.453  33.469  19.802  1.00  0.00     0.168 HD
HETATM   17  N2  UNL     1      10.018  34.035  21.921  1.00  0.00    -0.289 N 
HETATM   18  N1  UNL     1       9.280  34.789  21.099  1.00  0.00    -0.262 N 
ATOM     19  H2  UNL     1       9.745  33.819  22.879  1.00  0.00     0.188 HD
HETATM   20  C4  UNL     1       8.077  35.358  21.414  1.00  0.00     0.117 A 
HETATM   21  C21 UNL     1       9.610  35.101  19.813  1.00  0.00     0.108 A 
HETATM   22  C3  UNL     1       7.614  36.026  20.304  1.00  0.00     0.031 A 
HETATM   23  C2  UNL     1       8.579  35.861  19.267  1.00  0.00    -0.001 A 
BRANCH  23  24
HETATM   24  C1  UNL     1       8.461  36.396  17.883  1.00  0.00     0.205 C 
BRANCH  24  25
HETATM   25  O1  UNL     1       8.714  35.374  16.921  1.00  0.00    -0.396 OA
HETATM   26  H1  UNL     1       9.647  35.117  17.055  1.00  0.00     0.209 HD
ENDBRANCH  24  25
ENDBRANCH  23  24
ENDBRANCH  11  13
ENDBRANCH   1  11
BRANCH   9  27
HETATM   27  C13 UNL     1      17.088  36.634  15.143  1.00  0.00     0.187 C 
BRANCH  27  28
HETATM   28  C14 UNL     1      17.042  38.088  15.546  1.00  0.00    -0.035 A 
HETATM   29  C15 UNL     1      17.443  38.489  16.831  1.00  0.00     0.009 A 
HETATM   30  C16 UNL     1      17.412  39.838  17.199  1.00  0.00     0.004 A 
HETATM   31  C17 UNL     1      16.987  40.800  16.286  1.00  0.00     0.042 A 
HETATM   32  C18 UNL     1      16.596  40.408  15.011  1.00  0.00     0.117 A 
HETATM   33  F1  UNL     1      16.195  41.335  14.132  1.00  0.00    -0.206 F 
HETATM   34  C19 UNL     1      16.621  39.069  14.633  1.00  0.00     0.051 A 
ENDBRANCH  27  28
ENDBRANCH   9  27
TORSDOF 6
ENDMDL
