MODEL 1
REMARK minimizedAffinity -10.0927525
REMARK CNNscore 0.874178827
REMARK CNNaffinity 7.67813301
REMARK  5 active torsions:
REMARK  status: ('A' for Active; 'I' for Inactive)
REMARK    1  A    between atoms: O1_2  and  C2_3 
REMARK    2  A    between atoms: C3_4  and  N1_5 
REMARK    3  A    between atoms: N1_5  and  S1_7 
REMARK    4  A    between atoms: C7_12  and  N3_33 
REMARK    5  A    between atoms: C8_14  and  N2_16 
ROOT
HETATM    1  C2  UNL     1       9.611  -8.479  26.892  1.00  0.00     0.200 C 
HETATM    2  C3  UNL     1      10.359  -9.732  26.395  1.00  0.00     0.133 C 
HETATM    3  C6  UNL     1      11.725  -9.825  27.074  1.00  0.00     0.083 C 
HETATM    4  C7  UNL     1      11.619  -9.583  28.584  1.00  0.00     0.233 C 
HETATM    5  O4  UNL     1      10.281  -9.570  29.080  1.00  0.00    -0.333 OA
HETATM    6  C8  UNL     1       9.318  -8.704  28.426  1.00  0.00     0.168 C 
HETATM    7  C9  UNL     1       8.040  -9.563  28.575  1.00  0.00     0.074 C 
ENDROOT
BRANCH   2   8
HETATM    8  N1  UNL     1      10.505  -9.842  24.906  1.00  0.00    -0.308 N 
HETATM    9  C4  UNL     1      11.707 -10.489  24.354  1.00  0.00     0.163 C 
BRANCH   8  10
HETATM   10  S1  UNL     1       9.682  -8.752  23.908  1.00  0.00     0.224 S 
HETATM   11  C5  UNL     1       9.673  -9.592  22.337  1.00  0.00     0.186 C 
HETATM   12  O2  UNL     1       8.311  -8.668  24.363  1.00  0.00    -0.206 OA
HETATM   13  O3  UNL     1      10.502  -7.568  23.762  1.00  0.00    -0.206 OA
ENDBRANCH   8  10
ENDBRANCH   2   8
BRANCH   1  14
HETATM   14  O1  UNL     1      10.464  -7.345  26.637  1.00  0.00    -0.384 OA
HETATM   15  C1  UNL     1       9.761  -6.131  26.395  1.00  0.00     0.202 C 
ENDBRANCH   1  14
BRANCH   6  16
HETATM   16  N2  UNL     1       9.257  -7.445  29.188  1.00  0.00    -0.308 N 
HETATM   17  C10 UNL     1      10.256  -6.811  29.929  1.00  0.00     0.049 A 
HETATM   18  C11 UNL     1      11.608  -7.119  30.177  1.00  0.00     0.030 A 
HETATM   19  C15 UNL     1       9.677  -5.665  30.513  1.00  0.00     0.004 A 
HETATM   20  C12 UNL     1      12.374  -6.259  30.972  1.00  0.00     0.002 A 
HETATM   21  C13 UNL     1      11.821  -5.117  31.528  1.00  0.00     0.001 A 
HETATM   22  C14 UNL     1      10.476  -4.816  31.310  1.00  0.00     0.014 A 
HETATM   23  C16 UNL     1       8.298  -5.650  30.168  1.00  0.00     0.015 A 
HETATM   24  C17 UNL     1       7.178  -4.853  30.456  1.00  0.00    -0.010 A 
HETATM   25  C27 UNL     1       8.087  -6.747  29.361  1.00  0.00     0.077 A 
HETATM   26  C18 UNL     1       5.877  -5.174  29.962  1.00  0.00     0.054 A 
HETATM   27  C29 UNL     1       7.095  -3.610  31.293  1.00  0.00     0.163 A 
HETATM   28  C19 UNL     1       5.576  -6.276  29.146  1.00  0.00     0.022 A 
HETATM   29  C28 UNL     1       4.958  -4.146  30.473  1.00  0.00     0.253 A 
HETATM   30  C20 UNL     1       4.443  -6.873  28.512  1.00  0.00     0.004 A 
HETATM   31  C26 UNL     1       6.663  -7.070  28.816  1.00  0.00     0.077 A 
HETATM   32  C21 UNL     1       3.064  -6.569  28.463  1.00  0.00     0.014 A 
HETATM   33  C25 UNL     1       4.897  -7.994  27.800  1.00  0.00     0.048 A 
HETATM   34  C22 UNL     1       2.191  -7.370  27.721  1.00  0.00     0.001 A 
HETATM   35  C23 UNL     1       2.668  -8.470  27.020  1.00  0.00     0.002 A 
HETATM   36  C24 UNL     1       4.023  -8.802  27.047  1.00  0.00     0.030 A 
HETATM   37  N3  UNL     1       6.269  -8.081  27.996  1.00  0.00    -0.316 N 
HETATM   38  O5  UNL     1       3.762  -4.051  30.285  1.00  0.00    -0.268 OA
HETATM   39  N4  UNL     1       5.702  -3.271  31.233  1.00  0.00    -0.353 N 
HETATM   40  H26 UNL     1       5.270  -2.473  31.675  1.00  0.00     0.163 HD
ENDBRANCH   6  16
TORSDOF 5
ENDMDL
MODEL 2
REMARK minimizedAffinity -10.2341824
REMARK CNNscore 0.842056751
REMARK CNNaffinity 7.87347078
REMARK  5 active torsions:
REMARK  status: ('A' for Active; 'I' for Inactive)
REMARK    1  A    between atoms: O1_2  and  C2_3 
REMARK    2  A    between atoms: C3_4  and  N1_5 
REMARK    3  A    between atoms: N1_5  and  S1_7 
REMARK    4  A    between atoms: C7_12  and  N3_33 
REMARK    5  A    between atoms: C8_14  and  N2_16 
ROOT
HETATM    1  C2  UNL     1      10.846  -9.481  29.172  1.00  0.00     0.200 C 
HETATM    2  C3  UNL     1      12.249  -9.653  28.558  1.00  0.00     0.133 C 
HETATM    3  C6  UNL     1      12.154  -9.638  27.033  1.00  0.00     0.083 C 
HETATM    4  C7  UNL     1      11.271  -8.487  26.537  1.00  0.00     0.233 C 
HETATM    5  O4  UNL     1      10.928  -7.539  27.545  1.00  0.00    -0.333 OA
HETATM    6  C8  UNL     1      10.354  -8.033  28.782  1.00  0.00     0.168 C 
HETATM    7  C9  UNL     1      10.949  -7.013  29.782  1.00  0.00     0.074 C 
ENDROOT
BRANCH   2   8
HETATM    8  N1  UNL     1      13.008 -10.860  29.024  1.00  0.00    -0.308 N 
HETATM    9  C4  UNL     1      13.222 -11.974  28.084  1.00  0.00     0.163 C 
BRANCH   8  10
HETATM   10  S1  UNL     1      13.070 -11.216  30.677  1.00  0.00     0.224 S 
HETATM   11  C5  UNL     1      14.724 -11.845  30.879  1.00  0.00     0.186 C 
HETATM   12  O2  UNL     1      12.986  -9.972  31.411  1.00  0.00    -0.206 OA
HETATM   13  O3  UNL     1      12.156 -12.308  30.936  1.00  0.00    -0.206 OA
ENDBRANCH   8  10
ENDBRANCH   2   8
BRANCH   1  14
HETATM   14  O1  UNL     1      10.014 -10.527  28.632  1.00  0.00    -0.384 OA
HETATM   15  C1  UNL     1      10.732 -11.679  28.205  1.00  0.00     0.202 C 
ENDBRANCH   1  14
BRANCH   6  16
HETATM   16  N2  UNL     1       8.889  -7.938  28.667  1.00  0.00    -0.308 N 
HETATM   17  C10 UNL     1       8.006  -8.741  27.944  1.00  0.00     0.049 A 
HETATM   18  C11 UNL     1       8.188  -9.878  27.133  1.00  0.00     0.030 A 
HETATM   19  C15 UNL     1       6.715  -8.200  28.116  1.00  0.00     0.004 A 
HETATM   20  C12 UNL     1       7.075 -10.483  26.537  1.00  0.00     0.002 A 
HETATM   21  C13 UNL     1       5.800  -9.974  26.722  1.00  0.00     0.001 A 
HETATM   22  C14 UNL     1       5.611  -8.832  27.502  1.00  0.00     0.014 A 
HETATM   23  C16 UNL     1       6.838  -7.020  28.900  1.00  0.00     0.015 A 
HETATM   24  C17 UNL     1       5.985  -6.010  29.373  1.00  0.00    -0.010 A 
HETATM   25  C27 UNL     1       8.174  -6.901  29.215  1.00  0.00     0.077 A 
HETATM   26  C18 UNL     1       6.477  -4.896  30.120  1.00  0.00     0.054 A 
HETATM   27  C29 UNL     1       4.502  -5.868  29.196  1.00  0.00     0.163 A 
HETATM   28  C19 UNL     1       7.821  -4.695  30.473  1.00  0.00     0.022 A 
HETATM   29  C28 UNL     1       5.321  -4.040  30.427  1.00  0.00     0.253 A 
HETATM   30  C20 UNL     1       8.623  -3.738  31.168  1.00  0.00     0.004 A 
HETATM   31  C26 UNL     1       8.689  -5.688  30.048  1.00  0.00     0.077 A 
HETATM   32  C21 UNL     1       8.358  -2.512  31.818  1.00  0.00     0.014 A 
HETATM   33  C25 UNL     1       9.946  -4.207  31.158  1.00  0.00     0.048 A 
HETATM   34  C22 UNL     1       9.394  -1.801  32.432  1.00  0.00     0.001 A 
HETATM   35  C23 UNL     1      10.693  -2.291  32.412  1.00  0.00     0.002 A 
HETATM   36  C24 UNL     1      10.993  -3.497  31.777  1.00  0.00     0.030 A 
HETATM   37  N3  UNL     1       9.952  -5.415  30.473  1.00  0.00    -0.316 N 
HETATM   38  O5  UNL     1       5.306  -2.996  31.046  1.00  0.00    -0.268 OA
HETATM   39  N4  UNL     1       4.210  -4.638  29.874  1.00  0.00    -0.353 N 
HETATM   40  H26 UNL     1       3.295  -4.222  29.974  1.00  0.00     0.163 HD
ENDBRANCH   6  16
TORSDOF 5
ENDMDL
MODEL 3
REMARK minimizedAffinity -9.97550011
REMARK CNNscore 0.785665333
REMARK CNNaffinity 7.52688456
REMARK  5 active torsions:
REMARK  status: ('A' for Active; 'I' for Inactive)
REMARK    1  A    between atoms: O1_2  and  C2_3 
REMARK    2  A    between atoms: C3_4  and  N1_5 
REMARK    3  A    between atoms: N1_5  and  S1_7 
REMARK    4  A    between atoms: C7_12  and  N3_33 
REMARK    5  A    between atoms: C8_14  and  N2_16 
ROOT
HETATM    1  C2  UNL     1       9.977  -8.997  26.770  1.00  0.00     0.200 C 
HETATM    2  C3  UNL     1      11.418  -8.480  26.582  1.00  0.00     0.133 C 
HETATM    3  C6  UNL     1      11.407  -6.962  26.408  1.00  0.00     0.083 C 
HETATM    4  C7  UNL     1      10.514  -6.283  27.452  1.00  0.00     0.233 C 
HETATM    5  O4  UNL     1      10.083  -7.148  28.501  1.00  0.00    -0.333 OA
HETATM    6  C8  UNL     1       9.459  -8.406  28.138  1.00  0.00     0.168 C 
HETATM    7  C9  UNL     1       9.962  -9.301  29.296  1.00  0.00     0.074 C 
ENDROOT
BRANCH   2   8
HETATM    8  N1  UNL     1      12.191  -9.130  25.472  1.00  0.00    -0.308 N 
HETATM    9  C4  UNL     1      12.963 -10.350  25.762  1.00  0.00     0.163 C 
BRANCH   8  10
HETATM   10  S1  UNL     1      12.673  -8.204  24.141  1.00  0.00     0.224 S 
HETATM   11  C5  UNL     1      13.669  -9.350  23.209  1.00  0.00     0.186 C 
HETATM   12  O2  UNL     1      11.499  -7.906  23.349  1.00  0.00    -0.206 OA
HETATM   13  O3  UNL     1      13.549  -7.154  24.616  1.00  0.00    -0.206 OA
ENDBRANCH   8  10
ENDBRANCH   2   8
BRANCH   1  14
HETATM   14  O1  UNL     1       9.213  -8.548  25.632  1.00  0.00    -0.384 OA
HETATM   15  C1  UNL     1       9.069  -7.135  25.549  1.00  0.00     0.202 C 
ENDBRANCH   1  14
BRANCH   6  16
HETATM   16  N2  UNL     1       8.000  -8.206  28.159  1.00  0.00    -0.308 N 
HETATM   17  C10 UNL     1       7.004  -8.897  27.466  1.00  0.00     0.049 A 
HETATM   18  C11 UNL     1       7.036  -9.984  26.572  1.00  0.00     0.030 A 
HETATM   19  C15 UNL     1       5.774  -8.285  27.786  1.00  0.00     0.004 A 
HETATM   20  C12 UNL     1       5.837 -10.471  26.038  1.00  0.00     0.002 A 
HETATM   21  C13 UNL     1       4.622  -9.893  26.367  1.00  0.00     0.001 A 
HETATM   22  C14 UNL     1       4.581  -8.798  27.232  1.00  0.00     0.014 A 
HETATM   23  C16 UNL     1       6.047  -7.174  28.630  1.00  0.00     0.015 A 
HETATM   24  C17 UNL     1       5.311  -6.145  29.239  1.00  0.00    -0.010 A 
HETATM   25  C27 UNL     1       7.410  -7.166  28.833  1.00  0.00     0.077 A 
HETATM   26  C18 UNL     1       5.942  -5.121  30.011  1.00  0.00     0.054 A 
HETATM   27  C29 UNL     1       3.832  -5.894  29.203  1.00  0.00     0.163 A 
HETATM   28  C19 UNL     1       7.322  -5.034  30.256  1.00  0.00     0.022 A 
HETATM   29  C28 UNL     1       4.881  -4.214  30.472  1.00  0.00     0.253 A 
HETATM   30  C20 UNL     1       8.246  -4.184  30.938  1.00  0.00     0.004 A 
HETATM   31  C26 UNL     1       8.078  -6.050  29.693  1.00  0.00     0.077 A 
HETATM   32  C21 UNL     1       8.125  -2.992  31.686  1.00  0.00     0.014 A 
HETATM   33  C25 UNL     1       9.527  -4.738  30.781  1.00  0.00     0.048 A 
HETATM   34  C22 UNL     1       9.257  -2.395  32.250  1.00  0.00     0.001 A 
HETATM   35  C23 UNL     1      10.511  -2.967  32.085  1.00  0.00     0.002 A 
HETATM   36  C24 UNL     1      10.669  -4.143  31.350  1.00  0.00     0.030 A 
HETATM   37  N3  UNL     1       9.388  -5.892  30.022  1.00  0.00    -0.316 N 
HETATM   38  O5  UNL     1       4.992  -3.217  31.156  1.00  0.00    -0.268 OA
HETATM   39  N4  UNL     1       3.687  -4.698  29.982  1.00  0.00    -0.353 N 
HETATM   40  H26 UNL     1       2.816  -4.230  30.189  1.00  0.00     0.163 HD
ENDBRANCH   6  16
TORSDOF 5
ENDMDL
MODEL 4
REMARK minimizedAffinity -7.55204868
REMARK CNNscore 0.667770624
REMARK CNNaffinity 6.36814833
REMARK  5 active torsions:
REMARK  status: ('A' for Active; 'I' for Inactive)
REMARK    1  A    between atoms: O1_2  and  C2_3 
REMARK    2  A    between atoms: C3_4  and  N1_5 
REMARK    3  A    between atoms: N1_5  and  S1_7 
REMARK    4  A    between atoms: C7_12  and  N3_33 
REMARK    5  A    between atoms: C8_14  and  N2_16 
ROOT
HETATM    1  C2  UNL     1       7.250 -17.979  41.190  1.00  0.00     0.200 C 
HETATM    2  C3  UNL     1       8.522 -17.108  41.235  1.00  0.00     0.133 C 
HETATM    3  C6  UNL     1       8.204 -15.699  40.738  1.00  0.00     0.083 C 
HETATM    4  C7  UNL     1       6.919 -15.156  41.372  1.00  0.00     0.233 C 
HETATM    5  O4  UNL     1       6.426 -15.943  42.455  1.00  0.00    -0.333 OA
HETATM    6  C8  UNL     1       6.243 -17.365  42.238  1.00  0.00     0.168 C 
HETATM    7  C9  UNL     1       6.594 -17.899  43.647  1.00  0.00     0.074 C 
ENDROOT
BRANCH   2   8
HETATM    8  N1  UNL     1       9.706 -17.669  40.505  1.00  0.00    -0.308 N 
HETATM    9  C4  UNL     1       9.882 -19.130  40.446  1.00  0.00     0.163 C 
BRANCH   8  10
HETATM   10  S1  UNL     1      11.088 -16.712  40.303  1.00  0.00     0.224 S 
HETATM   11  C5  UNL     1      11.470 -16.223  41.972  1.00  0.00     0.186 C 
HETATM   12  O2  UNL     1      12.163 -17.563  39.843  1.00  0.00    -0.206 OA
HETATM   13  O3  UNL     1      10.707 -15.519  39.577  1.00  0.00    -0.206 OA
ENDBRANCH   8  10
ENDBRANCH   2   8
BRANCH   1  14
HETATM   14  O1  UNL     1       6.755 -17.939  39.836  1.00  0.00    -0.384 OA
HETATM   15  C1  UNL     1       7.316 -18.929  38.982  1.00  0.00     0.202 C 
ENDBRANCH   1  14
BRANCH   6  16
HETATM   16  N2  UNL     1       4.833 -17.587  41.875  1.00  0.00    -0.308 N 
HETATM   17  C10 UNL     1       4.280 -18.549  41.028  1.00  0.00     0.049 A 
HETATM   18  C11 UNL     1       4.838 -19.604  40.281  1.00  0.00     0.030 A 
HETATM   19  C15 UNL     1       2.893 -18.303  40.969  1.00  0.00     0.004 A 
HETATM   20  C12 UNL     1       4.000 -20.424  39.517  1.00  0.00     0.002 A 
HETATM   21  C13 UNL     1       2.634 -20.207  39.474  1.00  0.00     0.001 A 
HETATM   22  C14 UNL     1       2.072 -19.147  40.188  1.00  0.00     0.014 A 
HETATM   23  C16 UNL     1       2.623 -17.140  41.740  1.00  0.00     0.015 A 
HETATM   24  C17 UNL     1       1.504 -16.346  42.042  1.00  0.00    -0.010 A 
HETATM   25  C27 UNL     1       3.829 -16.740  42.274  1.00  0.00     0.077 A 
HETATM   26  C18 UNL     1       1.610 -15.166  42.841  1.00  0.00     0.054 A 
HETATM   27  C29 UNL     1       0.078 -16.526  41.613  1.00  0.00     0.163 A 
HETATM   28  C19 UNL     1       2.799 -14.686  43.412  1.00  0.00     0.022 A 
HETATM   29  C28 UNL     1       0.261 -14.587  42.931  1.00  0.00     0.253 A 
HETATM   30  C20 UNL     1       3.245 -13.591  44.215  1.00  0.00     0.004 A 
HETATM   31  C26 UNL     1       3.920 -15.459  43.159  1.00  0.00     0.077 A 
HETATM   32  C21 UNL     1       2.615 -12.464  44.788  1.00  0.00     0.014 A 
HETATM   33  C25 UNL     1       4.621 -13.763  44.438  1.00  0.00     0.048 A 
HETATM   34  C22 UNL     1       3.353 -11.557  45.554  1.00  0.00     0.001 A 
HETATM   35  C23 UNL     1       4.712 -11.754  45.765  1.00  0.00     0.002 A 
HETATM   36  C24 UNL     1       5.368 -12.855  45.212  1.00  0.00     0.030 A 
HETATM   37  N3  UNL     1       5.003 -14.928  43.787  1.00  0.00    -0.316 N 
HETATM   38  O5  UNL     1      -0.084 -13.582  43.519  1.00  0.00    -0.268 OA
HETATM   39  N4  UNL     1      -0.584 -15.401  42.210  1.00  0.00    -0.353 N 
HETATM   40  H26 UNL     1      -1.570 -15.194  42.145  1.00  0.00     0.163 HD
ENDBRANCH   6  16
TORSDOF 5
ENDMDL
MODEL 5
REMARK minimizedAffinity -7.61854124
REMARK CNNscore 0.544514477
REMARK CNNaffinity 6.05887604
REMARK  5 active torsions:
REMARK  status: ('A' for Active; 'I' for Inactive)
REMARK    1  A    between atoms: O1_2  and  C2_3 
REMARK    2  A    between atoms: C3_4  and  N1_5 
REMARK    3  A    between atoms: N1_5  and  S1_7 
REMARK    4  A    between atoms: C7_12  and  N3_33 
REMARK    5  A    between atoms: C8_14  and  N2_16 
ROOT
HETATM    1  C2  UNL     1       1.204   7.857  35.991  1.00  0.00     0.200 C 
HETATM    2  C3  UNL     1       0.047   8.033  34.988  1.00  0.00     0.133 C 
HETATM    3  C6  UNL     1      -0.949   6.883  35.137  1.00  0.00     0.083 C 
HETATM    4  C7  UNL     1      -1.286   6.620  36.609  1.00  0.00     0.233 C 
HETATM    5  O4  UNL     1      -0.818   7.627  37.503  1.00  0.00    -0.333 OA
HETATM    6  C8  UNL     1       0.580   8.007  37.433  1.00  0.00     0.168 C 
HETATM    7  C9  UNL     1       0.468   9.511  37.780  1.00  0.00     0.074 C 
ENDROOT
BRANCH   2   8
HETATM    8  N1  UNL     1       0.462   8.185  33.554  1.00  0.00    -0.308 N 
HETATM    9  C4  UNL     1       0.731   9.535  33.030  1.00  0.00     0.163 C 
BRANCH   8  10
HETATM   10  S1  UNL     1       0.043   6.987  32.435  1.00  0.00     0.224 S 
HETATM   11  C5  UNL     1      -1.675   7.333  32.118  1.00  0.00     0.186 C 
HETATM   12  O2  UNL     1       0.770   7.239  31.210  1.00  0.00    -0.206 OA
HETATM   13  O3  UNL     1       0.111   5.704  33.103  1.00  0.00    -0.206 OA
ENDBRANCH   8  10
ENDBRANCH   2   8
BRANCH   1  14
HETATM   14  O1  UNL     1       1.780   6.557  35.755  1.00  0.00    -0.384 OA
HETATM   15  C1  UNL     1       2.995   6.584  35.015  1.00  0.00     0.202 C 
ENDBRANCH   1  14
BRANCH   6  16
HETATM   16  N2  UNL     1       1.308   7.235  38.455  1.00  0.00    -0.308 N 
HETATM   17  C10 UNL     1       0.832   6.250  39.322  1.00  0.00     0.049 A 
HETATM   18  C11 UNL     1      -0.434   5.660  39.501  1.00  0.00     0.030 A 
HETATM   19  C15 UNL     1       1.911   5.862  40.143  1.00  0.00     0.004 A 
HETATM   20  C12 UNL     1      -0.597   4.663  40.470  1.00  0.00     0.002 A 
HETATM   21  C13 UNL     1       0.463   4.257  41.263  1.00  0.00     0.001 A 
HETATM   22  C14 UNL     1       1.716   4.854  41.112  1.00  0.00     0.014 A 
HETATM   23  C16 UNL     1       3.029   6.672  39.804  1.00  0.00     0.015 A 
HETATM   24  C17 UNL     1       4.347   6.841  40.258  1.00  0.00    -0.010 A 
HETATM   25  C27 UNL     1       2.619   7.489  38.773  1.00  0.00     0.077 A 
HETATM   26  C18 UNL     1       5.216   7.828  39.700  1.00  0.00     0.054 A 
HETATM   27  C29 UNL     1       5.070   6.107  41.349  1.00  0.00     0.163 A 
HETATM   28  C19 UNL     1       4.874   8.704  38.658  1.00  0.00     0.022 A 
HETATM   29  C28 UNL     1       6.494   7.733  40.422  1.00  0.00     0.253 A 
HETATM   30  C20 UNL     1       5.461   9.766  37.903  1.00  0.00     0.004 A 
HETATM   31  C26 UNL     1       3.589   8.548  38.165  1.00  0.00     0.077 A 
HETATM   32  C21 UNL     1       6.718  10.411  37.918  1.00  0.00     0.014 A 
HETATM   33  C25 UNL     1       4.511  10.193  36.962  1.00  0.00     0.048 A 
HETATM   34  C22 UNL     1       6.993  11.441  37.012  1.00  0.00     0.001 A 
HETATM   35  C23 UNL     1       6.037  11.839  36.087  1.00  0.00     0.002 A 
HETATM   36  C24 UNL     1       4.783  11.226  36.045  1.00  0.00     0.030 A 
HETATM   37  N3  UNL     1       3.375   9.415  37.139  1.00  0.00    -0.316 N 
HETATM   38  O5  UNL     1       7.499   8.394  40.256  1.00  0.00    -0.268 OA
HETATM   39  N4  UNL     1       6.362   6.733  41.360  1.00  0.00    -0.353 N 
HETATM   40  H26 UNL     1       7.131   6.488  41.967  1.00  0.00     0.163 HD
ENDBRANCH   6  16
TORSDOF 5
ENDMDL
MODEL 6
REMARK minimizedAffinity -7.07493734
REMARK CNNscore 0.541327178
REMARK CNNaffinity 6.05424643
REMARK  5 active torsions:
REMARK  status: ('A' for Active; 'I' for Inactive)
REMARK    1  A    between atoms: O1_2  and  C2_3 
REMARK    2  A    between atoms: C3_4  and  N1_5 
REMARK    3  A    between atoms: N1_5  and  S1_7 
REMARK    4  A    between atoms: C7_12  and  N3_33 
REMARK    5  A    between atoms: C8_14  and  N2_16 
ROOT
HETATM    1  C2  UNL     1       2.034   6.245  42.957  1.00  0.00     0.200 C 
HETATM    2  C3  UNL     1       1.171   5.103  43.529  1.00  0.00     0.133 C 
HETATM    3  C6  UNL     1      -0.013   4.830  42.602  1.00  0.00     0.083 C 
HETATM    4  C7  UNL     1       0.429   4.754  41.136  1.00  0.00     0.233 C 
HETATM    5  O4  UNL     1       1.843   4.702  40.955  1.00  0.00    -0.333 OA
HETATM    6  C8  UNL     1       2.653   5.713  41.607  1.00  0.00     0.168 C 
HETATM    7  C9  UNL     1       3.917   4.879  41.927  1.00  0.00     0.074 C 
ENDROOT
BRANCH   2   8
HETATM    8  N1  UNL     1       0.698   5.303  44.939  1.00  0.00    -0.308 N 
HETATM    9  C4  UNL     1       1.508   6.129  45.851  1.00  0.00     0.163 C 
BRANCH   8  10
HETATM   10  S1  UNL     1      -0.341   4.165  45.637  1.00  0.00     0.224 S 
HETATM   11  C5  UNL     1      -1.952   4.789  45.202  1.00  0.00     0.186 C 
HETATM   12  O2  UNL     1      -0.163   2.906  44.948  1.00  0.00    -0.206 OA
HETATM   13  O3  UNL     1      -0.213   4.262  47.076  1.00  0.00    -0.206 OA
ENDBRANCH   8  10
ENDBRANCH   2   8
BRANCH   1  14
HETATM   14  O1  UNL     1       1.166   7.382  42.773  1.00  0.00    -0.384 OA
HETATM   15  C1  UNL     1       1.663   8.591  43.338  1.00  0.00     0.202 C 
ENDBRANCH   1  14
BRANCH   6  16
HETATM   16  N2  UNL     1       2.905   6.786  40.630  1.00  0.00    -0.308 N 
HETATM   17  C10 UNL     1       2.220   7.085  39.451  1.00  0.00     0.049 A 
HETATM   18  C11 UNL     1       1.094   6.516  38.825  1.00  0.00     0.030 A 
HETATM   19  C15 UNL     1       2.888   8.169  38.845  1.00  0.00     0.004 A 
HETATM   20  C12 UNL     1       0.627   7.061  37.623  1.00  0.00     0.002 A 
HETATM   21  C13 UNL     1       1.261   8.142  37.035  1.00  0.00     0.001 A 
HETATM   22  C14 UNL     1       2.393   8.698  37.633  1.00  0.00     0.014 A 
HETATM   23  C16 UNL     1       4.024   8.480  39.641  1.00  0.00     0.015 A 
HETATM   24  C17 UNL     1       5.105   9.375  39.580  1.00  0.00    -0.010 A 
HETATM   25  C27 UNL     1       3.994   7.617  40.715  1.00  0.00     0.077 A 
HETATM   26  C18 UNL     1       6.139   9.378  40.566  1.00  0.00     0.054 A 
HETATM   27  C29 UNL     1       5.406  10.421  38.547  1.00  0.00     0.163 A 
HETATM   28  C19 UNL     1       6.188   8.527  41.682  1.00  0.00     0.022 A 
HETATM   29  C28 UNL     1       7.101  10.419  40.176  1.00  0.00     0.253 A 
HETATM   30  C20 UNL     1       7.034   8.265  42.803  1.00  0.00     0.004 A 
HETATM   31  C26 UNL     1       5.122   7.649  41.791  1.00  0.00     0.077 A 
HETATM   32  C21 UNL     1       8.261   8.794  43.260  1.00  0.00     0.014 A 
HETATM   33  C25 UNL     1       6.430   7.250  43.562  1.00  0.00     0.048 A 
HETATM   34  C22 UNL     1       8.843   8.313  44.437  1.00  0.00     0.001 A 
HETATM   35  C23 UNL     1       8.220   7.313  45.173  1.00  0.00     0.002 A 
HETATM   36  C24 UNL     1       7.008   6.765  44.750  1.00  0.00     0.030 A 
HETATM   37  N3  UNL     1       5.249   6.902  42.921  1.00  0.00    -0.316 N 
HETATM   38  O5  UNL     1       8.123  10.745  40.745  1.00  0.00    -0.268 OA
HETATM   39  N4  UNL     1       6.639  10.989  39.011  1.00  0.00    -0.353 N 
HETATM   40  H26 UNL     1       7.146  11.742  38.567  1.00  0.00     0.163 HD
ENDBRANCH   6  16
TORSDOF 5
ENDMDL
MODEL 7
REMARK minimizedAffinity -6.98476028
REMARK CNNscore 0.532627463
REMARK CNNaffinity 6.48331213
REMARK  5 active torsions:
REMARK  status: ('A' for Active; 'I' for Inactive)
REMARK    1  A    between atoms: O1_2  and  C2_3 
REMARK    2  A    between atoms: C3_4  and  N1_5 
REMARK    3  A    between atoms: N1_5  and  S1_7 
REMARK    4  A    between atoms: C7_12  and  N3_33 
REMARK    5  A    between atoms: C8_14  and  N2_16 
ROOT
HETATM    1  C2  UNL     1       5.074   8.832  40.212  1.00  0.00     0.200 C 
HETATM    2  C3  UNL     1       5.722   9.294  38.892  1.00  0.00     0.133 C 
HETATM    3  C6  UNL     1       7.037  10.016  39.183  1.00  0.00     0.083 C 
HETATM    4  C7  UNL     1       7.893   9.238  40.189  1.00  0.00     0.233 C 
HETATM    5  O4  UNL     1       7.425   7.917  40.454  1.00  0.00    -0.333 OA
HETATM    6  C8  UNL     1       6.036   7.747  40.834  1.00  0.00     0.168 C 
HETATM    7  C9  UNL     1       5.743   6.378  40.176  1.00  0.00     0.074 C 
ENDROOT
BRANCH   2   8
HETATM    8  N1  UNL     1       4.847  10.135  38.010  1.00  0.00    -0.308 N 
HETATM    9  C4  UNL     1       4.285  11.386  38.548  1.00  0.00     0.163 C 
BRANCH   8  10
HETATM   10  S1  UNL     1       4.032   9.413  36.714  1.00  0.00     0.224 S 
HETATM   11  C5  UNL     1       2.842  10.657  36.260  1.00  0.00     0.186 C 
HETATM   12  O2  UNL     1       4.962   9.279  35.614  1.00  0.00    -0.206 OA
HETATM   13  O3  UNL     1       3.298   8.274  37.224  1.00  0.00    -0.206 OA
ENDBRANCH   8  10
ENDBRANCH   2   8
BRANCH   1  14
HETATM   14  O1  UNL     1       4.923  10.000  41.044  1.00  0.00    -0.384 OA
HETATM   15  C1  UNL     1       3.625  10.150  41.607  1.00  0.00     0.202 C 
ENDBRANCH   1  14
BRANCH   6  16
HETATM   16  N2  UNL     1       5.974   7.703  42.305  1.00  0.00    -0.308 N 
HETATM   17  C10 UNL     1       6.947   8.060  43.240  1.00  0.00     0.049 A 
HETATM   18  C11 UNL     1       8.249   8.583  43.119  1.00  0.00     0.030 A 
HETATM   19  C15 UNL     1       6.419   7.778  44.517  1.00  0.00     0.004 A 
HETATM   20  C12 UNL     1       8.992   8.854  44.274  1.00  0.00     0.002 A 
HETATM   21  C13 UNL     1       8.471   8.606  45.533  1.00  0.00     0.001 A 
HETATM   22  C14 UNL     1       7.192   8.062  45.665  1.00  0.00     0.014 A 
HETATM   23  C16 UNL     1       5.140   7.185  44.338  1.00  0.00     0.015 A 
HETATM   24  C17 UNL     1       4.141   6.635  45.159  1.00  0.00    -0.010 A 
HETATM   25  C27 UNL     1       4.909   7.161  42.980  1.00  0.00     0.077 A 
HETATM   26  C18 UNL     1       2.955   6.053  44.616  1.00  0.00     0.054 A 
HETATM   27  C29 UNL     1       4.107   6.520  46.654  1.00  0.00     0.163 A 
HETATM   28  C19 UNL     1       2.649   5.980  43.247  1.00  0.00     0.022 A 
HETATM   29  C28 UNL     1       2.156   5.567  45.751  1.00  0.00     0.253 A 
HETATM   30  C20 UNL     1       1.613   5.483  42.398  1.00  0.00     0.004 A 
HETATM   31  C26 UNL     1       3.599   6.539  42.408  1.00  0.00     0.077 A 
HETATM   32  C21 UNL     1       0.393   4.806  42.619  1.00  0.00     0.014 A 
HETATM   33  C25 UNL     1       1.968   5.787  41.074  1.00  0.00     0.048 A 
HETATM   34  C22 UNL     1      -0.427   4.458  41.541  1.00  0.00     0.001 A 
HETATM   35  C23 UNL     1      -0.054   4.777  40.241  1.00  0.00     0.002 A 
HETATM   36  C24 UNL     1       1.145   5.443  39.984  1.00  0.00     0.030 A 
HETATM   37  N3  UNL     1       3.188   6.449  41.114  1.00  0.00    -0.316 N 
HETATM   38  O5  UNL     1       1.077   5.010  45.723  1.00  0.00    -0.268 OA
HETATM   39  N4  UNL     1       2.858   5.856  46.900  1.00  0.00    -0.353 N 
HETATM   40  H26 UNL     1       2.486   5.617  47.807  1.00  0.00     0.163 HD
ENDBRANCH   6  16
TORSDOF 5
ENDMDL
MODEL 8
REMARK minimizedAffinity -7.62853813
REMARK CNNscore 0.525135577
REMARK CNNaffinity 6.41865396
REMARK  5 active torsions:
REMARK  status: ('A' for Active; 'I' for Inactive)
REMARK    1  A    between atoms: O1_2  and  C2_3 
REMARK    2  A    between atoms: C3_4  and  N1_5 
REMARK    3  A    between atoms: N1_5  and  S1_7 
REMARK    4  A    between atoms: C7_12  and  N3_33 
REMARK    5  A    between atoms: C8_14  and  N2_16 
ROOT
HETATM    1  C2  UNL     1       3.398  10.156  35.264  1.00  0.00     0.200 C 
HETATM    2  C3  UNL     1       2.354   9.611  34.269  1.00  0.00     0.133 C 
HETATM    3  C6  UNL     1       2.374   8.083  34.280  1.00  0.00     0.083 C 
HETATM    4  C7  UNL     1       2.384   7.532  35.710  1.00  0.00     0.233 C 
HETATM    5  O4  UNL     1       2.126   8.511  36.715  1.00  0.00    -0.333 OA
HETATM    6  C8  UNL     1       2.919   9.726  36.705  1.00  0.00     0.168 C 
HETATM    7  C9  UNL     1       1.865  10.740  37.209  1.00  0.00     0.074 C 
ENDROOT
BRANCH   2   8
HETATM    8  N1  UNL     1       2.477  10.127  32.866  1.00  0.00    -0.308 N 
HETATM    9  C4  UNL     1       2.523  11.583  32.644  1.00  0.00     0.163 C 
BRANCH   8  10
HETATM   10  S1  UNL     1       1.962   9.161  31.576  1.00  0.00     0.224 S 
HETATM   11  C5  UNL     1       0.191   9.339  31.638  1.00  0.00     0.186 C 
HETATM   12  O2  UNL     1       2.417   9.771  30.345  1.00  0.00    -0.206 OA
HETATM   13  O3  UNL     1       2.271   7.783  31.895  1.00  0.00    -0.206 OA
ENDBRANCH   8  10
ENDBRANCH   2   8
BRANCH   1  14
HETATM   14  O1  UNL     1       4.672   9.590  34.897  1.00  0.00    -0.384 OA
HETATM   15  C1  UNL     1       5.306  10.244  33.803  1.00  0.00     0.202 C 
ENDBRANCH   1  14
BRANCH   6  16
HETATM   16  N2  UNL     1       4.035   9.541  37.648  1.00  0.00    -0.308 N 
HETATM   17  C10 UNL     1       5.289  10.153  37.662  1.00  0.00     0.049 A 
HETATM   18  C11 UNL     1       5.890  11.128  36.842  1.00  0.00     0.030 A 
HETATM   19  C15 UNL     1       6.014   9.592  38.734  1.00  0.00     0.004 A 
HETATM   20  C12 UNL     1       7.192  11.558  37.126  1.00  0.00     0.002 A 
HETATM   21  C13 UNL     1       7.901  11.032  38.193  1.00  0.00     0.001 A 
HETATM   22  C14 UNL     1       7.326  10.046  38.996  1.00  0.00     0.014 A 
HETATM   23  C16 UNL     1       5.205   8.586  39.328  1.00  0.00     0.015 A 
HETATM   24  C17 UNL     1       5.336   7.641  40.358  1.00  0.00    -0.010 A 
HETATM   25  C27 UNL     1       4.011   8.591  38.639  1.00  0.00     0.077 A 
HETATM   26  C18 UNL     1       4.296   6.709  40.663  1.00  0.00     0.054 A 
HETATM   27  C29 UNL     1       6.499   7.398  41.273  1.00  0.00     0.163 A 
HETATM   28  C19 UNL     1       3.058   6.641  40.004  1.00  0.00     0.022 A 
HETATM   29  C28 UNL     1       4.782   5.871  41.769  1.00  0.00     0.253 A 
HETATM   30  C20 UNL     1       1.856   5.869  40.042  1.00  0.00     0.004 A 
HETATM   31  C26 UNL     1       2.882   7.578  39.000  1.00  0.00     0.077 A 
HETATM   32  C21 UNL     1       1.409   4.774  40.813  1.00  0.00     0.014 A 
HETATM   33  C25 UNL     1       0.987   6.391  39.070  1.00  0.00     0.048 A 
HETATM   34  C22 UNL     1       0.134   4.238  40.605  1.00  0.00     0.001 A 
HETATM   35  C23 UNL     1      -0.708   4.778  39.642  1.00  0.00     0.002 A 
HETATM   36  C24 UNL     1      -0.299   5.858  38.859  1.00  0.00     0.030 A 
HETATM   37  N3  UNL     1       1.642   7.450  38.456  1.00  0.00    -0.316 N 
HETATM   38  O5  UNL     1       4.205   4.960  42.328  1.00  0.00    -0.268 OA
HETATM   39  N4  UNL     1       6.051   6.303  42.084  1.00  0.00    -0.353 N 
HETATM   40  H26 UNL     1       6.574   5.869  42.832  1.00  0.00     0.163 HD
ENDBRANCH   6  16
TORSDOF 5
ENDMDL
MODEL 9
REMARK minimizedAffinity -7.0496707
REMARK CNNscore 0.518027186
REMARK CNNaffinity 6.15588236
REMARK  5 active torsions:
REMARK  status: ('A' for Active; 'I' for Inactive)
REMARK    1  A    between atoms: O1_2  and  C2_3 
REMARK    2  A    between atoms: C3_4  and  N1_5 
REMARK    3  A    between atoms: N1_5  and  S1_7 
REMARK    4  A    between atoms: C7_12  and  N3_33 
REMARK    5  A    between atoms: C8_14  and  N2_16 
ROOT
HETATM    1  C2  UNL     1       0.054   5.658  42.686  1.00  0.00     0.200 C 
HETATM    2  C3  UNL     1      -1.353   5.103  42.984  1.00  0.00     0.133 C 
HETATM    3  C6  UNL     1      -1.241   3.750  43.685  1.00  0.00     0.083 C 
HETATM    4  C7  UNL     1      -0.211   3.790  44.820  1.00  0.00     0.233 C 
HETATM    5  O4  UNL     1       0.240   5.102  45.152  1.00  0.00    -0.333 OA
HETATM    6  C8  UNL     1       0.732   5.947  44.081  1.00  0.00     0.168 C 
HETATM    7  C9  UNL     1       0.263   7.330  44.592  1.00  0.00     0.074 C 
ENDROOT
BRANCH   2   8
HETATM    8  N1  UNL     1      -2.266   5.005  41.798  1.00  0.00    -0.308 N 
HETATM    9  C4  UNL     1      -2.202   6.049  40.761  1.00  0.00     0.163 C 
BRANCH   8  10
HETATM   10  S1  UNL     1      -3.707   4.128  41.927  1.00  0.00     0.224 S 
HETATM   11  C5  UNL     1      -4.946   5.407  41.907  1.00  0.00     0.186 C 
HETATM   12  O2  UNL     1      -3.871   3.347  40.721  1.00  0.00    -0.206 OA
HETATM   13  O3  UNL     1      -3.742   3.511  43.236  1.00  0.00    -0.206 OA
ENDBRANCH   8  10
ENDBRANCH   2   8
BRANCH   1  14
HETATM   14  O1  UNL     1       0.750   4.660  41.913  1.00  0.00    -0.384 OA
HETATM   15  C1  UNL     1       0.590   4.798  40.505  1.00  0.00     0.202 C 
ENDBRANCH   1  14
BRANCH   6  16
HETATM   16  N2  UNL     1       2.199   5.816  44.043  1.00  0.00    -0.308 N 
HETATM   17  C10 UNL     1       3.073   5.991  42.969  1.00  0.00     0.049 A 
HETATM   18  C11 UNL     1       2.878   6.358  41.623  1.00  0.00     0.030 A 
HETATM   19  C15 UNL     1       4.370   5.694  43.436  1.00  0.00     0.004 A 
HETATM   20  C12 UNL     1       3.985   6.462  40.772  1.00  0.00     0.002 A 
HETATM   21  C13 UNL     1       5.265   6.198  41.229  1.00  0.00     0.001 A 
HETATM   22  C14 UNL     1       5.467   5.807  42.553  1.00  0.00     0.014 A 
HETATM   23  C16 UNL     1       4.260   5.274  44.790  1.00  0.00     0.015 A 
HETATM   24  C17 UNL     1       5.125   4.798  45.789  1.00  0.00    -0.010 A 
HETATM   25  C27 UNL     1       2.925   5.366  45.118  1.00  0.00     0.077 A 
HETATM   26  C18 UNL     1       4.645   4.402  47.075  1.00  0.00     0.054 A 
HETATM   27  C29 UNL     1       6.610   4.592  45.731  1.00  0.00     0.163 A 
HETATM   28  C19 UNL     1       3.303   4.454  47.484  1.00  0.00     0.022 A 
HETATM   29  C28 UNL     1       5.811   3.944  47.846  1.00  0.00     0.253 A 
HETATM   30  C20 UNL     1       2.512   4.144  48.633  1.00  0.00     0.004 A 
HETATM   31  C26 UNL     1       2.424   4.946  46.533  1.00  0.00     0.077 A 
HETATM   32  C21 UNL     1       2.791   3.607  49.909  1.00  0.00     0.014 A 
HETATM   33  C25 UNL     1       1.183   4.487  48.337  1.00  0.00     0.048 A 
HETATM   34  C22 UNL     1       1.763   3.432  50.841  1.00  0.00     0.001 A 
HETATM   35  C23 UNL     1       0.457   3.786  50.525  1.00  0.00     0.002 A 
HETATM   36  C24 UNL     1       0.144   4.317  49.272  1.00  0.00     0.030 A 
HETATM   37  N3  UNL     1       1.164   4.990  47.043  1.00  0.00    -0.316 N 
HETATM   38  O5  UNL     1       5.838   3.526  48.985  1.00  0.00    -0.268 OA
HETATM   39  N4  UNL     1       6.916   4.070  47.033  1.00  0.00    -0.353 N 
HETATM   40  H26 UNL     1       7.835   3.821  47.367  1.00  0.00     0.163 HD
ENDBRANCH   6  16
TORSDOF 5
ENDMDL
