MODEL 1
REMARK minimizedAffinity -7.31240177
REMARK  4 active torsions:
REMARK  status: ('A' for Active; 'I' for Inactive)
REMARK    1  A    between atoms: N1_1  and  C1_2 
REMARK    2  A    between atoms: C1_2  and  N2_4 
REMARK    3  A    between atoms: C2_7  and  C3_8 
REMARK    4  A    between atoms: C10_16  and  C11_17 
ROOT
HETATM    1  N2  UNL     1      14.606  35.224  17.376  1.00  0.00    -0.258 N 
HETATM    2  N3  UNL     1      13.581  34.928  18.258  1.00  0.00    -0.299 N 
ATOM      3  H3  UNL     1      13.658  34.396  19.125  1.00  0.00     0.187 HD
HETATM    4  C2  UNL     1      12.499  35.458  17.767  1.00  0.00     0.038 C 
HETATM    5  C9  UNL     1      12.662  36.127  16.427  1.00  0.00     0.091 C 
HETATM    6  C10 UNL     1      14.182  36.149  16.314  1.00  0.00     0.149 C 
ENDROOT
BRANCH   6   7
HETATM    7  C11 UNL     1      14.724  37.559  16.482  1.00  0.00    -0.032 A 
HETATM    8  C12 UNL     1      14.734  38.148  17.754  1.00  0.00     0.010 A 
HETATM    9  C13 UNL     1      15.255  39.431  17.942  1.00  0.00     0.013 A 
HETATM   10  C14 UNL     1      15.785  40.156  16.865  1.00  0.00    -0.026 A 
HETATM   11  C15 UNL     1      16.314  41.445  17.039  1.00  0.00     0.012 A 
HETATM   12  C19 UNL     1      15.785  39.577  15.578  1.00  0.00    -0.025 A 
HETATM   13  C16 UNL     1      16.837  42.154  15.956  1.00  0.00     0.001 A 
HETATM   14  C17 UNL     1      16.835  41.584  14.687  1.00  0.00     0.001 A 
HETATM   15  C18 UNL     1      16.313  40.304  14.498  1.00  0.00     0.012 A 
HETATM   16  C20 UNL     1      15.256  38.286  15.403  1.00  0.00     0.021 A 
ENDBRANCH   6   7
BRANCH   1  17
HETATM   17  C1  UNL     1      15.853  34.648  17.537  1.00  0.00     0.187 C 
HETATM   18  S1  UNL     1      17.182  34.827  16.547  1.00  0.00    -0.040 SA
BRANCH  17  19
HETATM   19  N1  UNL     1      15.944  33.836  18.630  1.00  0.00    -0.375 N 
HETATM   20  H1  UNL     1      15.156  33.850  19.265  1.00  0.00     0.158 HD
HETATM   21  H2  UNL     1      16.830  33.439  18.908  1.00  0.00     0.158 HD
ENDBRANCH  17  19
ENDBRANCH   1  17
BRANCH   4  22
HETATM   22  C3  UNL     1      11.183  35.383  18.446  1.00  0.00    -0.012 A 
HETATM   23  C4  UNL     1      10.090  36.055  17.881  1.00  0.00     0.015 A 
HETATM   24  C5  UNL     1       8.835  36.003  18.495  1.00  0.00     0.020 A 
HETATM   25  C6  UNL     1       8.674  35.280  19.674  1.00  0.00     0.011 A 
HETATM   26 BR1  UNL     1       6.978  35.207  20.506  1.00  0.00    -0.051 Br
HETATM   27  C7  UNL     1       9.755  34.610  20.245  1.00  0.00     0.020 A 
HETATM   28  C8  UNL     1      11.011  34.662  19.632  1.00  0.00     0.015 A 
ENDBRANCH   4  22
TORSDOF 4
ENDMDL
MODEL 2
REMARK minimizedAffinity -7.30212069
REMARK  4 active torsions:
REMARK  status: ('A' for Active; 'I' for Inactive)
REMARK    1  A    between atoms: N1_1  and  C1_2 
REMARK    2  A    between atoms: C1_2  and  N2_4 
REMARK    3  A    between atoms: C2_7  and  C3_8 
REMARK    4  A    between atoms: C10_16  and  C11_17 
ROOT
HETATM    1  N2  UNL     1      18.703  52.742   6.966  1.00  0.00    -0.258 N 
HETATM    2  N3  UNL     1      18.531  51.453   7.439  1.00  0.00    -0.299 N 
ATOM      3  H3  UNL     1      18.506  51.161   8.417  1.00  0.00     0.187 HD
HETATM    4  C2  UNL     1      18.406  50.685   6.397  1.00  0.00     0.038 C 
HETATM    5  C9  UNL     1      18.559  51.377   5.067  1.00  0.00     0.091 C 
HETATM    6  C10 UNL     1      18.522  52.834   5.510  1.00  0.00     0.149 C 
ENDROOT
BRANCH   6   7
HETATM    7  C11 UNL     1      17.217  53.499   5.100  1.00  0.00    -0.032 A 
HETATM    8  C12 UNL     1      15.999  52.915   5.471  1.00  0.00     0.010 A 
HETATM    9  C13 UNL     1      14.785  53.521   5.135  1.00  0.00     0.013 A 
HETATM   10  C14 UNL     1      14.759  54.729   4.423  1.00  0.00    -0.026 A 
HETATM   11  C15 UNL     1      13.548  55.351   4.079  1.00  0.00     0.012 A 
HETATM   12  C19 UNL     1      15.978  55.332   4.042  1.00  0.00    -0.025 A 
HETATM   13  C16 UNL     1      13.539  56.553   3.369  1.00  0.00     0.001 A 
HETATM   14  C17 UNL     1      14.740  57.146   2.993  1.00  0.00     0.001 A 
HETATM   15  C18 UNL     1      15.952  56.541   3.327  1.00  0.00     0.012 A 
HETATM   16  C20 UNL     1      17.190  54.710   4.387  1.00  0.00     0.021 A 
ENDBRANCH   6   7
BRANCH   1  17
HETATM   17  C1  UNL     1      19.035  53.766   7.837  1.00  0.00     0.187 C 
HETATM   18  S1  UNL     1      19.124  55.393   7.490  1.00  0.00    -0.040 SA
BRANCH  17  19
HETATM   19  N1  UNL     1      19.334  53.338   9.097  1.00  0.00    -0.375 N 
HETATM   20  H1  UNL     1      19.153  52.361   9.293  1.00  0.00     0.158 HD
HETATM   21  H2  UNL     1      19.494  53.997   9.844  1.00  0.00     0.158 HD
ENDBRANCH  17  19
ENDBRANCH   1  17
BRANCH   4  22
HETATM   22  C3  UNL     1      18.173  49.224   6.493  1.00  0.00    -0.012 A 
HETATM   23  C4  UNL     1      19.125  48.427   7.144  1.00  0.00     0.015 A 
HETATM   24  C5  UNL     1      18.934  47.046   7.253  1.00  0.00     0.020 A 
HETATM   25  C6  UNL     1      17.793  46.462   6.709  1.00  0.00     0.011 A 
HETATM   26 BR1  UNL     1      17.532  44.596   6.855  1.00  0.00    -0.051 Br
HETATM   27  C7  UNL     1      16.841  47.246   6.058  1.00  0.00     0.020 A 
HETATM   28  C8  UNL     1      17.031  48.627   5.948  1.00  0.00     0.015 A 
ENDBRANCH   4  22
TORSDOF 4
ENDMDL
MODEL 3
REMARK minimizedAffinity -7.1583581
REMARK  4 active torsions:
REMARK  status: ('A' for Active; 'I' for Inactive)
REMARK    1  A    between atoms: N1_1  and  C1_2 
REMARK    2  A    between atoms: C1_2  and  N2_4 
REMARK    3  A    between atoms: C2_7  and  C3_8 
REMARK    4  A    between atoms: C10_16  and  C11_17 
ROOT
HETATM    1  N2  UNL     1      17.637  50.253   5.960  1.00  0.00    -0.258 N 
HETATM    2  N3  UNL     1      16.579  51.091   5.651  1.00  0.00    -0.299 N 
ATOM      3  H3  UNL     1      15.589  50.846   5.648  1.00  0.00     0.187 HD
HETATM    4  C2  UNL     1      17.091  52.251   5.365  1.00  0.00     0.038 C 
HETATM    5  C9  UNL     1      18.597  52.310   5.377  1.00  0.00     0.091 C 
HETATM    6  C10 UNL     1      18.919  50.970   6.029  1.00  0.00     0.149 C 
ENDROOT
BRANCH   6   7
HETATM    7  C11 UNL     1      19.435  51.159   7.446  1.00  0.00    -0.032 A 
HETATM    8  C12 UNL     1      19.053  52.293   8.174  1.00  0.00     0.010 A 
HETATM    9  C13 UNL     1      19.487  52.477   9.491  1.00  0.00     0.013 A 
HETATM   10  C14 UNL     1      20.311  51.528  10.113  1.00  0.00    -0.026 A 
HETATM   11  C15 UNL     1      20.754  51.697  11.435  1.00  0.00     0.012 A 
HETATM   12  C19 UNL     1      20.704  50.379   9.394  1.00  0.00    -0.025 A 
HETATM   13  C16 UNL     1      21.576  50.744  12.039  1.00  0.00     0.001 A 
HETATM   14  C17 UNL     1      21.964  49.612  11.330  1.00  0.00     0.001 A 
HETATM   15  C18 UNL     1      21.532  49.429  10.016  1.00  0.00     0.012 A 
HETATM   16  C20 UNL     1      20.260  50.208   8.071  1.00  0.00     0.021 A 
ENDBRANCH   6   7
BRANCH   1  17
HETATM   17  C1  UNL     1      17.423  48.898   6.141  1.00  0.00     0.187 C 
HETATM   18  S1  UNL     1      18.577  47.699   6.233  1.00  0.00    -0.040 SA
BRANCH  17  19
HETATM   19  N1  UNL     1      16.104  48.558   6.226  1.00  0.00    -0.375 N 
HETATM   20  H1  UNL     1      15.446  49.326   6.284  1.00  0.00     0.158 HD
HETATM   21  H2  UNL     1      15.826  47.616   6.457  1.00  0.00     0.158 HD
ENDBRANCH  17  19
ENDBRANCH   1  17
BRANCH   4  22
HETATM   22  C3  UNL     1      16.269  53.433   5.009  1.00  0.00    -0.012 A 
HETATM   23  C4  UNL     1      16.899  54.555   4.455  1.00  0.00     0.015 A 
HETATM   24  C5  UNL     1      16.152  55.684   4.106  1.00  0.00     0.020 A 
HETATM   25  C6  UNL     1      14.775  55.691   4.314  1.00  0.00     0.011 A 
HETATM   26 BR1  UNL     1      13.762  57.217   3.845  1.00  0.00    -0.051 Br
HETATM   27  C7  UNL     1      14.139  54.581   4.868  1.00  0.00     0.020 A 
HETATM   28  C8  UNL     1      14.885  53.451   5.217  1.00  0.00     0.015 A 
ENDBRANCH   4  22
TORSDOF 4
ENDMDL
MODEL 4
REMARK minimizedAffinity -7.15631962
REMARK  4 active torsions:
REMARK  status: ('A' for Active; 'I' for Inactive)
REMARK    1  A    between atoms: N1_1  and  C1_2 
REMARK    2  A    between atoms: C1_2  and  N2_4 
REMARK    3  A    between atoms: C2_7  and  C3_8 
REMARK    4  A    between atoms: C10_16  and  C11_17 
ROOT
HETATM    1  N2  UNL     1      14.824  34.950  19.095  1.00  0.00    -0.258 N 
HETATM    2  N3  UNL     1      13.623  35.111  19.763  1.00  0.00    -0.299 N 
ATOM      3  H3  UNL     1      13.501  35.374  20.741  1.00  0.00     0.187 HD
HETATM    4  C2  UNL     1      12.680  34.862  18.903  1.00  0.00     0.038 C 
HETATM    5  C9  UNL     1      13.151  34.421  17.541  1.00  0.00     0.091 C 
HETATM    6  C10 UNL     1      14.639  34.731  17.652  1.00  0.00     0.149 C 
ENDROOT
BRANCH   6   7
HETATM    7  C11 UNL     1      15.014  35.933  16.801  1.00  0.00    -0.032 A 
HETATM    8  C12 UNL     1      14.471  37.189  17.103  1.00  0.00     0.010 A 
HETATM    9  C13 UNL     1      14.823  38.317  16.356  1.00  0.00     0.013 A 
HETATM   10  C14 UNL     1      15.731  38.219  15.291  1.00  0.00    -0.026 A 
HETATM   11  C15 UNL     1      16.095  39.343  14.533  1.00  0.00     0.012 A 
HETATM   12  C19 UNL     1      16.288  36.961  14.975  1.00  0.00    -0.025 A 
HETATM   13  C16 UNL     1      16.999  39.228  13.475  1.00  0.00     0.001 A 
HETATM   14  C17 UNL     1      17.548  37.988  13.163  1.00  0.00     0.001 A 
HETATM   15  C18 UNL     1      17.195  36.862  13.907  1.00  0.00     0.012 A 
HETATM   16  C20 UNL     1      15.924  35.835  15.734  1.00  0.00     0.021 A 
ENDBRANCH   6   7
BRANCH   1  17
HETATM   17  C1  UNL     1      16.020  34.980  19.792  1.00  0.00     0.187 C 
HETATM   18  S1  UNL     1      16.325  35.754  21.235  1.00  0.00    -0.040 SA
BRANCH  17  19
HETATM   19  N1  UNL     1      17.031  34.305  19.174  1.00  0.00    -0.375 N 
HETATM   20  H1  UNL     1      16.773  33.753  18.364  1.00  0.00     0.158 HD
HETATM   21  H2  UNL     1      17.921  34.171  19.631  1.00  0.00     0.158 HD
ENDBRANCH  17  19
ENDBRANCH   1  17
BRANCH   4  22
HETATM   22  C3  UNL     1      11.238  34.960  19.235  1.00  0.00    -0.012 A 
HETATM   23  C4  UNL     1      10.743  34.235  20.328  1.00  0.00     0.015 A 
HETATM   24  C5  UNL     1       9.389  34.306  20.668  1.00  0.00     0.020 A 
HETATM   25  C6  UNL     1       8.530  35.101  19.914  1.00  0.00     0.011 A 
HETATM   26 BR1  UNL     1       6.698  35.200  20.371  1.00  0.00    -0.051 Br
HETATM   27  C7  UNL     1       9.011  35.824  18.823  1.00  0.00     0.020 A 
HETATM   28  C8  UNL     1      10.365  35.753  18.482  1.00  0.00     0.015 A 
ENDBRANCH   4  22
TORSDOF 4
ENDMDL
MODEL 5
REMARK minimizedAffinity -7.14056921
REMARK  4 active torsions:
REMARK  status: ('A' for Active; 'I' for Inactive)
REMARK    1  A    between atoms: N1_1  and  C1_2 
REMARK    2  A    between atoms: C1_2  and  N2_4 
REMARK    3  A    between atoms: C2_7  and  C3_8 
REMARK    4  A    between atoms: C10_16  and  C11_17 
ROOT
HETATM    1  N2  UNL     1      17.634  50.315   5.966  1.00  0.00    -0.258 N 
HETATM    2  N3  UNL     1      16.575  51.141   5.627  1.00  0.00    -0.299 N 
ATOM      3  H3  UNL     1      15.590  50.879   5.580  1.00  0.00     0.187 HD
HETATM    4  C2  UNL     1      17.079  52.313   5.379  1.00  0.00     0.038 C 
HETATM    5  C9  UNL     1      18.582  52.396   5.452  1.00  0.00     0.091 C 
HETATM    6  C10 UNL     1      18.900  51.052   6.096  1.00  0.00     0.149 C 
ENDROOT
BRANCH   6   7
HETATM    7  C11 UNL     1      19.356  51.228   7.536  1.00  0.00    -0.032 A 
HETATM    8  C12 UNL     1      19.989  50.165   8.194  1.00  0.00     0.010 A 
HETATM    9  C13 UNL     1      20.447  50.310   9.507  1.00  0.00     0.013 A 
HETATM   10  C14 UNL     1      20.288  51.523  10.193  1.00  0.00    -0.026 A 
HETATM   11  C15 UNL     1      20.743  51.685  11.511  1.00  0.00     0.012 A 
HETATM   12  C19 UNL     1      19.653  52.604   9.544  1.00  0.00    -0.025 A 
HETATM   13  C16 UNL     1      20.575  52.898  12.181  1.00  0.00     0.001 A 
HETATM   14  C17 UNL     1      19.949  53.963  11.541  1.00  0.00     0.001 A 
HETATM   15  C18 UNL     1      19.491  53.818  10.231  1.00  0.00     0.012 A 
HETATM   16  C20 UNL     1      19.197  52.443   8.224  1.00  0.00     0.021 A 
ENDBRANCH   6   7
BRANCH   1  17
HETATM   17  C1  UNL     1      17.436  48.954   6.119  1.00  0.00     0.187 C 
HETATM   18  S1  UNL     1      18.600  47.762   6.131  1.00  0.00    -0.040 SA
BRANCH  17  19
HETATM   19  N1  UNL     1      16.124  48.603   6.247  1.00  0.00    -0.375 N 
HETATM   20  H1  UNL     1      15.465  49.364   6.353  1.00  0.00     0.158 HD
HETATM   21  H2  UNL     1      15.861  47.653   6.464  1.00  0.00     0.158 HD
ENDBRANCH  17  19
ENDBRANCH   1  17
BRANCH   4  22
HETATM   22  C3  UNL     1      16.252  53.486   5.007  1.00  0.00    -0.012 A 
HETATM   23  C4  UNL     1      16.879  54.610   4.453  1.00  0.00     0.015 A 
HETATM   24  C5  UNL     1      16.128  55.732   4.090  1.00  0.00     0.020 A 
HETATM   25  C6  UNL     1      14.748  55.730   4.284  1.00  0.00     0.011 A 
HETATM   26 BR1  UNL     1      13.729  57.245   3.795  1.00  0.00    -0.051 Br
HETATM   27  C7  UNL     1      14.115  54.618   4.837  1.00  0.00     0.020 A 
HETATM   28  C8  UNL     1      14.866  53.496   5.200  1.00  0.00     0.015 A 
ENDBRANCH   4  22
TORSDOF 4
ENDMDL
MODEL 6
REMARK minimizedAffinity -6.96479464
REMARK  4 active torsions:
REMARK  status: ('A' for Active; 'I' for Inactive)
REMARK    1  A    between atoms: N1_1  and  C1_2 
REMARK    2  A    between atoms: C1_2  and  N2_4 
REMARK    3  A    between atoms: C2_7  and  C3_8 
REMARK    4  A    between atoms: C10_16  and  C11_17 
ROOT
HETATM    1  N2  UNL     1       6.289  64.527  -7.046  1.00  0.00    -0.258 N 
HETATM    2  N3  UNL     1       5.050  64.866  -6.528  1.00  0.00    -0.299 N 
ATOM      3  H3  UNL     1       4.179  64.964  -7.049  1.00  0.00     0.187 HD
HETATM    4  C2  UNL     1       5.212  65.034  -5.249  1.00  0.00     0.038 C 
HETATM    5  C9  UNL     1       6.630  64.897  -4.757  1.00  0.00     0.091 C 
HETATM    6  C10 UNL     1       7.295  64.309  -5.996  1.00  0.00     0.149 C 
ENDROOT
BRANCH   6   7
HETATM    7  C11 UNL     1       7.649  62.845  -5.786  1.00  0.00    -0.032 A 
HETATM    8  C12 UNL     1       6.676  61.963  -5.301  1.00  0.00     0.010 A 
HETATM    9  C13 UNL     1       6.965  60.606  -5.128  1.00  0.00     0.013 A 
HETATM   10  C14 UNL     1       8.233  60.096  -5.442  1.00  0.00    -0.026 A 
HETATM   11  C15 UNL     1       8.538  58.736  -5.276  1.00  0.00     0.012 A 
HETATM   12  C19 UNL     1       9.225  60.973  -5.934  1.00  0.00    -0.025 A 
HETATM   13  C16 UNL     1       9.807  58.246  -5.592  1.00  0.00     0.001 A 
HETATM   14  C17 UNL     1      10.785  59.109  -6.075  1.00  0.00     0.001 A 
HETATM   15  C18 UNL     1      10.497  60.463  -6.246  1.00  0.00     0.012 A 
HETATM   16  C20 UNL     1       8.920  62.335  -6.101  1.00  0.00     0.021 A 
ENDBRANCH   6   7
BRANCH   1  17
HETATM   17  C1  UNL     1       6.475  64.451  -8.415  1.00  0.00     0.187 C 
HETATM   18  S1  UNL     1       7.259  65.553  -9.388  1.00  0.00    -0.040 SA
BRANCH  17  19
HETATM   19  N1  UNL     1       5.916  63.344  -8.983  1.00  0.00    -0.375 N 
HETATM   20  H1  UNL     1       5.555  62.646  -8.344  1.00  0.00     0.158 HD
HETATM   21  H2  UNL     1       6.070  63.126  -9.957  1.00  0.00     0.158 HD
ENDBRANCH  17  19
ENDBRANCH   1  17
BRANCH   4  22
HETATM   22  C3  UNL     1       4.099  65.379  -4.332  1.00  0.00    -0.012 A 
HETATM   23  C4  UNL     1       3.231  66.421  -4.682  1.00  0.00     0.015 A 
HETATM   24  C5  UNL     1       2.171  66.770  -3.840  1.00  0.00     0.020 A 
HETATM   25  C6  UNL     1       1.980  66.077  -2.647  1.00  0.00     0.011 A 
HETATM   26 BR1  UNL     1       0.548  66.546  -1.506  1.00  0.00    -0.051 Br
HETATM   27  C7  UNL     1       2.841  65.040  -2.288  1.00  0.00     0.020 A 
HETATM   28  C8  UNL     1       3.902  64.691  -3.129  1.00  0.00     0.015 A 
ENDBRANCH   4  22
TORSDOF 4
ENDMDL
MODEL 7
REMARK minimizedAffinity -6.94073725
REMARK  4 active torsions:
REMARK  status: ('A' for Active; 'I' for Inactive)
REMARK    1  A    between atoms: N1_1  and  C1_2 
REMARK    2  A    between atoms: C1_2  and  N2_4 
REMARK    3  A    between atoms: C2_7  and  C3_8 
REMARK    4  A    between atoms: C10_16  and  C11_17 
ROOT
HETATM    1  N2  UNL     1       1.312  64.816  -3.833  1.00  0.00    -0.258 N 
HETATM    2  N3  UNL     1       2.149  64.844  -4.935  1.00  0.00    -0.299 N 
ATOM      3  H3  UNL     1       1.874  64.730  -5.911  1.00  0.00     0.187 HD
HETATM    4  C2  UNL     1       3.353  65.042  -4.486  1.00  0.00     0.038 C 
HETATM    5  C9  UNL     1       3.478  65.100  -2.985  1.00  0.00     0.091 C 
HETATM    6  C10 UNL     1       2.009  65.179  -2.590  1.00  0.00     0.149 C 
ENDROOT
BRANCH   6   7
HETATM    7  C11 UNL     1       1.654  66.565  -2.076  1.00  0.00    -0.032 A 
HETATM    8  C12 UNL     1       1.062  66.703  -0.813  1.00  0.00     0.010 A 
HETATM    9  C13 UNL     1       0.754  67.967  -0.303  1.00  0.00     0.013 A 
HETATM   10  C14 UNL     1       1.035  69.127  -1.040  1.00  0.00    -0.026 A 
HETATM   11  C15 UNL     1       0.733  70.404  -0.541  1.00  0.00     0.012 A 
HETATM   12  C19 UNL     1       1.632  69.006  -2.314  1.00  0.00    -0.025 A 
HETATM   13  C16 UNL     1       1.018  71.548  -1.288  1.00  0.00     0.001 A 
HETATM   14  C17 UNL     1       1.605  71.429  -2.544  1.00  0.00     0.001 A 
HETATM   15  C18 UNL     1       1.911  70.167  -3.054  1.00  0.00     0.012 A 
HETATM   16  C20 UNL     1       1.935  67.728  -2.814  1.00  0.00     0.021 A 
ENDBRANCH   6   7
BRANCH   1  17
HETATM   17  C1  UNL     1      -0.015  64.450  -3.974  1.00  0.00     0.187 C 
HETATM   18  S1  UNL     1      -1.064  63.978  -2.767  1.00  0.00    -0.040 SA
BRANCH  17  19
HETATM   19  N1  UNL     1      -0.456  64.472  -5.265  1.00  0.00    -0.375 N 
HETATM   20  H1  UNL     1       0.175  64.877  -5.946  1.00  0.00     0.158 HD
HETATM   21  H2  UNL     1      -1.430  64.322  -5.483  1.00  0.00     0.158 HD
ENDBRANCH  17  19
ENDBRANCH   1  17
BRANCH   4  22
HETATM   22  C3  UNL     1       4.536  65.165  -5.372  1.00  0.00    -0.012 A 
HETATM   23  C4  UNL     1       4.421  65.902  -6.558  1.00  0.00     0.015 A 
HETATM   24  C5  UNL     1       5.517  66.038  -7.414  1.00  0.00     0.020 A 
HETATM   25  C6  UNL     1       6.728  65.435  -7.085  1.00  0.00     0.011 A 
HETATM   26 BR1  UNL     1       8.213  65.616  -8.240  1.00  0.00    -0.051 Br
HETATM   27  C7  UNL     1       6.853  64.697  -5.908  1.00  0.00     0.020 A 
HETATM   28  C8  UNL     1       5.756  64.560  -5.051  1.00  0.00     0.015 A 
ENDBRANCH   4  22
TORSDOF 4
ENDMDL
MODEL 8
REMARK minimizedAffinity -6.74413586
REMARK  4 active torsions:
REMARK  status: ('A' for Active; 'I' for Inactive)
REMARK    1  A    between atoms: N1_1  and  C1_2 
REMARK    2  A    between atoms: C1_2  and  N2_4 
REMARK    3  A    between atoms: C2_7  and  C3_8 
REMARK    4  A    between atoms: C10_16  and  C11_17 
ROOT
HETATM    1  N2  UNL     1      14.766  53.145  -2.784  1.00  0.00    -0.258 N 
HETATM    2  N3  UNL     1      14.478  51.847  -2.400  1.00  0.00    -0.299 N 
ATOM      3  H3  UNL     1      15.153  51.115  -2.173  1.00  0.00     0.187 HD
HETATM    4  C2  UNL     1      13.183  51.739  -2.383  1.00  0.00     0.038 C 
HETATM    5  C9  UNL     1      12.430  52.964  -2.838  1.00  0.00     0.091 C 
HETATM    6  C10 UNL     1      13.562  53.984  -2.873  1.00  0.00     0.149 C 
ENDROOT
BRANCH   6   7
HETATM    7  C11 UNL     1      13.432  54.985  -1.736  1.00  0.00    -0.032 A 
HETATM    8  C12 UNL     1      12.173  55.509  -1.418  1.00  0.00     0.010 A 
HETATM    9  C13 UNL     1      12.020  56.407  -0.357  1.00  0.00     0.013 A 
HETATM   10  C14 UNL     1      13.123  56.800   0.415  1.00  0.00    -0.026 A 
HETATM   11  C15 UNL     1      12.985  57.700   1.484  1.00  0.00     0.012 A 
HETATM   12  C19 UNL     1      14.399  56.280   0.109  1.00  0.00    -0.025 A 
HETATM   13  C16 UNL     1      14.094  58.081   2.243  1.00  0.00     0.001 A 
HETATM   14  C17 UNL     1      15.352  57.570   1.940  1.00  0.00     0.001 A 
HETATM   15  C18 UNL     1      15.504  56.675   0.881  1.00  0.00     0.012 A 
HETATM   16  C20 UNL     1      14.537  55.379  -0.961  1.00  0.00     0.021 A 
ENDBRANCH   6   7
BRANCH   1  17
HETATM   17  C1  UNL     1      16.070  53.518  -3.060  1.00  0.00     0.187 C 
HETATM   18  S1  UNL     1      16.651  54.178  -4.476  1.00  0.00    -0.040 SA
BRANCH  17  19
HETATM   19  N1  UNL     1      16.938  53.276  -2.036  1.00  0.00    -0.375 N 
HETATM   20  H1  UNL     1      16.524  52.987  -1.157  1.00  0.00     0.158 HD
HETATM   21  H2  UNL     1      17.894  53.595  -2.080  1.00  0.00     0.158 HD
ENDBRANCH  17  19
ENDBRANCH   1  17
BRANCH   4  22
HETATM   22  C3  UNL     1      12.480  50.495  -1.988  1.00  0.00    -0.012 A 
HETATM   23  C4  UNL     1      13.230  49.330  -1.780  1.00  0.00     0.015 A 
HETATM   24  C5  UNL     1      12.598  48.141  -1.405  1.00  0.00     0.020 A 
HETATM   25  C6  UNL     1      11.215  48.116  -1.241  1.00  0.00     0.011 A 
HETATM   26 BR1  UNL     1      10.358  46.510  -0.735  1.00  0.00    -0.051 Br
HETATM   27  C7  UNL     1      10.459  49.269  -1.449  1.00  0.00     0.020 A 
HETATM   28  C8  UNL     1      11.091  50.459  -1.824  1.00  0.00     0.015 A 
ENDBRANCH   4  22
TORSDOF 4
ENDMDL
MODEL 9
REMARK minimizedAffinity -6.58296442
REMARK  4 active torsions:
REMARK  status: ('A' for Active; 'I' for Inactive)
REMARK    1  A    between atoms: N1_1  and  C1_2 
REMARK    2  A    between atoms: C1_2  and  N2_4 
REMARK    3  A    between atoms: C2_7  and  C3_8 
REMARK    4  A    between atoms: C10_16  and  C11_17 
ROOT
HETATM    1  N2  UNL     1      14.432  57.112   5.071  1.00  0.00    -0.258 N 
HETATM    2  N3  UNL     1      14.186  57.867   3.937  1.00  0.00    -0.299 N 
ATOM      3  H3  UNL     1      14.334  58.871   3.830  1.00  0.00     0.187 HD
HETATM    4  C2  UNL     1      13.730  57.050   3.034  1.00  0.00     0.038 C 
HETATM    5  C9  UNL     1      13.541  55.626   3.492  1.00  0.00     0.091 C 
HETATM    6  C10 UNL     1      14.267  55.670   4.832  1.00  0.00     0.149 C 
ENDROOT
BRANCH   6   7
HETATM    7  C11 UNL     1      15.582  54.909   4.768  1.00  0.00    -0.032 A 
HETATM    8  C12 UNL     1      16.743  55.571   4.348  1.00  0.00     0.010 A 
HETATM    9  C13 UNL     1      17.971  54.904   4.310  1.00  0.00     0.013 A 
HETATM   10  C14 UNL     1      18.070  53.560   4.696  1.00  0.00    -0.026 A 
HETATM   11  C15 UNL     1      19.296  52.876   4.665  1.00  0.00     0.012 A 
HETATM   12  C19 UNL     1      16.909  52.878   5.124  1.00  0.00    -0.025 A 
HETATM   13  C16 UNL     1      19.377  51.538   5.052  1.00  0.00     0.001 A 
HETATM   14  C17 UNL     1      18.233  50.866   5.472  1.00  0.00     0.001 A 
HETATM   15  C18 UNL     1      17.007  51.531   5.509  1.00  0.00     0.012 A 
HETATM   16  C20 UNL     1      15.681  53.562   5.156  1.00  0.00     0.021 A 
ENDBRANCH   6   7
BRANCH   1  17
HETATM   17  C1  UNL     1      14.765  57.732   6.263  1.00  0.00     0.187 C 
HETATM   18  S1  UNL     1      16.282  57.860   6.941  1.00  0.00    -0.040 SA
BRANCH  17  19
HETATM   19  N1  UNL     1      13.695  58.258   6.924  1.00  0.00    -0.375 N 
HETATM   20  H1  UNL     1      12.815  58.262   6.422  1.00  0.00     0.158 HD
HETATM   21  H2  UNL     1      13.823  58.820   7.753  1.00  0.00     0.158 HD
ENDBRANCH  17  19
ENDBRANCH   1  17
BRANCH   4  22
HETATM   22  C3  UNL     1      13.375  57.479   1.660  1.00  0.00    -0.012 A 
HETATM   23  C4  UNL     1      13.247  56.508   0.658  1.00  0.00     0.015 A 
HETATM   24  C5  UNL     1      12.913  56.880  -0.647  1.00  0.00     0.020 A 
HETATM   25  C6  UNL     1      12.707  58.223  -0.951  1.00  0.00     0.011 A 
HETATM   26 BR1  UNL     1      12.255  58.729  -2.715  1.00  0.00    -0.051 Br
HETATM   27  C7  UNL     1      12.834  59.198   0.039  1.00  0.00     0.020 A 
HETATM   28  C8  UNL     1      13.170  58.827   1.344  1.00  0.00     0.015 A 
ENDBRANCH   4  22
TORSDOF 4
ENDMDL
