MODEL 1
REMARK minimizedAffinity -8.85719872
REMARK  9 active torsions:
REMARK  status: ('A' for Active; 'I' for Inactive)
REMARK    1  A    between atoms: C2_2  and  N1_4 
REMARK    2  A    between atoms: N1_4  and  C4_5 
REMARK    3  A    between atoms: C4_5  and  C5_6 
REMARK    4  A    between atoms: C6_7  and  C7_8 
REMARK       I    between atoms: C7_8  and  N2_10 
REMARK    5  A    between atoms: N2_10  and  C8_11 
REMARK    6  A    between atoms: C11_14  and  N3_15 
REMARK    7  A    between atoms: N3_15  and  C12_16 
REMARK    8  A    between atoms: C21_31  and  O2_32 
REMARK    9  A    between atoms: O2_32  and  C22_33 
ROOT
HETATM    1  C8  UNL     1      -3.818   5.524  12.774  1.00  0.00     0.069 A 
HETATM    2  C9  UNL     1      -5.114   5.012  12.738  1.00  0.00     0.050 A 
HETATM    3  C10 UNL     1      -5.372   3.704  12.256  1.00  0.00     0.037 A 
HETATM    4  C11 UNL     1      -6.647   3.106  12.164  1.00  0.00     0.119 A 
HETATM    5  N4  UNL     1      -6.808   1.850  11.715  1.00  0.00    -0.338 N 
ATOM      6  H4  UNL     1      -7.731   1.418  11.660  1.00  0.00     0.168 HD
HETATM    7  C18 UNL     1      -5.708   1.192  11.344  1.00  0.00     0.182 A 
HETATM    8  N5  UNL     1      -4.457   1.665  11.377  1.00  0.00    -0.351 N 
ATOM      9  H5  UNL     1      -3.664   1.102  11.069  1.00  0.00     0.166 HD
HETATM   10  C19 UNL     1      -4.299   2.909  11.833  1.00  0.00     0.049 A 
HETATM   11  C20 UNL     1      -3.010   3.425  11.886  1.00  0.00     0.069 A 
HETATM   12  C21 UNL     1      -2.751   4.720  12.340  1.00  0.00     0.098 A 
ENDROOT
BRANCH   1  13
HETATM   13  N2  UNL     1      -3.504   6.825  13.222  1.00  0.00    -0.321 N 
HETATM   14  C7  UNL     1      -4.365   7.859  13.501  1.00  0.00     0.245 C 
HETATM   15  O1  UNL     1      -5.589   7.846  13.448  1.00  0.00    -0.268 OA
HETATM   16  H13 UNL     1      -2.511   6.983  13.362  1.00  0.00     0.169 HD
BRANCH  14  17
HETATM   17  C6  UNL     1      -3.683   9.097  13.961  1.00  0.00     0.072 C 
HETATM   18  C5  UNL     1      -4.051   9.790  15.051  1.00  0.00     0.008 C 
BRANCH  18  19
HETATM   19  C4  UNL     1      -3.348  11.027  15.521  1.00  0.00     0.297 C 
BRANCH  19  20
HETATM   20  N1  UNL     1      -4.153  11.646  16.569  1.00  0.00     0.090 N 
HETATM   21  H8  UNL     1      -4.990  11.081  16.711  1.00  0.00     0.316 HD
BRANCH  20  22
HETATM   22  C2  UNL     1      -3.479  11.797  17.867  1.00  0.00     0.212 C 
HETATM   23  C1  UNL     1      -3.112  10.452  18.499  1.00  0.00     0.042 C 
HETATM   24  C3  UNL     1      -4.251  12.679  18.850  1.00  0.00     0.042 C 
ENDBRANCH  20  22
ENDBRANCH  19  20
ENDBRANCH  18  19
ENDBRANCH  14  17
ENDBRANCH   1  13
BRANCH  12  25
HETATM   25  O2  UNL     1      -1.510   5.305  12.409  1.00  0.00    -0.341 OA
BRANCH  25  26
HETATM   26  C22 UNL     1      -0.653   5.246  11.275  1.00  0.00     0.154 C 
HETATM   27  C23 UNL     1       0.009   6.568  10.953  1.00  0.00     0.061 C 
HETATM   28  C24 UNL     1       1.253   6.128  10.217  1.00  0.00     0.170 C 
HETATM   29  O3  UNL     1       1.653   4.879  10.796  1.00  0.00    -0.389 OA
HETATM   30  C25 UNL     1       0.568   4.392  11.599  1.00  0.00     0.200 C 
ENDBRANCH  25  26
ENDBRANCH  12  25
BRANCH   4  31
HETATM   31  N3  UNL     1      -7.787   3.854  12.566  1.00  0.00    -0.342 N 
HETATM   32  H15 UNL     1      -8.624   3.294  12.427  1.00  0.00     0.167 HD
BRANCH  31  33
HETATM   33  C12 UNL     1      -7.930   4.752  13.646  1.00  0.00     0.035 A 
HETATM   34  C13 UNL     1      -7.419   4.382  14.904  1.00  0.00     0.032 A 
HETATM   35  C14 UNL     1      -7.576   5.209  16.020  1.00  0.00     0.046 A 
HETATM   36  C15 UNL     1      -8.267   6.407  15.892  1.00  0.00     0.138 A 
HETATM   37  F1  UNL     1      -8.405   7.189  16.973  1.00  0.00    -0.204 F 
HETATM   38  C16 UNL     1      -8.814   6.776  14.668  1.00  0.00     0.074 A 
HETATM   39 CL1  UNL     1      -9.698   8.247  14.512  1.00  0.00    -0.081 Cl
HETATM   40  C17 UNL     1      -8.658   5.947  13.554  1.00  0.00     0.056 A 
ENDBRANCH  31  33
ENDBRANCH   4  31
TORSDOF 9
ENDMDL
MODEL 2
REMARK minimizedAffinity -8.7344923
REMARK  9 active torsions:
REMARK  status: ('A' for Active; 'I' for Inactive)
REMARK    1  A    between atoms: C2_2  and  N1_4 
REMARK    2  A    between atoms: N1_4  and  C4_5 
REMARK    3  A    between atoms: C4_5  and  C5_6 
REMARK    4  A    between atoms: C6_7  and  C7_8 
REMARK       I    between atoms: C7_8  and  N2_10 
REMARK    5  A    between atoms: N2_10  and  C8_11 
REMARK    6  A    between atoms: C11_14  and  N3_15 
REMARK    7  A    between atoms: N3_15  and  C12_16 
REMARK    8  A    between atoms: C21_31  and  O2_32 
REMARK    9  A    between atoms: O2_32  and  C22_33 
ROOT
HETATM    1  C8  UNL     1      -3.923   5.812  12.941  1.00  0.00     0.069 A 
HETATM    2  C9  UNL     1      -5.173   5.998  13.531  1.00  0.00     0.050 A 
HETATM    3  C10 UNL     1      -6.209   5.044  13.370  1.00  0.00     0.037 A 
HETATM    4  C11 UNL     1      -7.508   5.152  13.911  1.00  0.00     0.119 A 
HETATM    5  N4  UNL     1      -8.431   4.192  13.731  1.00  0.00    -0.338 N 
ATOM      6  H4  UNL     1      -9.366   4.270  14.133  1.00  0.00     0.168 HD
HETATM    7  C18 UNL     1      -8.072   3.133  13.003  1.00  0.00     0.182 A 
HETATM    8  N5  UNL     1      -6.877   2.935  12.435  1.00  0.00    -0.351 N 
ATOM      9  H5  UNL     1      -6.678   2.099  11.885  1.00  0.00     0.166 HD
HETATM   10  C19 UNL     1      -5.959   3.885  12.624  1.00  0.00     0.049 A 
HETATM   11  C20 UNL     1      -4.706   3.703  12.051  1.00  0.00     0.069 A 
HETATM   12  C21 UNL     1      -3.688   4.649  12.190  1.00  0.00     0.098 A 
ENDROOT
BRANCH   1  13
HETATM   13  N2  UNL     1      -2.863   6.736  13.049  1.00  0.00    -0.321 N 
HETATM   14  C7  UNL     1      -2.901   8.098  12.874  1.00  0.00     0.245 C 
HETATM   15  O1  UNL     1      -3.880   8.790  12.619  1.00  0.00    -0.268 OA
HETATM   16  H13 UNL     1      -1.975   6.315  13.305  1.00  0.00     0.169 HD
BRANCH  14  17
HETATM   17  C6  UNL     1      -1.587   8.763  13.073  1.00  0.00     0.072 C 
HETATM   18  C5  UNL     1      -0.441   8.098  13.292  1.00  0.00     0.008 C 
BRANCH  18  19
HETATM   19  C4  UNL     1       0.884   8.772  13.473  1.00  0.00     0.297 C 
BRANCH  19  20
HETATM   20  N1  UNL     1       1.377   9.185  12.163  1.00  0.00     0.090 N 
HETATM   21  H8  UNL     1       2.207   9.762  12.296  1.00  0.00     0.316 HD
BRANCH  20  22
HETATM   22  C2  UNL     1       1.727   8.085  11.252  1.00  0.00     0.212 C 
HETATM   23  C1  UNL     1       3.233   7.991  10.995  1.00  0.00     0.042 C 
HETATM   24  C3  UNL     1       0.942   8.114   9.940  1.00  0.00     0.042 C 
ENDBRANCH  20  22
ENDBRANCH  19  20
ENDBRANCH  18  19
ENDBRANCH  14  17
ENDBRANCH   1  13
BRANCH  12  25
HETATM   25  O2  UNL     1      -2.430   4.548  11.644  1.00  0.00    -0.341 OA
BRANCH  25  26
HETATM   26  C22 UNL     1      -1.687   3.351  11.838  1.00  0.00     0.154 C 
HETATM   27  C23 UNL     1      -1.892   2.331  10.738  1.00  0.00     0.061 C 
HETATM   28  C24 UNL     1      -0.614   1.527  10.810  1.00  0.00     0.170 C 
HETATM   29  O3  UNL     1       0.422   2.436  11.205  1.00  0.00    -0.389 OA
HETATM   30  C25 UNL     1      -0.198   3.641  11.678  1.00  0.00     0.200 C 
ENDBRANCH  25  26
ENDBRANCH  12  25
BRANCH   4  31
HETATM   31  N3  UNL     1      -7.841   6.305  14.672  1.00  0.00    -0.342 N 
HETATM   32  H15 UNL     1      -6.991   6.795  14.933  1.00  0.00     0.167 HD
BRANCH  31  33
HETATM   33  C12 UNL     1      -8.932   7.190  14.519  1.00  0.00     0.035 A 
HETATM   34  C13 UNL     1      -8.893   8.430  15.182  1.00  0.00     0.032 A 
HETATM   35  C14 UNL     1      -9.964   9.324  15.107  1.00  0.00     0.046 A 
HETATM   36  C15 UNL     1     -11.098   8.974  14.385  1.00  0.00     0.138 A 
HETATM   37  F1  UNL     1     -12.116   9.845  14.322  1.00  0.00    -0.204 F 
HETATM   38  C16 UNL     1     -11.176   7.737  13.753  1.00  0.00     0.074 A 
HETATM   39 CL1  UNL     1     -12.592   7.287  12.881  1.00  0.00    -0.081 Cl
HETATM   40  C17 UNL     1     -10.104   6.844  13.831  1.00  0.00     0.056 A 
ENDBRANCH  31  33
ENDBRANCH   4  31
TORSDOF 9
ENDMDL
MODEL 3
REMARK minimizedAffinity -8.6561985
REMARK  9 active torsions:
REMARK  status: ('A' for Active; 'I' for Inactive)
REMARK    1  A    between atoms: C2_2  and  N1_4 
REMARK    2  A    between atoms: N1_4  and  C4_5 
REMARK    3  A    between atoms: C4_5  and  C5_6 
REMARK    4  A    between atoms: C6_7  and  C7_8 
REMARK       I    between atoms: C7_8  and  N2_10 
REMARK    5  A    between atoms: N2_10  and  C8_11 
REMARK    6  A    between atoms: C11_14  and  N3_15 
REMARK    7  A    between atoms: N3_15  and  C12_16 
REMARK    8  A    between atoms: C21_31  and  O2_32 
REMARK    9  A    between atoms: O2_32  and  C22_33 
ROOT
HETATM    1  C8  UNL     1      -4.189   5.622  13.181  1.00  0.00     0.069 A 
HETATM    2  C9  UNL     1      -5.355   4.864  13.284  1.00  0.00     0.050 A 
HETATM    3  C10 UNL     1      -5.496   3.638  12.586  1.00  0.00     0.037 A 
HETATM    4  C11 UNL     1      -6.641   2.813  12.614  1.00  0.00     0.119 A 
HETATM    5  N4  UNL     1      -6.690   1.650  11.941  1.00  0.00    -0.338 N 
ATOM      6  H4  UNL     1      -7.515   1.052  11.971  1.00  0.00     0.168 HD
HETATM    7  C18 UNL     1      -5.612   1.314  11.230  1.00  0.00     0.182 A 
HETATM    8  N5  UNL     1      -4.483   2.024  11.124  1.00  0.00    -0.351 N 
ATOM      9  H5  UNL     1      -3.700   1.704  10.554  1.00  0.00     0.166 HD
HETATM   10  C19 UNL     1      -4.433   3.173  11.802  1.00  0.00     0.049 A 
HETATM   11  C20 UNL     1      -3.270   3.930  11.717  1.00  0.00     0.069 A 
HETATM   12  C21 UNL     1      -3.133   5.148  12.385  1.00  0.00     0.098 A 
ENDROOT
BRANCH   1  13
HETATM   13  N2  UNL     1      -4.000   6.859  13.833  1.00  0.00    -0.321 N 
HETATM   14  C7  UNL     1      -4.495   8.090  13.480  1.00  0.00     0.245 C 
HETATM   15  O1  UNL     1      -5.233   8.356  12.538  1.00  0.00    -0.268 OA
HETATM   16  H13 UNL     1      -3.436   6.797  14.675  1.00  0.00     0.169 HD
BRANCH  14  17
HETATM   17  C6  UNL     1      -4.098   9.182  14.407  1.00  0.00     0.072 C 
HETATM   18  C5  UNL     1      -3.909   9.009  15.725  1.00  0.00     0.008 C 
BRANCH  18  19
HETATM   19  C4  UNL     1      -3.490  10.108  16.652  1.00  0.00     0.297 C 
BRANCH  19  20
HETATM   20  N1  UNL     1      -2.845   9.511  17.817  1.00  0.00     0.090 N 
HETATM   21  H8  UNL     1      -1.977   9.068  17.515  1.00  0.00     0.316 HD
BRANCH  20  22
HETATM   22  C2  UNL     1      -2.524  10.448  18.904  1.00  0.00     0.212 C 
HETATM   23  C1  UNL     1      -3.457  11.662  18.926  1.00  0.00     0.042 C 
HETATM   24  C3  UNL     1      -1.056  10.877  18.919  1.00  0.00     0.042 C 
ENDBRANCH  20  22
ENDBRANCH  19  20
ENDBRANCH  18  19
ENDBRANCH  14  17
ENDBRANCH   1  13
BRANCH  12  25
HETATM   25  O2  UNL     1      -2.023   5.958  12.340  1.00  0.00    -0.341 OA
BRANCH  25  26
HETATM   26  C22 UNL     1      -0.747   5.371  12.118  1.00  0.00     0.154 C 
HETATM   27  C23 UNL     1      -0.090   5.830  10.834  1.00  0.00     0.061 C 
HETATM   28  C24 UNL     1       1.376   5.621  11.137  1.00  0.00     0.170 C 
HETATM   29  O3  UNL     1       1.546   5.870  12.539  1.00  0.00    -0.389 OA
HETATM   30  C25 UNL     1       0.247   5.900  13.147  1.00  0.00     0.200 C 
ENDBRANCH  25  26
ENDBRANCH  12  25
BRANCH   4  31
HETATM   31  N3  UNL     1      -7.765   3.222  13.380  1.00  0.00    -0.342 N 
HETATM   32  H15 UNL     1      -7.951   2.532  14.102  1.00  0.00     0.167 HD
BRANCH  31  33
HETATM   33  C12 UNL     1      -8.142   4.521  13.787  1.00  0.00     0.035 A 
HETATM   34  C13 UNL     1      -8.824   5.343  12.872  1.00  0.00     0.032 A 
HETATM   35  C14 UNL     1      -9.178   6.655  13.202  1.00  0.00     0.046 A 
HETATM   36  C15 UNL     1      -8.830   7.164  14.446  1.00  0.00     0.138 A 
HETATM   37  F1  UNL     1      -9.179   8.423  14.747  1.00  0.00    -0.204 F 
HETATM   38  C16 UNL     1      -8.121   6.383  15.353  1.00  0.00     0.074 A 
HETATM   39 CL1  UNL     1      -7.662   7.022  16.887  1.00  0.00    -0.081 Cl
HETATM   40  C17 UNL     1      -7.767   5.073  15.020  1.00  0.00     0.056 A 
ENDBRANCH  31  33
ENDBRANCH   4  31
TORSDOF 9
ENDMDL
MODEL 4
REMARK minimizedAffinity -8.60075188
REMARK  9 active torsions:
REMARK  status: ('A' for Active; 'I' for Inactive)
REMARK    1  A    between atoms: C2_2  and  N1_4 
REMARK    2  A    between atoms: N1_4  and  C4_5 
REMARK    3  A    between atoms: C4_5  and  C5_6 
REMARK    4  A    between atoms: C6_7  and  C7_8 
REMARK       I    between atoms: C7_8  and  N2_10 
REMARK    5  A    between atoms: N2_10  and  C8_11 
REMARK    6  A    between atoms: C11_14  and  N3_15 
REMARK    7  A    between atoms: N3_15  and  C12_16 
REMARK    8  A    between atoms: C21_31  and  O2_32 
REMARK    9  A    between atoms: O2_32  and  C22_33 
ROOT
HETATM    1  C8  UNL     1      -0.453   5.633  12.805  1.00  0.00     0.069 A 
HETATM    2  C9  UNL     1       0.834   5.782  12.288  1.00  0.00     0.050 A 
HETATM    3  C10 UNL     1       1.778   6.638  12.910  1.00  0.00     0.037 A 
HETATM    4  C11 UNL     1       3.094   6.866  12.452  1.00  0.00     0.119 A 
HETATM    5  N4  UNL     1       3.940   7.678  13.110  1.00  0.00    -0.338 N 
ATOM      6  H4  UNL     1       4.893   7.832  12.782  1.00  0.00     0.168 HD
HETATM    7  C18 UNL     1       3.477   8.272  14.212  1.00  0.00     0.182 A 
HETATM    8  N5  UNL     1       2.250   8.136  14.726  1.00  0.00    -0.351 N 
ATOM      9  H5  UNL     1       1.966   8.630  15.572  1.00  0.00     0.166 HD
HETATM   10  C19 UNL     1       1.415   7.322  14.076  1.00  0.00     0.049 A 
HETATM   11  C20 UNL     1       0.135   7.156  14.590  1.00  0.00     0.069 A 
HETATM   12  C21 UNL     1      -0.807   6.332  13.972  1.00  0.00     0.098 A 
ENDROOT
BRANCH   1  13
HETATM   13  N2  UNL     1      -1.441   4.814  12.218  1.00  0.00    -0.321 N 
HETATM   14  C7  UNL     1      -1.326   3.511  11.801  1.00  0.00     0.245 C 
HETATM   15  O1  UNL     1      -0.344   2.783  11.887  1.00  0.00    -0.268 OA
HETATM   16  H13 UNL     1      -2.344   5.268  12.118  1.00  0.00     0.169 HD
BRANCH  14  17
HETATM   17  C6  UNL     1      -2.580   2.954  11.229  1.00  0.00     0.072 C 
HETATM   18  C5  UNL     1      -3.734   3.638  11.159  1.00  0.00     0.008 C 
BRANCH  18  19
HETATM   19  C4  UNL     1      -4.991   3.079  10.565  1.00  0.00     0.297 C 
BRANCH  19  20
HETATM   20  N1  UNL     1      -5.819   2.552  11.645  1.00  0.00     0.090 N 
HETATM   21  H8  UNL     1      -5.206   2.194  12.378  1.00  0.00     0.316 HD
BRANCH  20  22
HETATM   22  C2  UNL     1      -6.741   3.522  12.256  1.00  0.00     0.212 C 
HETATM   23  C1  UNL     1      -6.021   4.534  13.150  1.00  0.00     0.042 C 
HETATM   24  C3  UNL     1      -7.909   2.864  12.992  1.00  0.00     0.042 C 
ENDBRANCH  20  22
ENDBRANCH  19  20
ENDBRANCH  18  19
ENDBRANCH  14  17
ENDBRANCH   1  13
BRANCH  12  25
HETATM   25  O2  UNL     1      -2.093   6.126  14.410  1.00  0.00    -0.341 OA
BRANCH  25  26
HETATM   26  C22 UNL     1      -2.992   7.227  14.455  1.00  0.00     0.154 C 
HETATM   27  C23 UNL     1      -3.691   7.488  13.139  1.00  0.00     0.061 C 
HETATM   28  C24 UNL     1      -4.955   8.188  13.584  1.00  0.00     0.170 C 
HETATM   29  O3  UNL     1      -5.308   7.628  14.856  1.00  0.00    -0.389 OA
HETATM   30  C25 UNL     1      -4.184   6.881  15.342  1.00  0.00     0.200 C 
ENDBRANCH  25  26
ENDBRANCH  12  25
BRANCH   4  31
HETATM   31  N3  UNL     1       3.534   6.215  11.269  1.00  0.00    -0.342 N 
HETATM   32  H15 UNL     1       3.657   5.224  11.455  1.00  0.00     0.167 HD
BRANCH  31  33
HETATM   33  C12 UNL     1       3.161   6.454   9.927  1.00  0.00     0.035 A 
HETATM   34  C13 UNL     1       2.516   7.664   9.612  1.00  0.00     0.032 A 
HETATM   35  C14 UNL     1       2.080   7.934   8.311  1.00  0.00     0.046 A 
HETATM   36  C15 UNL     1       2.264   6.982   7.317  1.00  0.00     0.138 A 
HETATM   37  F1  UNL     1       1.842   7.258   6.075  1.00  0.00    -0.204 F 
HETATM   38  C16 UNL     1       2.864   5.762   7.614  1.00  0.00     0.074 A 
HETATM   39 CL1  UNL     1       3.067   4.566   6.389  1.00  0.00    -0.081 Cl
HETATM   40  C17 UNL     1       3.297   5.494   8.915  1.00  0.00     0.056 A 
ENDBRANCH  31  33
ENDBRANCH   4  31
TORSDOF 9
ENDMDL
MODEL 5
REMARK minimizedAffinity -8.41676044
REMARK  9 active torsions:
REMARK  status: ('A' for Active; 'I' for Inactive)
REMARK    1  A    between atoms: C2_2  and  N1_4 
REMARK    2  A    between atoms: N1_4  and  C4_5 
REMARK    3  A    between atoms: C4_5  and  C5_6 
REMARK    4  A    between atoms: C6_7  and  C7_8 
REMARK       I    between atoms: C7_8  and  N2_10 
REMARK    5  A    between atoms: N2_10  and  C8_11 
REMARK    6  A    between atoms: C11_14  and  N3_15 
REMARK    7  A    between atoms: N3_15  and  C12_16 
REMARK    8  A    between atoms: C21_31  and  O2_32 
REMARK    9  A    between atoms: O2_32  and  C22_33 
ROOT
HETATM    1  C8  UNL     1      -3.565   5.293  12.916  1.00  0.00     0.069 A 
HETATM    2  C9  UNL     1      -4.910   4.926  12.868  1.00  0.00     0.050 A 
HETATM    3  C10 UNL     1      -5.310   3.680  12.322  1.00  0.00     0.037 A 
HETATM    4  C11 UNL     1      -6.643   3.229  12.215  1.00  0.00     0.119 A 
HETATM    5  N4  UNL     1      -6.942   2.022  11.704  1.00  0.00    -0.338 N 
ATOM      6  H4  UNL     1      -7.905   1.695  11.637  1.00  0.00     0.168 HD
HETATM    7  C18 UNL     1      -5.921   1.270  11.287  1.00  0.00     0.182 A 
HETATM    8  N5  UNL     1      -4.626   1.603  11.330  1.00  0.00    -0.351 N 
ATOM      9  H5  UNL     1      -3.900   0.975  10.985  1.00  0.00     0.166 HD
HETATM   10  C19 UNL     1      -4.332   2.797  11.847  1.00  0.00     0.049 A 
HETATM   11  C20 UNL     1      -2.994   3.169  11.912  1.00  0.00     0.069 A 
HETATM   12  C21 UNL     1      -2.595   4.402  12.429  1.00  0.00     0.098 A 
ENDROOT
BRANCH   1  13
HETATM   13  N2  UNL     1      -3.110   6.528  13.427  1.00  0.00    -0.321 N 
HETATM   14  C7  UNL     1      -3.734   7.750  13.375  1.00  0.00     0.245 C 
HETATM   15  O1  UNL     1      -4.834   8.008  12.901  1.00  0.00    -0.268 OA
HETATM   16  H13 UNL     1      -2.214   6.471  13.899  1.00  0.00     0.169 HD
BRANCH  14  17
HETATM   17  C6  UNL     1      -2.963   8.842  14.025  1.00  0.00     0.072 C 
HETATM   18  C5  UNL     1      -2.023   9.567  13.396  1.00  0.00     0.008 C 
BRANCH  18  19
HETATM   19  C4  UNL     1      -1.261  10.678  14.051  1.00  0.00     0.297 C 
BRANCH  19  20
HETATM   20  N1  UNL     1       0.152  10.313  14.085  1.00  0.00     0.090 N 
HETATM   21  H8  UNL     1       0.667  10.955  13.482  1.00  0.00     0.316 HD
BRANCH  20  22
HETATM   22  C2  UNL     1       0.773  10.342  15.417  1.00  0.00     0.212 C 
HETATM   23  C1  UNL     1       2.290  10.147  15.362  1.00  0.00     0.042 C 
HETATM   24  C3  UNL     1       0.125   9.373  16.407  1.00  0.00     0.042 C 
ENDBRANCH  20  22
ENDBRANCH  19  20
ENDBRANCH  18  19
ENDBRANCH  14  17
ENDBRANCH   1  13
BRANCH  12  25
HETATM   25  O2  UNL     1      -1.297   4.846  12.514  1.00  0.00    -0.341 OA
BRANCH  25  26
HETATM   26  C22 UNL     1      -0.549   5.030  11.319  1.00  0.00     0.154 C 
HETATM   27  C23 UNL     1      -0.140   6.467  11.080  1.00  0.00     0.061 C 
HETATM   28  C24 UNL     1       1.087   6.308  10.212  1.00  0.00     0.170 C 
HETATM   29  O3  UNL     1       1.733   5.098  10.631  1.00  0.00    -0.389 OA
HETATM   30  C25 UNL     1       0.818   4.368  11.461  1.00  0.00     0.200 C 
ENDBRANCH  25  26
ENDBRANCH  12  25
BRANCH   4  31
HETATM   31  N3  UNL     1      -7.693   4.072  12.667  1.00  0.00    -0.342 N 
HETATM   32  H15 UNL     1      -8.586   3.617  12.503  1.00  0.00     0.167 HD
BRANCH  31  33
HETATM   33  C12 UNL     1      -7.734   4.917  13.798  1.00  0.00     0.035 A 
HETATM   34  C13 UNL     1      -7.392   4.382  15.053  1.00  0.00     0.032 A 
HETATM   35  C14 UNL     1      -7.463   5.158  16.214  1.00  0.00     0.046 A 
HETATM   36  C15 UNL     1      -7.901   6.473  16.132  1.00  0.00     0.138 A 
HETATM   37  F1  UNL     1      -7.961   7.203  17.255  1.00  0.00    -0.204 F 
HETATM   38  C16 UNL     1      -8.282   7.013  14.907  1.00  0.00     0.074 A 
HETATM   39 CL1  UNL     1      -8.854   8.635  14.806  1.00  0.00    -0.081 Cl
HETATM   40  C17 UNL     1      -8.212   6.235  13.749  1.00  0.00     0.056 A 
ENDBRANCH  31  33
ENDBRANCH   4  31
TORSDOF 9
ENDMDL
MODEL 6
REMARK minimizedAffinity -8.37251186
REMARK  9 active torsions:
REMARK  status: ('A' for Active; 'I' for Inactive)
REMARK    1  A    between atoms: C2_2  and  N1_4 
REMARK    2  A    between atoms: N1_4  and  C4_5 
REMARK    3  A    between atoms: C4_5  and  C5_6 
REMARK    4  A    between atoms: C6_7  and  C7_8 
REMARK       I    between atoms: C7_8  and  N2_10 
REMARK    5  A    between atoms: N2_10  and  C8_11 
REMARK    6  A    between atoms: C11_14  and  N3_15 
REMARK    7  A    between atoms: N3_15  and  C12_16 
REMARK    8  A    between atoms: C21_31  and  O2_32 
REMARK    9  A    between atoms: O2_32  and  C22_33 
ROOT
HETATM    1  C8  UNL     1      -2.120   5.103  13.060  1.00  0.00     0.069 A 
HETATM    2  C9  UNL     1      -3.454   4.794  13.326  1.00  0.00     0.050 A 
HETATM    3  C10 UNL     1      -4.247   4.098  12.379  1.00  0.00     0.037 A 
HETATM    4  C11 UNL     1      -5.606   3.757  12.548  1.00  0.00     0.119 A 
HETATM    5  N4  UNL     1      -6.286   3.075  11.611  1.00  0.00    -0.338 N 
ATOM      6  H4  UNL     1      -7.266   2.822  11.742  1.00  0.00     0.168 HD
HETATM    7  C18 UNL     1      -5.623   2.743  10.501  1.00  0.00     0.182 A 
HETATM    8  N5  UNL     1      -4.344   3.025  10.232  1.00  0.00    -0.351 N 
ATOM      9  H5  UNL     1      -3.906   2.742   9.355  1.00  0.00     0.166 HD
HETATM   10  C19 UNL     1      -3.668   3.694  11.169  1.00  0.00     0.049 A 
HETATM   11  C20 UNL     1      -2.334   3.995  10.921  1.00  0.00     0.069 A 
HETATM   12  C21 UNL     1      -1.554   4.699  11.840  1.00  0.00     0.098 A 
ENDROOT
BRANCH   1  13
HETATM   13  N2  UNL     1      -1.290   5.812  13.954  1.00  0.00    -0.321 N 
HETATM   14  C7  UNL     1      -1.581   6.954  14.660  1.00  0.00     0.245 C 
HETATM   15  O1  UNL     1      -2.640   7.569  14.680  1.00  0.00    -0.268 OA
HETATM   16  H13 UNL     1      -0.374   5.395  14.083  1.00  0.00     0.169 HD
BRANCH  14  17
HETATM   17  C6  UNL     1      -0.463   7.427  15.518  1.00  0.00     0.072 C 
HETATM   18  C5  UNL     1       0.833   7.233  15.226  1.00  0.00     0.008 C 
BRANCH  18  19
HETATM   19  C4  UNL     1       1.957   7.728  16.084  1.00  0.00     0.297 C 
BRANCH  19  20
HETATM   20  N1  UNL     1       3.208   7.178  15.570  1.00  0.00     0.090 N 
HETATM   21  H8  UNL     1       2.994   6.356  15.006  1.00  0.00     0.316 HD
BRANCH  20  22
HETATM   22  C2  UNL     1       4.005   8.101  14.748  1.00  0.00     0.212 C 
HETATM   23  C1  UNL     1       3.733   7.937  13.250  1.00  0.00     0.042 C 
HETATM   24  C3  UNL     1       5.503   8.039  15.049  1.00  0.00     0.042 C 
ENDBRANCH  20  22
ENDBRANCH  19  20
ENDBRANCH  18  19
ENDBRANCH  14  17
ENDBRANCH   1  13
BRANCH  12  25
HETATM   25  O2  UNL     1      -0.236   5.045  11.663  1.00  0.00    -0.341 OA
BRANCH  25  26
HETATM   26  C22 UNL     1       0.100   5.999  10.663  1.00  0.00     0.154 C 
HETATM   27  C23 UNL     1      -0.009   7.432  11.139  1.00  0.00     0.061 C 
HETATM   28  C24 UNL     1       0.952   8.146  10.216  1.00  0.00     0.170 C 
HETATM   29  O3  UNL     1       2.011   7.223   9.931  1.00  0.00    -0.389 OA
HETATM   30  C25 UNL     1       1.592   5.918  10.356  1.00  0.00     0.200 C 
ENDBRANCH  25  26
ENDBRANCH  12  25
BRANCH   4  31
HETATM   31  N3  UNL     1      -6.267   4.142  13.746  1.00  0.00    -0.342 N 
HETATM   32  H15 UNL     1      -5.585   4.235  14.493  1.00  0.00     0.167 HD
BRANCH  31  33
HETATM   33  C12 UNL     1      -7.359   5.021  13.920  1.00  0.00     0.035 A 
HETATM   34  C13 UNL     1      -8.217   5.256  12.830  1.00  0.00     0.032 A 
HETATM   35  C14 UNL     1      -9.283   6.155  12.929  1.00  0.00     0.046 A 
HETATM   36  C15 UNL     1      -9.486   6.846  14.116  1.00  0.00     0.138 A 
HETATM   37  F1  UNL     1     -10.515   7.703  14.194  1.00  0.00    -0.204 F 
HETATM   38  C16 UNL     1      -8.628   6.660  15.195  1.00  0.00     0.074 A 
HETATM   39 CL1  UNL     1      -8.860   7.538  16.659  1.00  0.00    -0.081 Cl
HETATM   40  C17 UNL     1      -7.562   5.762  15.093  1.00  0.00     0.056 A 
ENDBRANCH  31  33
ENDBRANCH   4  31
TORSDOF 9
ENDMDL
MODEL 7
REMARK minimizedAffinity -8.2843771
REMARK  9 active torsions:
REMARK  status: ('A' for Active; 'I' for Inactive)
REMARK    1  A    between atoms: C2_2  and  N1_4 
REMARK    2  A    between atoms: N1_4  and  C4_5 
REMARK    3  A    between atoms: C4_5  and  C5_6 
REMARK    4  A    between atoms: C6_7  and  C7_8 
REMARK       I    between atoms: C7_8  and  N2_10 
REMARK    5  A    between atoms: N2_10  and  C8_11 
REMARK    6  A    between atoms: C11_14  and  N3_15 
REMARK    7  A    between atoms: N3_15  and  C12_16 
REMARK    8  A    between atoms: C21_31  and  O2_32 
REMARK    9  A    between atoms: O2_32  and  C22_33 
ROOT
HETATM    1  C8  UNL     1      -1.488   6.672  12.850  1.00  0.00     0.069 A 
HETATM    2  C9  UNL     1      -1.927   7.530  13.858  1.00  0.00     0.050 A 
HETATM    3  C10 UNL     1      -3.218   7.392  14.427  1.00  0.00     0.037 A 
HETATM    4  C11 UNL     1      -3.757   8.220  15.435  1.00  0.00     0.119 A 
HETATM    5  N4  UNL     1      -4.985   8.012  15.940  1.00  0.00    -0.338 N 
ATOM      6  H4  UNL     1      -5.366   8.606  16.676  1.00  0.00     0.168 HD
HETATM    7  C18 UNL     1      -5.683   6.992  15.436  1.00  0.00     0.182 A 
HETATM    8  N5  UNL     1      -5.277   6.156  14.475  1.00  0.00    -0.351 N 
ATOM      9  H5  UNL     1      -5.872   5.400  14.135  1.00  0.00     0.166 HD
HETATM   10  C19 UNL     1      -4.053   6.359  13.982  1.00  0.00     0.049 A 
HETATM   11  C20 UNL     1      -3.600   5.502  12.987  1.00  0.00     0.069 A 
HETATM   12  C21 UNL     1      -2.338   5.645  12.408  1.00  0.00     0.098 A 
ENDROOT
BRANCH   1  13
HETATM   13  N2  UNL     1      -0.224   6.775  12.232  1.00  0.00    -0.321 N 
HETATM   14  C7  UNL     1       1.006   6.454  12.753  1.00  0.00     0.245 C 
HETATM   15  O1  UNL     1       1.247   5.978  13.856  1.00  0.00    -0.268 OA
HETATM   16  H13 UNL     1      -0.260   7.119  11.277  1.00  0.00     0.169 HD
BRANCH  14  17
HETATM   17  C6  UNL     1       2.132   6.686  11.813  1.00  0.00     0.072 C 
HETATM   18  C5  UNL     1       2.462   5.841  10.822  1.00  0.00     0.008 C 
BRANCH  18  19
HETATM   19  C4  UNL     1       3.587   6.088   9.864  1.00  0.00     0.297 C 
BRANCH  19  20
HETATM   20  N1  UNL     1       3.074   5.960   8.504  1.00  0.00     0.090 N 
HETATM   21  H8  UNL     1       2.454   5.151   8.467  1.00  0.00     0.316 HD
BRANCH  20  22
HETATM   22  C2  UNL     1       2.331   7.127   8.004  1.00  0.00     0.212 C 
HETATM   23  C1  UNL     1       1.868   6.952   6.555  1.00  0.00     0.042 C 
HETATM   24  C3  UNL     1       3.081   8.446   8.191  1.00  0.00     0.042 C 
ENDBRANCH  20  22
ENDBRANCH  19  20
ENDBRANCH  18  19
ENDBRANCH  14  17
ENDBRANCH   1  13
BRANCH  12  25
HETATM   25  O2  UNL     1      -1.825   4.848  11.413  1.00  0.00    -0.341 OA
BRANCH  25  26
HETATM   26  C22 UNL     1      -1.616   3.465  11.673  1.00  0.00     0.154 C 
HETATM   27  C23 UNL     1      -2.134   2.562  10.575  1.00  0.00     0.061 C 
HETATM   28  C24 UNL     1      -1.275   1.331  10.745  1.00  0.00     0.170 C 
HETATM   29  O3  UNL     1       0.007   1.784  11.200  1.00  0.00    -0.389 OA
HETATM   30  C25 UNL     1      -0.124   3.152  11.614  1.00  0.00     0.200 C 
ENDBRANCH  25  26
ENDBRANCH  12  25
BRANCH   4  31
HETATM   31  N3  UNL     1      -2.974   9.297  15.932  1.00  0.00    -0.342 N 
HETATM   32  H15 UNL     1      -2.236   9.512  15.267  1.00  0.00     0.167 HD
BRANCH  31  33
HETATM   33  C12 UNL     1      -3.385  10.443  16.648  1.00  0.00     0.035 A 
HETATM   34  C13 UNL     1      -3.212  10.464  18.044  1.00  0.00     0.032 A 
HETATM   35  C14 UNL     1      -3.646  11.550  18.810  1.00  0.00     0.046 A 
HETATM   36  C15 UNL     1      -4.280  12.617  18.187  1.00  0.00     0.138 A 
HETATM   37  F1  UNL     1      -4.688  13.651  18.937  1.00  0.00    -0.204 F 
HETATM   38  C16 UNL     1      -4.497  12.601  16.813  1.00  0.00     0.074 A 
HETATM   39 CL1  UNL     1      -5.310  13.909  16.040  1.00  0.00    -0.081 Cl
HETATM   40  C17 UNL     1      -4.064  11.514  16.049  1.00  0.00     0.056 A 
ENDBRANCH  31  33
ENDBRANCH   4  31
TORSDOF 9
ENDMDL
MODEL 8
REMARK minimizedAffinity -8.2524147
REMARK  9 active torsions:
REMARK  status: ('A' for Active; 'I' for Inactive)
REMARK    1  A    between atoms: C2_2  and  N1_4 
REMARK    2  A    between atoms: N1_4  and  C4_5 
REMARK    3  A    between atoms: C4_5  and  C5_6 
REMARK    4  A    between atoms: C6_7  and  C7_8 
REMARK       I    between atoms: C7_8  and  N2_10 
REMARK    5  A    between atoms: N2_10  and  C8_11 
REMARK    6  A    between atoms: C11_14  and  N3_15 
REMARK    7  A    between atoms: N3_15  and  C12_16 
REMARK    8  A    between atoms: C21_31  and  O2_32 
REMARK    9  A    between atoms: O2_32  and  C22_33 
ROOT
HETATM    1  C8  UNL     1      -7.721   6.236  13.887  1.00  0.00     0.069 A 
HETATM    2  C9  UNL     1      -9.112   6.208  13.977  1.00  0.00     0.050 A 
HETATM    3  C10 UNL     1      -9.819   7.196  14.708  1.00  0.00     0.037 A 
HETATM    4  C11 UNL     1     -11.220   7.242  14.870  1.00  0.00     0.119 A 
HETATM    5  N4  UNL     1     -11.820   8.226  15.562  1.00  0.00    -0.338 N 
ATOM      6  H4  UNL     1     -12.833   8.262  15.669  1.00  0.00     0.168 HD
HETATM    7  C18 UNL     1     -11.030   9.155  16.105  1.00  0.00     0.182 A 
HETATM    8  N5  UNL     1      -9.696   9.201  16.024  1.00  0.00    -0.351 N 
ATOM      9  H5  UNL     1      -9.157   9.943  16.473  1.00  0.00     0.166 HD
HETATM   10  C19 UNL     1      -9.104   8.228  15.328  1.00  0.00     0.049 A 
HETATM   11  C20 UNL     1      -7.718   8.253  15.221  1.00  0.00     0.069 A 
HETATM   12  C21 UNL     1      -7.014   7.272  14.520  1.00  0.00     0.098 A 
ENDROOT
BRANCH   1  13
HETATM   13  N2  UNL     1      -6.963   5.269  13.193  1.00  0.00    -0.321 N 
HETATM   14  C7  UNL     1      -7.282   3.956  12.947  1.00  0.00     0.245 C 
HETATM   15  O1  UNL     1      -8.312   3.367  13.255  1.00  0.00    -0.268 OA
HETATM   16  H13 UNL     1      -6.084   5.620  12.828  1.00  0.00     0.169 HD
BRANCH  14  17
HETATM   17  C6  UNL     1      -6.245   3.224  12.174  1.00  0.00     0.072 C 
HETATM   18  C5  UNL     1      -4.997   3.683  11.982  1.00  0.00     0.008 C 
BRANCH  18  19
HETATM   19  C4  UNL     1      -3.949   2.933  11.218  1.00  0.00     0.297 C 
BRANCH  19  20
HETATM   20  N1  UNL     1      -2.701   2.982  11.975  1.00  0.00     0.090 N 
HETATM   21  H8  UNL     1      -2.727   2.255  12.689  1.00  0.00     0.316 HD
BRANCH  20  22
HETATM   22  C2  UNL     1      -1.480   2.795  11.178  1.00  0.00     0.212 C 
HETATM   23  C1  UNL     1      -1.206   1.322  10.860  1.00  0.00     0.042 C 
HETATM   24  C3  UNL     1      -0.250   3.468  11.789  1.00  0.00     0.042 C 
ENDBRANCH  20  22
ENDBRANCH  19  20
ENDBRANCH  18  19
ENDBRANCH  14  17
ENDBRANCH   1  13
BRANCH  12  25
HETATM   25  O2  UNL     1      -5.648   7.221  14.381  1.00  0.00    -0.341 OA
BRANCH  25  26
HETATM   26  C22 UNL     1      -4.918   8.436  14.274  1.00  0.00     0.154 C 
HETATM   27  C23 UNL     1      -3.923   8.641  15.396  1.00  0.00     0.061 C 
HETATM   28  C24 UNL     1      -2.908   9.559  14.756  1.00  0.00     0.170 C 
HETATM   29  O3  UNL     1      -2.850   9.204  13.368  1.00  0.00    -0.389 OA
HETATM   30  C25 UNL     1      -3.978   8.366  13.075  1.00  0.00     0.200 C 
ENDBRANCH  25  26
ENDBRANCH  12  25
BRANCH   4  31
HETATM   31  N3  UNL     1     -12.015   6.224  14.279  1.00  0.00    -0.342 N 
HETATM   32  H15 UNL     1     -11.775   5.326  14.690  1.00  0.00     0.167 HD
BRANCH  31  33
HETATM   33  C12 UNL     1     -13.367   6.270  13.872  1.00  0.00     0.035 A 
HETATM   34  C13 UNL     1     -13.718   7.095  12.788  1.00  0.00     0.032 A 
HETATM   35  C14 UNL     1     -15.048   7.218  12.375  1.00  0.00     0.046 A 
HETATM   36  C15 UNL     1     -16.043   6.534  13.059  1.00  0.00     0.138 A 
HETATM   37  F1  UNL     1     -17.313   6.663  12.647  1.00  0.00    -0.204 F 
HETATM   38  C16 UNL     1     -15.725   5.743  14.158  1.00  0.00     0.074 A 
HETATM   39 CL1  UNL     1     -16.962   4.916  15.028  1.00  0.00    -0.081 Cl
HETATM   40  C17 UNL     1     -14.396   5.622  14.571  1.00  0.00     0.056 A 
ENDBRANCH  31  33
ENDBRANCH   4  31
TORSDOF 9
ENDMDL
MODEL 9
REMARK minimizedAffinity -8.22467613
REMARK  9 active torsions:
REMARK  status: ('A' for Active; 'I' for Inactive)
REMARK    1  A    between atoms: C2_2  and  N1_4 
REMARK    2  A    between atoms: N1_4  and  C4_5 
REMARK    3  A    between atoms: C4_5  and  C5_6 
REMARK    4  A    between atoms: C6_7  and  C7_8 
REMARK       I    between atoms: C7_8  and  N2_10 
REMARK    5  A    between atoms: N2_10  and  C8_11 
REMARK    6  A    between atoms: C11_14  and  N3_15 
REMARK    7  A    between atoms: N3_15  and  C12_16 
REMARK    8  A    between atoms: C21_31  and  O2_32 
REMARK    9  A    between atoms: O2_32  and  C22_33 
ROOT
HETATM    1  C8  UNL     1      -6.047   5.875  14.024  1.00  0.00     0.069 A 
HETATM    2  C9  UNL     1      -5.207   5.346  13.044  1.00  0.00     0.050 A 
HETATM    3  C10 UNL     1      -5.470   4.081  12.460  1.00  0.00     0.037 A 
HETATM    4  C11 UNL     1      -4.671   3.457  11.478  1.00  0.00     0.119 A 
HETATM    5  N4  UNL     1      -4.999   2.262  10.955  1.00  0.00    -0.338 N 
ATOM      6  H4  UNL     1      -4.425   1.819  10.238  1.00  0.00     0.168 HD
HETATM    7  C18 UNL     1      -6.109   1.682  11.416  1.00  0.00     0.182 A 
HETATM    8  N5  UNL     1      -6.928   2.176  12.350  1.00  0.00    -0.351 N 
ATOM      9  H5  UNL     1      -7.759   1.669  12.657  1.00  0.00     0.166 HD
HETATM   10  C19 UNL     1      -6.606   3.367  12.860  1.00  0.00     0.049 A 
HETATM   11  C20 UNL     1      -7.443   3.910  13.827  1.00  0.00     0.069 A 
HETATM   12  C21 UNL     1      -7.180   5.145  14.422  1.00  0.00     0.098 A 
ENDROOT
BRANCH   1  13
HETATM   13  N2  UNL     1      -5.825   7.117  14.656  1.00  0.00    -0.321 N 
HETATM   14  C7  UNL     1      -5.354   8.281  14.100  1.00  0.00     0.245 C 
HETATM   15  O1  UNL     1      -5.064   8.484  12.927  1.00  0.00    -0.268 OA
HETATM   16  H13 UNL     1      -6.066   7.125  15.642  1.00  0.00     0.169 HD
BRANCH  14  17
HETATM   17  C6  UNL     1      -5.249   9.405  15.067  1.00  0.00     0.072 C 
HETATM   18  C5  UNL     1      -4.118  10.097  15.285  1.00  0.00     0.008 C 
BRANCH  18  19
HETATM   19  C4  UNL     1      -4.022  11.241  16.247  1.00  0.00     0.297 C 
BRANCH  19  20
HETATM   20  N1  UNL     1      -3.287  10.794  17.426  1.00  0.00     0.090 N 
HETATM   21  H8  UNL     1      -3.230   9.776  17.405  1.00  0.00     0.316 HD
BRANCH  20  22
HETATM   22  C2  UNL     1      -1.921  11.324  17.549  1.00  0.00     0.212 C 
HETATM   23  C1  UNL     1      -1.264  10.952  18.880  1.00  0.00     0.042 C 
HETATM   24  C3  UNL     1      -1.831  12.829  17.288  1.00  0.00     0.042 C 
ENDBRANCH  20  22
ENDBRANCH  19  20
ENDBRANCH  18  19
ENDBRANCH  14  17
ENDBRANCH   1  13
BRANCH  12  25
HETATM   25  O2  UNL     1      -7.950   5.741  15.392  1.00  0.00    -0.341 OA
BRANCH  25  26
HETATM   26  C22 UNL     1      -8.628   6.954  15.088  1.00  0.00     0.154 C 
HETATM   27  C23 UNL     1      -9.977   6.741  14.435  1.00  0.00     0.061 C 
HETATM   28  C24 UNL     1     -10.709   8.012  14.801  1.00  0.00     0.170 C 
HETATM   29  O3  UNL     1     -10.230   8.405  16.094  1.00  0.00    -0.389 OA
HETATM   30  C25 UNL     1      -9.047   7.645  16.381  1.00  0.00     0.200 C 
ENDBRANCH  25  26
ENDBRANCH  12  25
BRANCH   4  31
HETATM   31  N3  UNL     1      -3.495   4.114  11.027  1.00  0.00    -0.342 N 
HETATM   32  H15 UNL     1      -3.750   4.862  10.389  1.00  0.00     0.167 HD
BRANCH  31  33
HETATM   33  C12 UNL     1      -2.312   4.412  11.739  1.00  0.00     0.035 A 
HETATM   34  C13 UNL     1      -2.418   4.851  13.072  1.00  0.00     0.032 A 
HETATM   35  C14 UNL     1      -1.284   5.207  13.808  1.00  0.00     0.046 A 
HETATM   36  C15 UNL     1      -0.033   5.151  13.208  1.00  0.00     0.138 A 
HETATM   37  F1  UNL     1       1.043   5.495  13.930  1.00  0.00    -0.204 F 
HETATM   38  C16 UNL     1       0.093   4.758  11.879  1.00  0.00     0.074 A 
HETATM   39 CL1  UNL     1       1.640   4.716  11.122  1.00  0.00    -0.081 Cl
HETATM   40  C17 UNL     1      -1.042   4.404  11.145  1.00  0.00     0.056 A 
ENDBRANCH  31  33
ENDBRANCH   4  31
TORSDOF 9
ENDMDL
