MODEL 1
REMARK minimizedAffinity -10.0070934
REMARK  5 active torsions:
REMARK  status: ('A' for Active; 'I' for Inactive)
REMARK    1  A    between atoms: O1_2  and  C2_3 
REMARK    2  A    between atoms: C4_5  and  N1_6 
REMARK    3  A    between atoms: N1_6  and  C5_7 
REMARK    4  A    between atoms: C9_13  and  C10_14 
REMARK    5  A    between atoms: C20_30  and  O3_31 
ROOT
HETATM    1  C5  UNL     1       4.941  -4.927  29.169  1.00  0.00     0.684 A 
HETATM    2  N2  UNL     1       4.636  -3.852  29.906  1.00  0.00    -0.201 N 
ATOM      3  H2  UNL     1       3.741  -3.373  29.798  1.00  0.00     0.183 HD
HETATM    4  C6  UNL     1       5.551  -3.425  30.795  1.00  0.00     0.121 A 
HETATM    5  C7  UNL     1       6.770  -4.031  30.982  1.00  0.00     0.026 A 
HETATM    6  C8  UNL     1       7.755  -3.565  31.944  1.00  0.00     0.034 A 
HETATM    7  C9  UNL     1       8.922  -4.217  32.062  1.00  0.00     0.047 A 
HETATM    8  C16 UNL     1       9.219  -5.420  31.212  1.00  0.00     0.260 A 
HETATM    9  O2  UNL     1      10.298  -5.998  31.343  1.00  0.00    -0.267 OA
HETATM   10  N3  UNL     1       8.240  -5.816  30.314  1.00  0.00    -0.303 N 
HETATM   11  C17 UNL     1       8.464  -6.970  29.462  1.00  0.00     0.161 C 
HETATM   12  C18 UNL     1       7.004  -5.132  30.182  1.00  0.00     0.137 A 
HETATM   13  N4  UNL     1       6.106  -5.584  29.282  1.00  0.00    -0.175 N 
ATOM     14  H4  UNL     1       6.306  -6.400  28.704  1.00  0.00     0.186 HD
ENDROOT
BRANCH   1  15
HETATM   15  N1  UNL     1       4.065  -5.450  28.222  1.00  0.00    -0.191 N 
HETATM   16  H5  UNL     1       3.824  -4.722  27.567  1.00  0.00     0.184 HD
BRANCH  15  17
HETATM   17  C4  UNL     1       3.488  -6.710  28.015  1.00  0.00     0.054 A 
HETATM   18  C3  UNL     1       4.314  -7.756  27.564  1.00  0.00     0.066 A 
HETATM   19  C2  UNL     1       3.805  -9.037  27.336  1.00  0.00     0.073 A 
HETATM   20  C22 UNL     1       2.450  -9.290  27.558  1.00  0.00     0.073 A 
HETATM   21  C20 UNL     1       1.610  -8.272  28.003  1.00  0.00     0.073 A 
HETATM   22  C19 UNL     1       2.136  -6.995  28.227  1.00  0.00     0.066 A 
BRANCH  19  23
HETATM   23  O1  UNL     1       4.520 -10.121  26.900  1.00  0.00    -0.356 OA
HETATM   24  C1  UNL     1       5.934  -9.988  26.854  1.00  0.00     0.210 C 
ENDBRANCH  19  23
BRANCH  21  25
HETATM   25  O3  UNL     1       0.270  -8.393  28.257  1.00  0.00    -0.356 OA
HETATM   26  C21 UNL     1      -0.569  -8.708  27.154  1.00  0.00     0.210 C 
ENDBRANCH  21  25
ENDBRANCH  15  17
ENDBRANCH   1  15
BRANCH   7  27
HETATM   27  C10 UNL     1       9.927  -3.749  33.036  1.00  0.00     0.023 A 
HETATM   28  C11 UNL     1       9.875  -4.159  34.382  1.00  0.00     0.046 A 
HETATM   29 CL1  UNL     1       8.623  -5.199  34.973  1.00  0.00    -0.083 Cl
HETATM   30  C12 UNL     1      10.837  -3.726  35.300  1.00  0.00     0.025 A 
HETATM   31  C13 UNL     1      11.866  -2.881  34.893  1.00  0.00     0.003 A 
HETATM   32  C14 UNL     1      11.934  -2.465  33.564  1.00  0.00     0.025 A 
HETATM   33  C15 UNL     1      10.974  -2.895  32.642  1.00  0.00     0.046 A 
HETATM   34 CL2  UNL     1      11.125  -2.323  31.014  1.00  0.00    -0.083 Cl
ENDBRANCH   7  27
TORSDOF 5
ENDMDL
MODEL 2
REMARK minimizedAffinity -9.99372768
REMARK  5 active torsions:
REMARK  status: ('A' for Active; 'I' for Inactive)
REMARK    1  A    between atoms: O1_2  and  C2_3 
REMARK    2  A    between atoms: C4_5  and  N1_6 
REMARK    3  A    between atoms: N1_6  and  C5_7 
REMARK    4  A    between atoms: C9_13  and  C10_14 
REMARK    5  A    between atoms: C20_30  and  O3_31 
ROOT
HETATM    1  C5  UNL     1       4.908  -5.018  29.155  1.00  0.00     0.684 A 
HETATM    2  N2  UNL     1       4.602  -3.945  29.896  1.00  0.00    -0.201 N 
ATOM      3  H2  UNL     1       3.704  -3.471  29.795  1.00  0.00     0.183 HD
HETATM    4  C6  UNL     1       5.522  -3.514  30.778  1.00  0.00     0.121 A 
HETATM    5  C7  UNL     1       6.746  -4.114  30.955  1.00  0.00     0.026 A 
HETATM    6  C8  UNL     1       7.734  -3.643  31.910  1.00  0.00     0.034 A 
HETATM    7  C9  UNL     1       8.907  -4.289  32.018  1.00  0.00     0.047 A 
HETATM    8  C16 UNL     1       9.203  -5.489  31.165  1.00  0.00     0.260 A 
HETATM    9  O2  UNL     1      10.287  -6.061  31.286  1.00  0.00    -0.267 OA
HETATM   10  N3  UNL     1       8.220  -5.889  30.273  1.00  0.00    -0.303 N 
HETATM   11  C17 UNL     1       8.444  -7.041  29.418  1.00  0.00     0.161 C 
HETATM   12  C18 UNL     1       6.980  -5.212  30.152  1.00  0.00     0.137 A 
HETATM   13  N4  UNL     1       6.077  -5.668  29.257  1.00  0.00    -0.175 N 
ATOM     14  H4  UNL     1       6.278  -6.482  28.676  1.00  0.00     0.186 HD
ENDROOT
BRANCH   1  15
HETATM   15  N1  UNL     1       4.027  -5.543  28.213  1.00  0.00    -0.191 N 
HETATM   16  H5  UNL     1       3.769  -4.813  27.567  1.00  0.00     0.184 HD
BRANCH  15  17
HETATM   17  C4  UNL     1       3.465  -6.809  28.002  1.00  0.00     0.054 A 
HETATM   18  C3  UNL     1       2.085  -6.972  28.218  1.00  0.00     0.066 A 
HETATM   19  C2  UNL     1       1.459  -8.206  28.026  1.00  0.00     0.073 A 
HETATM   20  C22 UNL     1       2.215  -9.305  27.613  1.00  0.00     0.073 A 
HETATM   21  C20 UNL     1       3.584  -9.172  27.391  1.00  0.00     0.073 A 
HETATM   22  C19 UNL     1       4.195  -7.929  27.588  1.00  0.00     0.066 A 
BRANCH  19  23
HETATM   23  O1  UNL     1       0.128  -8.470  28.208  1.00  0.00    -0.356 OA
HETATM   24  C1  UNL     1      -0.417  -9.574  27.497  1.00  0.00     0.210 C 
ENDBRANCH  19  23
BRANCH  21  25
HETATM   25  O3  UNL     1       4.430 -10.169  26.985  1.00  0.00    -0.356 OA
HETATM   26  C21 UNL     1       5.807  -9.836  26.864  1.00  0.00     0.210 C 
ENDBRANCH  21  25
ENDBRANCH  15  17
ENDBRANCH   1  15
BRANCH   7  27
HETATM   27  C10 UNL     1       9.916  -3.817  32.986  1.00  0.00     0.023 A 
HETATM   28  C11 UNL     1      10.960  -2.963  32.583  1.00  0.00     0.046 A 
HETATM   29 CL1  UNL     1      11.138  -2.450  30.938  1.00  0.00    -0.083 Cl
HETATM   30  C12 UNL     1      11.907  -2.505  33.505  1.00  0.00     0.025 A 
HETATM   31  C13 UNL     1      11.827  -2.887  34.842  1.00  0.00     0.003 A 
HETATM   32  C14 UNL     1      10.799  -3.731  35.259  1.00  0.00     0.025 A 
HETATM   33  C15 UNL     1       9.850  -4.192  34.340  1.00  0.00     0.046 A 
HETATM   34 CL2  UNL     1       8.613  -5.246  34.939  1.00  0.00    -0.083 Cl
ENDBRANCH   7  27
TORSDOF 5
ENDMDL
MODEL 3
REMARK minimizedAffinity -9.97625828
REMARK  5 active torsions:
REMARK  status: ('A' for Active; 'I' for Inactive)
REMARK    1  A    between atoms: O1_2  and  C2_3 
REMARK    2  A    between atoms: C4_5  and  N1_6 
REMARK    3  A    between atoms: N1_6  and  C5_7 
REMARK    4  A    between atoms: C9_13  and  C10_14 
REMARK    5  A    between atoms: C20_30  and  O3_31 
ROOT
HETATM    1  C5  UNL     1       4.940  -5.023  29.141  1.00  0.00     0.684 A 
HETATM    2  N2  UNL     1       4.615  -3.958  29.887  1.00  0.00    -0.201 N 
ATOM      3  H2  UNL     1       3.712  -3.495  29.783  1.00  0.00     0.183 HD
HETATM    4  C6  UNL     1       5.523  -3.523  30.779  1.00  0.00     0.121 A 
HETATM    5  C7  UNL     1       6.753  -4.108  30.961  1.00  0.00     0.026 A 
HETATM    6  C8  UNL     1       7.729  -3.632  31.927  1.00  0.00     0.034 A 
HETATM    7  C9  UNL     1       8.908  -4.264  32.039  1.00  0.00     0.047 A 
HETATM    8  C16 UNL     1       9.226  -5.455  31.180  1.00  0.00     0.260 A 
HETATM    9  O2  UNL     1      10.315  -6.014  31.306  1.00  0.00    -0.267 OA
HETATM   10  N3  UNL     1       8.254  -5.861  30.278  1.00  0.00    -0.303 N 
HETATM   11  C17 UNL     1       8.499  -7.004  29.418  1.00  0.00     0.161 C 
HETATM   12  C18 UNL     1       7.006  -5.199  30.152  1.00  0.00     0.137 A 
HETATM   13  N4  UNL     1       6.116  -5.659  29.248  1.00  0.00    -0.175 N 
ATOM     14  H4  UNL     1       6.331  -6.467  28.664  1.00  0.00     0.186 HD
ENDROOT
BRANCH   1  15
HETATM   15  N1  UNL     1       4.073  -5.553  28.190  1.00  0.00    -0.191 N 
HETATM   16  H5  UNL     1       3.844  -4.833  27.523  1.00  0.00     0.184 HD
BRANCH  15  17
HETATM   17  C4  UNL     1       3.493  -6.813  27.992  1.00  0.00     0.054 A 
HETATM   18  C3  UNL     1       2.108  -6.952  28.201  1.00  0.00     0.066 A 
HETATM   19  C2  UNL     1       1.466  -8.179  28.021  1.00  0.00     0.073 A 
HETATM   20  C22 UNL     1       2.207  -9.294  27.628  1.00  0.00     0.073 A 
HETATM   21  C20 UNL     1       3.579  -9.186  27.415  1.00  0.00     0.073 A 
HETATM   22  C19 UNL     1       4.208  -7.949  27.599  1.00  0.00     0.066 A 
BRANCH  19  23
HETATM   23  O1  UNL     1       0.129  -8.420  28.196  1.00  0.00    -0.356 OA
HETATM   24  C1  UNL     1      -0.414  -9.564  27.551  1.00  0.00     0.210 C 
ENDBRANCH  19  23
BRANCH  21  25
HETATM   25  O3  UNL     1       4.413 -10.201  27.029  1.00  0.00    -0.356 OA
HETATM   26  C21 UNL     1       5.735  -9.840  26.651  1.00  0.00     0.210 C 
ENDBRANCH  21  25
ENDBRANCH  15  17
ENDBRANCH   1  15
BRANCH   7  27
HETATM   27  C10 UNL     1       9.904  -3.786  33.017  1.00  0.00     0.023 A 
HETATM   28  C11 UNL     1       9.852  -4.197  34.363  1.00  0.00     0.046 A 
HETATM   29 CL1  UNL     1       8.609  -5.251  34.949  1.00  0.00    -0.083 Cl
HETATM   30  C12 UNL     1      10.806  -3.754  35.285  1.00  0.00     0.025 A 
HETATM   31  C13 UNL     1      11.828  -2.899  34.881  1.00  0.00     0.003 A 
HETATM   32  C14 UNL     1      11.896  -2.482  33.553  1.00  0.00     0.025 A 
HETATM   33  C15 UNL     1      10.943  -2.922  32.627  1.00  0.00     0.046 A 
HETATM   34 CL2  UNL     1      11.094  -2.347  31.000  1.00  0.00    -0.083 Cl
ENDBRANCH   7  27
TORSDOF 5
ENDMDL
MODEL 4
REMARK minimizedAffinity -9.50481796
REMARK  5 active torsions:
REMARK  status: ('A' for Active; 'I' for Inactive)
REMARK    1  A    between atoms: O1_2  and  C2_3 
REMARK    2  A    between atoms: C4_5  and  N1_6 
REMARK    3  A    between atoms: N1_6  and  C5_7 
REMARK    4  A    between atoms: C9_13  and  C10_14 
REMARK    5  A    between atoms: C20_30  and  O3_31 
ROOT
HETATM    1  C5  UNL     1       6.440  -6.862  28.228  1.00  0.00     0.684 A 
HETATM    2  N2  UNL     1       7.583  -7.544  28.375  1.00  0.00    -0.201 N 
ATOM      3  H2  UNL     1       7.784  -8.368  27.807  1.00  0.00     0.183 HD
HETATM    4  C6  UNL     1       8.457  -7.103  29.297  1.00  0.00     0.121 A 
HETATM    5  C7  UNL     1       8.239  -6.001  30.088  1.00  0.00     0.026 A 
HETATM    6  C8  UNL     1       9.187  -5.530  31.082  1.00  0.00     0.034 A 
HETATM    7  C9  UNL     1       8.893  -4.443  31.813  1.00  0.00     0.047 A 
HETATM    8  C16 UNL     1       7.597  -3.711  31.611  1.00  0.00     0.260 A 
HETATM    9  O2  UNL     1       7.354  -2.717  32.295  1.00  0.00    -0.267 OA
HETATM   10  N3  UNL     1       6.733  -4.208  30.647  1.00  0.00    -0.303 N 
HETATM   11  C17 UNL     1       5.464  -3.548  30.403  1.00  0.00     0.161 C 
HETATM   12  C18 UNL     1       7.036  -5.357  29.872  1.00  0.00     0.137 A 
HETATM   13  N4  UNL     1       6.139  -5.775  28.954  1.00  0.00    -0.175 N 
ATOM     14  H4  UNL     1       5.258  -5.279  28.817  1.00  0.00     0.186 HD
ENDROOT
BRANCH   1  15
HETATM   15  N1  UNL     1       5.469  -7.233  27.302  1.00  0.00    -0.191 N 
HETATM   16  H5  UNL     1       5.642  -6.744  26.437  1.00  0.00     0.184 HD
BRANCH  15  17
HETATM   17  C4  UNL     1       4.368  -8.100  27.335  1.00  0.00     0.054 A 
HETATM   18  C3  UNL     1       4.561  -9.440  26.951  1.00  0.00     0.066 A 
HETATM   19  C2  UNL     1       3.507 -10.357  26.961  1.00  0.00     0.073 A 
HETATM   20  C22 UNL     1       2.235  -9.941  27.356  1.00  0.00     0.073 A 
HETATM   21  C20 UNL     1       2.016  -8.620  27.741  1.00  0.00     0.073 A 
HETATM   22  C19 UNL     1       3.082  -7.714  27.726  1.00  0.00     0.066 A 
BRANCH  19  23
HETATM   23  O1  UNL     1       3.588 -11.678  26.608  1.00  0.00    -0.356 OA
HETATM   24  C1  UNL     1       2.472 -12.501  26.921  1.00  0.00     0.210 C 
ENDBRANCH  19  23
BRANCH  21  25
HETATM   25  O3  UNL     1       0.820  -8.092  28.148  1.00  0.00    -0.356 OA
HETATM   26  C21 UNL     1      -0.346  -8.537  27.468  1.00  0.00     0.210 C 
ENDBRANCH  21  25
ENDBRANCH  15  17
ENDBRANCH   1  15
BRANCH   7  27
HETATM   27  C10 UNL     1       9.851  -3.959  32.825  1.00  0.00     0.023 A 
HETATM   28  C11 UNL     1      10.886  -3.071  32.475  1.00  0.00     0.046 A 
HETATM   29 CL1  UNL     1      11.111  -2.526  30.847  1.00  0.00    -0.083 Cl
HETATM   30  C12 UNL     1      11.785  -2.603  33.440  1.00  0.00     0.025 A 
HETATM   31  C13 UNL     1      11.665  -3.009  34.766  1.00  0.00     0.003 A 
HETATM   32  C14 UNL     1      10.646  -3.887  35.131  1.00  0.00     0.025 A 
HETATM   33  C15 UNL     1       9.746  -4.358  34.170  1.00  0.00     0.046 A 
HETATM   34 CL2  UNL     1       8.516  -5.455  34.705  1.00  0.00    -0.083 Cl
ENDBRANCH   7  27
TORSDOF 5
ENDMDL
MODEL 5
REMARK minimizedAffinity -9.46264839
REMARK  5 active torsions:
REMARK  status: ('A' for Active; 'I' for Inactive)
REMARK    1  A    between atoms: O1_2  and  C2_3 
REMARK    2  A    between atoms: C4_5  and  N1_6 
REMARK    3  A    between atoms: N1_6  and  C5_7 
REMARK    4  A    between atoms: C9_13  and  C10_14 
REMARK    5  A    between atoms: C20_30  and  O3_31 
ROOT
HETATM    1  C5  UNL     1       6.553  -6.894  28.174  1.00  0.00     0.684 A 
HETATM    2  N2  UNL     1       7.715  -7.543  28.323  1.00  0.00    -0.201 N 
ATOM      3  H2  UNL     1       7.943  -8.356  27.751  1.00  0.00     0.183 HD
HETATM    4  C6  UNL     1       8.570  -7.084  29.254  1.00  0.00     0.121 A 
HETATM    5  C7  UNL     1       8.314  -5.994  30.051  1.00  0.00     0.026 A 
HETATM    6  C8  UNL     1       9.242  -5.504  31.056  1.00  0.00     0.034 A 
HETATM    7  C9  UNL     1       8.911  -4.431  31.792  1.00  0.00     0.047 A 
HETATM    8  C16 UNL     1       7.595  -3.736  31.588  1.00  0.00     0.260 A 
HETATM    9  O2  UNL     1       7.319  -2.755  32.278  1.00  0.00    -0.267 OA
HETATM   10  N3  UNL     1       6.752  -4.251  30.615  1.00  0.00    -0.303 N 
HETATM   11  C17 UNL     1       5.466  -3.627  30.368  1.00  0.00     0.161 C 
HETATM   12  C18 UNL     1       7.094  -5.384  29.833  1.00  0.00     0.137 A 
HETATM   13  N4  UNL     1       6.215  -5.821  28.906  1.00  0.00    -0.175 N 
ATOM     14  H4  UNL     1       5.321  -5.351  28.767  1.00  0.00     0.186 HD
ENDROOT
BRANCH   1  15
HETATM   15  N1  UNL     1       5.599  -7.287  27.239  1.00  0.00    -0.191 N 
HETATM   16  H5  UNL     1       5.793  -6.824  26.364  1.00  0.00     0.184 HD
BRANCH  15  17
HETATM   17  C4  UNL     1       4.492  -8.145  27.274  1.00  0.00     0.054 A 
HETATM   18  C3  UNL     1       4.665  -9.476  26.854  1.00  0.00     0.066 A 
HETATM   19  C2  UNL     1       3.604 -10.385  26.864  1.00  0.00     0.073 A 
HETATM   20  C22 UNL     1       2.344  -9.969  27.296  1.00  0.00     0.073 A 
HETATM   21  C20 UNL     1       2.144  -8.656  27.716  1.00  0.00     0.073 A 
HETATM   22  C19 UNL     1       3.217  -7.758  27.701  1.00  0.00     0.066 A 
BRANCH  19  23
HETATM   23  O1  UNL     1       3.666 -11.698  26.477  1.00  0.00    -0.356 OA
HETATM   24  C1  UNL     1       4.093 -11.962  25.148  1.00  0.00     0.210 C 
ENDBRANCH  19  23
BRANCH  21  25
HETATM   25  O3  UNL     1       0.962  -8.128  28.162  1.00  0.00    -0.356 OA
HETATM   26  C21 UNL     1      -0.232  -8.662  27.606  1.00  0.00     0.210 C 
ENDBRANCH  21  25
ENDBRANCH  15  17
ENDBRANCH   1  15
BRANCH   7  27
HETATM   27  C10 UNL     1       9.848  -3.927  32.814  1.00  0.00     0.023 A 
HETATM   28  C11 UNL     1       9.759  -4.357  34.152  1.00  0.00     0.046 A 
HETATM   29 CL1  UNL     1       8.535  -5.464  34.676  1.00  0.00    -0.083 Cl
HETATM   30  C12 UNL     1      10.658  -3.890  35.116  1.00  0.00     0.025 A 
HETATM   31  C13 UNL     1      11.661  -2.991  34.763  1.00  0.00     0.003 A 
HETATM   32  C14 UNL     1      11.766  -2.555  33.444  1.00  0.00     0.025 A 
HETATM   33  C15 UNL     1      10.868  -3.020  32.476  1.00  0.00     0.046 A 
HETATM   34 CL2  UNL     1      11.061  -2.420  30.862  1.00  0.00    -0.083 Cl
ENDBRANCH   7  27
TORSDOF 5
ENDMDL
MODEL 6
REMARK minimizedAffinity -9.43800354
REMARK  5 active torsions:
REMARK  status: ('A' for Active; 'I' for Inactive)
REMARK    1  A    between atoms: O1_2  and  C2_3 
REMARK    2  A    between atoms: C4_5  and  N1_6 
REMARK    3  A    between atoms: N1_6  and  C5_7 
REMARK    4  A    between atoms: C9_13  and  C10_14 
REMARK    5  A    between atoms: C20_30  and  O3_31 
ROOT
HETATM    1  C5  UNL     1       6.391  -6.845  28.230  1.00  0.00     0.684 A 
HETATM    2  N2  UNL     1       7.539  -7.520  28.373  1.00  0.00    -0.201 N 
ATOM      3  H2  UNL     1       7.743  -8.343  27.805  1.00  0.00     0.183 HD
HETATM    4  C6  UNL     1       8.414  -7.073  29.292  1.00  0.00     0.121 A 
HETATM    5  C7  UNL     1       8.191  -5.972  30.083  1.00  0.00     0.026 A 
HETATM    6  C8  UNL     1       9.140  -5.495  31.074  1.00  0.00     0.034 A 
HETATM    7  C9  UNL     1       8.842  -4.409  31.805  1.00  0.00     0.047 A 
HETATM    8  C16 UNL     1       7.541  -3.686  31.608  1.00  0.00     0.260 A 
HETATM    9  O2  UNL     1       7.294  -2.693  32.293  1.00  0.00    -0.267 OA
HETATM   10  N3  UNL     1       6.676  -4.189  30.648  1.00  0.00    -0.303 N 
HETATM   11  C17 UNL     1       5.402  -3.536  30.409  1.00  0.00     0.161 C 
HETATM   12  C18 UNL     1       6.983  -5.336  29.872  1.00  0.00     0.137 A 
HETATM   13  N4  UNL     1       6.085  -5.759  28.957  1.00  0.00    -0.175 N 
ATOM     14  H4  UNL     1       5.201  -5.269  28.823  1.00  0.00     0.186 HD
ENDROOT
BRANCH   1  15
HETATM   15  N1  UNL     1       5.418  -7.223  27.308  1.00  0.00    -0.191 N 
HETATM   16  H5  UNL     1       5.568  -6.712  26.452  1.00  0.00     0.184 HD
BRANCH  15  17
HETATM   17  C4  UNL     1       4.341  -8.118  27.336  1.00  0.00     0.054 A 
HETATM   18  C3  UNL     1       3.081  -7.636  27.736  1.00  0.00     0.066 A 
HETATM   19  C2  UNL     1       1.965  -8.473  27.786  1.00  0.00     0.073 A 
HETATM   20  C22 UNL     1       2.095  -9.818  27.436  1.00  0.00     0.073 A 
HETATM   21  C20 UNL     1       3.331 -10.323  27.038  1.00  0.00     0.073 A 
HETATM   22  C19 UNL     1       4.440  -9.470  26.992  1.00  0.00     0.066 A 
BRANCH  19  23
HETATM   23  O1  UNL     1       0.699  -8.105  28.159  1.00  0.00    -0.356 OA
HETATM   24  C1  UNL     1      -0.367  -8.955  27.759  1.00  0.00     0.210 C 
ENDBRANCH  19  23
BRANCH  21  25
HETATM   25  O3  UNL     1       3.587 -11.617  26.671  1.00  0.00    -0.356 OA
HETATM   26  C21 UNL     1       2.476 -12.501  26.608  1.00  0.00     0.210 C 
ENDBRANCH  21  25
ENDBRANCH  15  17
ENDBRANCH   1  15
BRANCH   7  27
HETATM   27  C10 UNL     1       9.801  -3.920  32.814  1.00  0.00     0.023 A 
HETATM   28  C11 UNL     1       9.723  -4.347  34.153  1.00  0.00     0.046 A 
HETATM   29 CL1  UNL     1       8.489  -5.433  34.696  1.00  0.00    -0.083 Cl
HETATM   30  C12 UNL     1      10.643  -3.893  35.104  1.00  0.00     0.025 A 
HETATM   31  C13 UNL     1      11.656  -3.010  34.737  1.00  0.00     0.003 A 
HETATM   32  C14 UNL     1      11.749  -2.578  33.415  1.00  0.00     0.025 A 
HETATM   33  C15 UNL     1      10.831  -3.029  32.460  1.00  0.00     0.046 A 
HETATM   34 CL2  UNL     1      11.011  -2.434  30.843  1.00  0.00    -0.083 Cl
ENDBRANCH   7  27
TORSDOF 5
ENDMDL
MODEL 7
REMARK minimizedAffinity -9.05487823
REMARK  5 active torsions:
REMARK  status: ('A' for Active; 'I' for Inactive)
REMARK    1  A    between atoms: O1_2  and  C2_3 
REMARK    2  A    between atoms: C4_5  and  N1_6 
REMARK    3  A    between atoms: N1_6  and  C5_7 
REMARK    4  A    between atoms: C9_13  and  C10_14 
REMARK    5  A    between atoms: C20_30  and  O3_31 
ROOT
HETATM    1  C5  UNL     1       5.756  -6.988  28.602  1.00  0.00     0.684 A 
HETATM    2  N2  UNL     1       6.873  -7.720  28.700  1.00  0.00    -0.201 N 
ATOM      3  H2  UNL     1       6.978  -8.598  28.189  1.00  0.00     0.183 HD
HETATM    4  C6  UNL     1       7.854  -7.257  29.496  1.00  0.00     0.121 A 
HETATM    5  C7  UNL     1       7.768  -6.083  30.205  1.00  0.00     0.026 A 
HETATM    6  C8  UNL     1       8.830  -5.588  31.063  1.00  0.00     0.034 A 
HETATM    7  C9  UNL     1       8.662  -4.430  31.721  1.00  0.00     0.047 A 
HETATM    8  C16 UNL     1       7.390  -3.644  31.578  1.00  0.00     0.260 A 
HETATM    9  O2  UNL     1       7.264  -2.586  32.194  1.00  0.00    -0.267 OA
HETATM   10  N3  UNL     1       6.413  -4.168  30.746  1.00  0.00    -0.303 N 
HETATM   11  C17 UNL     1       5.160  -3.458  30.565  1.00  0.00     0.161 C 
HETATM   12  C18 UNL     1       6.583  -5.391  30.047  1.00  0.00     0.137 A 
HETATM   13  N4  UNL     1       5.581  -5.830  29.256  1.00  0.00    -0.175 N 
ATOM     14  H4  UNL     1       4.716  -5.298  29.159  1.00  0.00     0.186 HD
ENDROOT
BRANCH   1  15
HETATM   15  N1  UNL     1       4.683  -7.378  27.806  1.00  0.00    -0.191 N 
HETATM   16  H5  UNL     1       4.133  -6.563  27.582  1.00  0.00     0.184 HD
BRANCH  15  17
HETATM   17  C4  UNL     1       4.244  -8.604  27.288  1.00  0.00     0.054 A 
HETATM   18  C3  UNL     1       2.890  -8.950  27.446  1.00  0.00     0.066 A 
HETATM   19  C2  UNL     1       2.386 -10.157  26.954  1.00  0.00     0.073 A 
HETATM   20  C22 UNL     1       3.240 -11.042  26.294  1.00  0.00     0.073 A 
HETATM   21  C20 UNL     1       4.586 -10.725  26.124  1.00  0.00     0.073 A 
HETATM   22  C19 UNL     1       5.074  -9.512  26.622  1.00  0.00     0.066 A 
BRANCH  19  23
HETATM   23  O1  UNL     1       1.090 -10.588  27.054  1.00  0.00    -0.356 OA
HETATM   24  C1  UNL     1       0.145  -9.676  27.598  1.00  0.00     0.210 C 
ENDBRANCH  19  23
BRANCH  21  25
HETATM   25  O3  UNL     1       5.520 -11.505  25.496  1.00  0.00    -0.356 OA
HETATM   26  C21 UNL     1       6.884 -11.158  25.691  1.00  0.00     0.210 C 
ENDBRANCH  21  25
ENDBRANCH  15  17
ENDBRANCH   1  15
BRANCH   7  27
HETATM   27  C10 UNL     1       9.737  -3.921  32.594  1.00  0.00     0.023 A 
HETATM   28  C11 UNL     1      10.724  -3.050  32.094  1.00  0.00     0.046 A 
HETATM   29 CL1  UNL     1      10.751  -2.557  30.435  1.00  0.00    -0.083 Cl
HETATM   30  C12 UNL     1      11.734  -2.558  32.928  1.00  0.00     0.025 A 
HETATM   31  C13 UNL     1      11.775  -2.922  34.271  1.00  0.00     0.003 A 
HETATM   32  C14 UNL     1      10.806  -3.783  34.784  1.00  0.00     0.025 A 
HETATM   33  C15 UNL     1       9.795  -4.279  33.954  1.00  0.00     0.046 A 
HETATM   34 CL2  UNL     1       8.637  -5.352  34.668  1.00  0.00    -0.083 Cl
ENDBRANCH   7  27
TORSDOF 5
ENDMDL
MODEL 8
REMARK minimizedAffinity -8.62231064
REMARK  5 active torsions:
REMARK  status: ('A' for Active; 'I' for Inactive)
REMARK    1  A    between atoms: O1_2  and  C2_3 
REMARK    2  A    between atoms: C4_5  and  N1_6 
REMARK    3  A    between atoms: N1_6  and  C5_7 
REMARK    4  A    between atoms: C9_13  and  C10_14 
REMARK    5  A    between atoms: C20_30  and  O3_31 
ROOT
HETATM    1  C5  UNL     1       6.097  -7.122  28.541  1.00  0.00     0.684 A 
HETATM    2  N2  UNL     1       7.254  -7.786  28.654  1.00  0.00    -0.201 N 
ATOM      3  H2  UNL     1       7.423  -8.648  28.134  1.00  0.00     0.183 HD
HETATM    4  C6  UNL     1       8.187  -7.275  29.478  1.00  0.00     0.121 A 
HETATM    5  C7  UNL     1       8.014  -6.120  30.201  1.00  0.00     0.026 A 
HETATM    6  C8  UNL     1       9.026  -5.574  31.090  1.00  0.00     0.034 A 
HETATM    7  C9  UNL     1       8.773  -4.438  31.760  1.00  0.00     0.047 A 
HETATM    8  C16 UNL     1       7.458  -3.730  31.600  1.00  0.00     0.260 A 
HETATM    9  O2  UNL     1       7.254  -2.691  32.227  1.00  0.00    -0.267 OA
HETATM   10  N3  UNL     1       6.533  -4.300  30.738  1.00  0.00    -0.303 N 
HETATM   11  C17 UNL     1       5.243  -3.665  30.539  1.00  0.00     0.161 C 
HETATM   12  C18 UNL     1       6.792  -5.500  30.027  1.00  0.00     0.137 A 
HETATM   13  N4  UNL     1       5.836  -5.987  29.208  1.00  0.00    -0.175 N 
ATOM     14  H4  UNL     1       4.943  -5.507  29.099  1.00  0.00     0.186 HD
ENDROOT
BRANCH   1  15
HETATM   15  N1  UNL     1       5.066  -7.564  27.716  1.00  0.00    -0.191 N 
HETATM   16  H5  UNL     1       4.300  -6.912  27.777  1.00  0.00     0.184 HD
BRANCH  15  17
HETATM   17  C4  UNL     1       4.897  -8.670  26.871  1.00  0.00     0.054 A 
HETATM   18  C3  UNL     1       3.590  -9.030  26.497  1.00  0.00     0.066 A 
HETATM   19  C2  UNL     1       3.349 -10.121  25.658  1.00  0.00     0.073 A 
HETATM   20  C22 UNL     1       4.423 -10.872  25.179  1.00  0.00     0.073 A 
HETATM   21  C20 UNL     1       5.728 -10.538  25.534  1.00  0.00     0.073 A 
HETATM   22  C19 UNL     1       5.952  -9.442  26.375  1.00  0.00     0.066 A 
BRANCH  19  23
HETATM   23  O1  UNL     1       2.120 -10.554  25.235  1.00  0.00    -0.356 OA
HETATM   24  C1  UNL     1       1.219 -11.019  26.230  1.00  0.00     0.210 C 
ENDBRANCH  19  23
BRANCH  21  25
HETATM   25  O3  UNL     1       6.861 -11.192  25.132  1.00  0.00    -0.356 OA
HETATM   26  C21 UNL     1       7.877 -11.381  26.107  1.00  0.00     0.210 C 
ENDBRANCH  21  25
ENDBRANCH  15  17
ENDBRANCH   1  15
BRANCH   7  27
HETATM   27  C10 UNL     1       9.796  -3.879  32.664  1.00  0.00     0.023 A 
HETATM   28  C11 UNL     1       9.825  -4.228  34.027  1.00  0.00     0.046 A 
HETATM   29 CL1  UNL     1       8.653  -5.297  34.722  1.00  0.00    -0.083 Cl
HETATM   30  C12 UNL     1      10.805  -3.707  34.879  1.00  0.00     0.025 A 
HETATM   31  C13 UNL     1      11.772  -2.835  34.387  1.00  0.00     0.003 A 
HETATM   32  C14 UNL     1      11.759  -2.479  33.039  1.00  0.00     0.025 A 
HETATM   33  C15 UNL     1      10.781  -2.996  32.183  1.00  0.00     0.046 A 
HETATM   34 CL2  UNL     1      10.830  -2.494  30.526  1.00  0.00    -0.083 Cl
ENDBRANCH   7  27
TORSDOF 5
ENDMDL
MODEL 9
REMARK minimizedAffinity -8.6067915
REMARK  5 active torsions:
REMARK  status: ('A' for Active; 'I' for Inactive)
REMARK    1  A    between atoms: O1_2  and  C2_3 
REMARK    2  A    between atoms: C4_5  and  N1_6 
REMARK    3  A    between atoms: N1_6  and  C5_7 
REMARK    4  A    between atoms: C9_13  and  C10_14 
REMARK    5  A    between atoms: C20_30  and  O3_31 
ROOT
HETATM    1  C5  UNL     1       5.634  -7.523  28.455  1.00  0.00     0.684 A 
HETATM    2  N2  UNL     1       5.032  -6.435  28.953  1.00  0.00    -0.201 N 
ATOM      3  H2  UNL     1       4.048  -6.242  28.766  1.00  0.00     0.183 HD
HETATM    4  C6  UNL     1       5.773  -5.604  29.709  1.00  0.00     0.121 A 
HETATM    5  C7  UNL     1       7.101  -5.814  29.992  1.00  0.00     0.026 A 
HETATM    6  C8  UNL     1       7.896  -4.913  30.809  1.00  0.00     0.034 A 
HETATM    7  C9  UNL     1       9.189  -5.195  31.037  1.00  0.00     0.047 A 
HETATM    8  C16 UNL     1       9.819  -6.429  30.457  1.00  0.00     0.260 A 
HETATM    9  O2  UNL     1      11.006  -6.662  30.682  1.00  0.00    -0.267 OA
HETATM   10  N3  UNL     1       9.009  -7.249  29.686  1.00  0.00    -0.303 N 
HETATM   11  C17 UNL     1       9.557  -8.457  29.096  1.00  0.00     0.161 C 
HETATM   12  C18 UNL     1       7.643  -6.959  29.440  1.00  0.00     0.137 A 
HETATM   13  N4  UNL     1       6.925  -7.811  28.678  1.00  0.00    -0.175 N 
ATOM     14  H4  UNL     1       7.352  -8.649  28.283  1.00  0.00     0.186 HD
ENDROOT
BRANCH   1  15
HETATM   15  N1  UNL     1       4.958  -8.446  27.662  1.00  0.00    -0.191 N 
HETATM   16  H5  UNL     1       5.532  -9.270  27.563  1.00  0.00     0.184 HD
BRANCH  15  17
HETATM   17  C4  UNL     1       3.715  -8.454  27.016  1.00  0.00     0.054 A 
HETATM   18  C3  UNL     1       2.557  -8.265  27.792  1.00  0.00     0.066 A 
HETATM   19  C2  UNL     1       1.286  -8.261  27.212  1.00  0.00     0.073 A 
HETATM   20  C22 UNL     1       1.156  -8.450  25.836  1.00  0.00     0.073 A 
HETATM   21  C20 UNL     1       2.285  -8.640  25.043  1.00  0.00     0.073 A 
HETATM   22  C19 UNL     1       3.551  -8.641  25.639  1.00  0.00     0.066 A 
BRANCH  19  23
HETATM   23  O1  UNL     1       0.100  -8.085  27.875  1.00  0.00    -0.356 OA
HETATM   24  C1  UNL     1      -0.841  -9.148  27.811  1.00  0.00     0.210 C 
ENDBRANCH  19  23
BRANCH  21  25
HETATM   25  O3  UNL     1       2.290  -8.834  23.688  1.00  0.00    -0.356 OA
HETATM   26  C21 UNL     1       2.867 -10.043  23.212  1.00  0.00     0.210 C 
ENDBRANCH  21  25
ENDBRANCH  15  17
ENDBRANCH   1  15
BRANCH   7  27
HETATM   27  C10 UNL     1      10.002  -4.284  31.865  1.00  0.00     0.023 A 
HETATM   28  C11 UNL     1      10.857  -3.336  31.272  1.00  0.00     0.046 A 
HETATM   29 CL1  UNL     1      11.027  -3.209  29.553  1.00  0.00    -0.083 Cl
HETATM   30  C12 UNL     1      11.615  -2.463  32.060  1.00  0.00     0.025 A 
HETATM   31  C13 UNL     1      11.532  -2.518  33.448  1.00  0.00     0.003 A 
HETATM   32  C14 UNL     1      10.690  -3.450  34.053  1.00  0.00     0.025 A 
HETATM   33  C15 UNL     1       9.930  -4.325  33.270  1.00  0.00     0.046 A 
HETATM   34 CL2  UNL     1       8.918  -5.459  34.102  1.00  0.00    -0.083 Cl
ENDBRANCH   7  27
TORSDOF 5
ENDMDL
