MODEL 1
REMARK minimizedAffinity -10.0634918
REMARK  4 active torsions:
REMARK  status: ('A' for Active; 'I' for Inactive)
REMARK    1  A    between atoms: C2_2  and  C3_3 
REMARK       I    between atoms: C3_3  and  N1_5 
REMARK    2  A    between atoms: C13_17  and  C14_18 
REMARK    3  A    between atoms: C17_23  and  C18_24 
REMARK    4  A    between atoms: C22_28  and  O3_29 
ROOT
HETATM    1  C3  UNL     1       1.279   7.680   8.965  1.00  0.00     0.242 C 
HETATM    2  O1  UNL     1       1.252   8.806   8.470  1.00  0.00    -0.268 OA
HETATM    3  N1  UNL     1       0.617   7.360  10.152  1.00  0.00    -0.349 N 
HETATM    4  C4  UNL     1       0.158   8.494  10.957  1.00  0.00     0.127 C 
HETATM    5  C5  UNL     1      -1.074   8.177  11.798  1.00  0.00     0.037 C 
HETATM    6  C6  UNL     1      -0.929   6.875  12.610  1.00  0.00     0.022 C 
HETATM    7  C7  UNL     1      -0.537   5.741  11.646  1.00  0.00     0.037 C 
HETATM    8  C8  UNL     1       0.713   6.067  10.831  1.00  0.00     0.127 C 
HETATM    9  C9  UNL     1       0.149   7.019  13.742  1.00  0.00     0.139 C 
HETATM   10  N2  UNL     1      -0.297   7.793  14.895  1.00  0.00    -0.356 N 
HETATM   11  C10 UNL     1      -1.530   7.586  15.486  1.00  0.00     0.253 C 
HETATM   12  O2  UNL     1      -1.761   7.961  16.628  1.00  0.00    -0.268 OA
HETATM   13  C11 UNL     1      -2.500   6.913  14.636  1.00  0.00     0.057 A 
HETATM   14  C12 UNL     1      -3.820   6.482  14.902  1.00  0.00     0.051 A 
HETATM   15  C13 UNL     1      -4.347   5.921  13.745  1.00  0.00     0.060 A 
HETATM   16  N5  UNL     1      -3.355   6.001  12.787  1.00  0.00    -0.356 N 
HETATM   17  C25 UNL     1      -2.235   6.583  13.319  1.00  0.00     0.036 A 
HETATM   18  H14 UNL     1       0.390   8.146  15.550  1.00  0.00     0.162 HD
HETATM   19  H25 UNL     1      -3.441   5.663  11.839  1.00  0.00     0.166 HD
ENDROOT
BRANCH  15  20
HETATM   20  C14 UNL     1      -5.667   5.332  13.514  1.00  0.00     0.062 A 
HETATM   21  C15 UNL     1      -5.851   4.069  12.998  1.00  0.00     0.049 A 
HETATM   22  C16 UNL     1      -7.158   3.669  12.852  1.00  0.00     0.092 A 
HETATM   23  N3  UNL     1      -8.211   4.435  13.183  1.00  0.00    -0.352 N 
HETATM   24  C17 UNL     1      -7.937   5.662  13.671  1.00  0.00     0.116 A 
ATOM     25  H3  UNL     1      -9.170   4.106  13.071  1.00  0.00     0.166 HD
HETATM   26  N4  UNL     1      -6.691   6.139  13.850  1.00  0.00    -0.340 N 
ATOM     27  H4  UNL     1      -6.529   7.075  14.224  1.00  0.00     0.167 HD
BRANCH  24  28
HETATM   28  C18 UNL     1      -9.071   6.538  14.030  1.00  0.00     0.011 A 
HETATM   29  C19 UNL     1      -9.061   7.300  15.216  1.00  0.00     0.015 A 
HETATM   30  C20 UNL     1     -10.129   8.133  15.555  1.00  0.00     0.004 A 
HETATM   31  C21 UNL     1     -11.235   8.217  14.714  1.00  0.00     0.037 A 
HETATM   32  C22 UNL     1     -11.283   7.476  13.533  1.00  0.00     0.069 A 
HETATM   33  C24 UNL     1     -10.207   6.647  13.199  1.00  0.00     0.052 A 
BRANCH  32  34
HETATM   34  O3  UNL     1     -12.424   7.648  12.798  1.00  0.00    -0.356 OA
HETATM   35  C23 UNL     1     -13.622   7.092  13.330  1.00  0.00     0.210 C 
ENDBRANCH  32  34
ENDBRANCH  24  28
ENDBRANCH  15  20
BRANCH   1  36
HETATM   36  C2  UNL     1       2.049   6.600   8.286  1.00  0.00     0.064 C 
HETATM   37  C1  UNL     1       2.127   6.568   6.949  1.00  0.00     0.017 C 
ENDBRANCH   1  36
TORSDOF 4
ENDMDL
MODEL 2
REMARK minimizedAffinity -9.94663334
REMARK  4 active torsions:
REMARK  status: ('A' for Active; 'I' for Inactive)
REMARK    1  A    between atoms: C2_2  and  C3_3 
REMARK       I    between atoms: C3_3  and  N1_5 
REMARK    2  A    between atoms: C13_17  and  C14_18 
REMARK    3  A    between atoms: C17_23  and  C18_24 
REMARK    4  A    between atoms: C22_28  and  O3_29 
ROOT
HETATM    1  C3  UNL     1     -10.207   7.507  14.270  1.00  0.00     0.242 C 
HETATM    2  O1  UNL     1     -10.805   8.027  13.329  1.00  0.00    -0.268 OA
HETATM    3  N1  UNL     1      -9.127   6.640  14.093  1.00  0.00    -0.349 N 
HETATM    4  C4  UNL     1      -8.940   6.117  12.738  1.00  0.00     0.127 C 
HETATM    5  C5  UNL     1      -7.487   5.783  12.416  1.00  0.00     0.037 C 
HETATM    6  C6  UNL     1      -6.814   4.917  13.500  1.00  0.00     0.022 C 
HETATM    7  C7  UNL     1      -6.996   5.613  14.860  1.00  0.00     0.037 C 
HETATM    8  C8  UNL     1      -8.460   5.916  15.176  1.00  0.00     0.127 C 
HETATM    9  C9  UNL     1      -7.427   3.472  13.545  1.00  0.00     0.139 C 
HETATM   10  N2  UNL     1      -6.990   2.606  12.455  1.00  0.00    -0.356 N 
HETATM   11  C10 UNL     1      -5.662   2.509  12.082  1.00  0.00     0.253 C 
HETATM   12  O2  UNL     1      -5.250   1.554  11.436  1.00  0.00    -0.268 OA
HETATM   13  C11 UNL     1      -4.835   3.628  12.504  1.00  0.00     0.057 A 
HETATM   14  C12 UNL     1      -3.446   3.855  12.364  1.00  0.00     0.051 A 
HETATM   15  C13 UNL     1      -3.141   5.098  12.904  1.00  0.00     0.060 A 
HETATM   16  N5  UNL     1      -4.330   5.619  13.378  1.00  0.00    -0.356 N 
HETATM   17  C25 UNL     1      -5.352   4.734  13.154  1.00  0.00     0.036 A 
HETATM   18  H14 UNL     1      -7.509   1.758  12.259  1.00  0.00     0.162 HD
HETATM   19  H25 UNL     1      -4.425   6.514  13.835  1.00  0.00     0.166 HD
ENDROOT
BRANCH  15  20
HETATM   20  C14 UNL     1      -1.849   5.778  13.004  1.00  0.00     0.062 A 
HETATM   21  C15 UNL     1      -1.295   6.176  14.201  1.00  0.00     0.049 A 
HETATM   22  C16 UNL     1      -0.071   6.795  14.113  1.00  0.00     0.092 A 
HETATM   23  N3  UNL     1       0.572   7.012  12.953  1.00  0.00    -0.352 N 
HETATM   24  C17 UNL     1      -0.050   6.598  11.831  1.00  0.00     0.116 A 
ATOM     25  H3  UNL     1       1.485   7.468  12.922  1.00  0.00     0.166 HD
HETATM   26  N4  UNL     1      -1.248   5.983  11.817  1.00  0.00    -0.340 N 
ATOM     27  H4  UNL     1      -1.682   5.685  10.943  1.00  0.00     0.167 HD
BRANCH  24  28
HETATM   28  C18 UNL     1       0.620   6.835  10.535  1.00  0.00     0.011 A 
HETATM   29  C19 UNL     1       0.215   7.880   9.681  1.00  0.00     0.015 A 
HETATM   30  C20 UNL     1       0.849   8.109   8.459  1.00  0.00     0.004 A 
HETATM   31  C21 UNL     1       1.904   7.292   8.064  1.00  0.00     0.037 A 
HETATM   32  C22 UNL     1       2.332   6.245   8.880  1.00  0.00     0.069 A 
HETATM   33  C24 UNL     1       1.693   6.025  10.105  1.00  0.00     0.052 A 
BRANCH  32  34
HETATM   34  O3  UNL     1       3.375   5.518   8.376  1.00  0.00    -0.356 OA
HETATM   35  C23 UNL     1       3.789   4.381   9.125  1.00  0.00     0.210 C 
ENDBRANCH  32  34
ENDBRANCH  24  28
ENDBRANCH  15  20
BRANCH   1  36
HETATM   36  C2  UNL     1     -10.641   7.800  15.665  1.00  0.00     0.064 C 
HETATM   37  C1  UNL     1     -10.252   8.932  16.267  1.00  0.00     0.017 C 
ENDBRANCH   1  36
TORSDOF 4
ENDMDL
MODEL 3
REMARK minimizedAffinity -9.61343956
REMARK  4 active torsions:
REMARK  status: ('A' for Active; 'I' for Inactive)
REMARK    1  A    between atoms: C2_2  and  C3_3 
REMARK       I    between atoms: C3_3  and  N1_5 
REMARK    2  A    between atoms: C13_17  and  C14_18 
REMARK    3  A    between atoms: C17_23  and  C18_24 
REMARK    4  A    between atoms: C22_28  and  O3_29 
ROOT
HETATM    1  C3  UNL     1       0.214   9.535  15.949  1.00  0.00     0.242 C 
HETATM    2  O1  UNL     1       0.773   9.161  16.979  1.00  0.00    -0.268 OA
HETATM    3  N1  UNL     1      -0.302   8.646  15.004  1.00  0.00    -0.349 N 
HETATM    4  C4  UNL     1       0.133   7.253  15.128  1.00  0.00     0.127 C 
HETATM    5  C5  UNL     1      -0.890   6.252  14.602  1.00  0.00     0.037 C 
HETATM    6  C6  UNL     1      -1.406   6.604  13.192  1.00  0.00     0.022 C 
HETATM    7  C7  UNL     1      -1.921   8.055  13.211  1.00  0.00     0.037 C 
HETATM    8  C8  UNL     1      -0.873   9.045  13.717  1.00  0.00     0.127 C 
HETATM    9  C9  UNL     1      -0.280   6.444  12.110  1.00  0.00     0.139 C 
HETATM   10  N2  UNL     1       0.011   5.059  11.755  1.00  0.00    -0.356 N 
HETATM   11  C10 UNL     1      -0.990   4.144  11.487  1.00  0.00     0.253 C 
HETATM   12  O2  UNL     1      -0.765   3.116  10.861  1.00  0.00    -0.268 OA
HETATM   13  C11 UNL     1      -2.295   4.504  12.022  1.00  0.00     0.057 A 
HETATM   14  C12 UNL     1      -3.550   3.863  11.906  1.00  0.00     0.051 A 
HETATM   15  C13 UNL     1      -4.487   4.586  12.633  1.00  0.00     0.060 A 
HETATM   16  N5  UNL     1      -3.812   5.662  13.177  1.00  0.00    -0.356 N 
HETATM   17  C25 UNL     1      -2.495   5.627  12.803  1.00  0.00     0.036 A 
HETATM   18  H14 UNL     1       0.871   4.844  11.264  1.00  0.00     0.162 HD
HETATM   19  H25 UNL     1      -4.236   6.375  13.754  1.00  0.00     0.166 HD
ENDROOT
BRANCH  15  20
HETATM   20  C14 UNL     1      -5.917   4.335  12.818  1.00  0.00     0.062 A 
HETATM   21  C15 UNL     1      -6.509   3.116  12.569  1.00  0.00     0.049 A 
HETATM   22  C16 UNL     1      -7.862   3.053  12.802  1.00  0.00     0.092 A 
HETATM   23  N3  UNL     1      -8.591   4.092  13.245  1.00  0.00    -0.352 N 
HETATM   24  C17 UNL     1      -7.929   5.248  13.452  1.00  0.00     0.116 A 
ATOM     25  H3  UNL     1      -9.593   4.010  13.416  1.00  0.00     0.166 HD
HETATM   26  N4  UNL     1      -6.608   5.406  13.252  1.00  0.00    -0.340 N 
ATOM     27  H4  UNL     1      -6.148   6.301  13.423  1.00  0.00     0.167 HD
BRANCH  24  28
HETATM   28  C18 UNL     1      -8.702   6.416  13.924  1.00  0.00     0.011 A 
HETATM   29  C19 UNL     1      -8.157   7.329  14.849  1.00  0.00     0.015 A 
HETATM   30  C20 UNL     1      -8.882   8.436  15.293  1.00  0.00     0.004 A 
HETATM   31  C21 UNL     1     -10.174   8.652  14.821  1.00  0.00     0.037 A 
HETATM   32  C22 UNL     1     -10.748   7.768  13.907  1.00  0.00     0.069 A 
HETATM   33  C24 UNL     1     -10.014   6.664  13.465  1.00  0.00     0.052 A 
BRANCH  32  34
HETATM   34  O3  UNL     1     -12.021   8.093  13.524  1.00  0.00    -0.356 OA
HETATM   35  C23 UNL     1     -12.171   9.234  12.687  1.00  0.00     0.210 C 
ENDBRANCH  32  34
ENDBRANCH  24  28
ENDBRANCH  15  20
BRANCH   1  36
HETATM   36  C2  UNL     1       0.078  10.993  15.677  1.00  0.00     0.064 C 
HETATM   37  C1  UNL     1       1.011  11.850  16.116  1.00  0.00     0.017 C 
ENDBRANCH   1  36
TORSDOF 4
ENDMDL
MODEL 4
REMARK minimizedAffinity -9.53225994
REMARK  4 active torsions:
REMARK  status: ('A' for Active; 'I' for Inactive)
REMARK    1  A    between atoms: C2_2  and  C3_3 
REMARK       I    between atoms: C3_3  and  N1_5 
REMARK    2  A    between atoms: C13_17  and  C14_18 
REMARK    3  A    between atoms: C17_23  and  C18_24 
REMARK    4  A    between atoms: C22_28  and  O3_29 
ROOT
HETATM    1  C3  UNL     1       2.340   7.759   8.385  1.00  0.00     0.242 C 
HETATM    2  O1  UNL     1       2.630   8.878   7.964  1.00  0.00    -0.268 OA
HETATM    3  N1  UNL     1       1.963   7.523   9.708  1.00  0.00    -0.349 N 
HETATM    4  C4  UNL     1       2.239   8.605  10.657  1.00  0.00     0.127 C 
HETATM    5  C5  UNL     1       1.269   8.638  11.833  1.00  0.00     0.037 C 
HETATM    6  C6  UNL     1       1.100   7.263  12.511  1.00  0.00     0.022 C 
HETATM    7  C7  UNL     1       0.720   6.232  11.432  1.00  0.00     0.037 C 
HETATM    8  C8  UNL     1       1.717   6.197  10.276  1.00  0.00     0.127 C 
HETATM    9  C9  UNL     1       2.412   6.817  13.247  1.00  0.00     0.139 C 
HETATM   10  N2  UNL     1       2.652   7.510  14.509  1.00  0.00    -0.356 N 
HETATM   11  C10 UNL     1       1.656   7.682  15.452  1.00  0.00     0.253 C 
HETATM   12  O2  UNL     1       1.921   7.932  16.621  1.00  0.00    -0.268 OA
HETATM   13  C11 UNL     1       0.304   7.559  14.930  1.00  0.00     0.057 A 
HETATM   14  C12 UNL     1      -0.948   7.611  15.585  1.00  0.00     0.051 A 
HETATM   15  C13 UNL     1      -1.954   7.474  14.636  1.00  0.00     0.060 A 
HETATM   16  N5  UNL     1      -1.320   7.331  13.416  1.00  0.00    -0.356 N 
HETATM   17  C25 UNL     1       0.039   7.367  13.586  1.00  0.00     0.036 A 
HETATM   18  H14 UNL     1       3.575   7.476  14.925  1.00  0.00     0.162 HD
HETATM   19  H25 UNL     1      -1.794   7.204  12.533  1.00  0.00     0.166 HD
ENDROOT
BRANCH  15  20
HETATM   20  C14 UNL     1      -3.406   7.459  14.814  1.00  0.00     0.062 A 
HETATM   21  C15 UNL     1      -4.095   8.439  15.493  1.00  0.00     0.049 A 
HETATM   22  C16 UNL     1      -5.457   8.271  15.561  1.00  0.00     0.092 A 
HETATM   23  N3  UNL     1      -6.108   7.232  15.009  1.00  0.00    -0.352 N 
HETATM   24  C17 UNL     1      -5.351   6.316  14.372  1.00  0.00     0.116 A 
ATOM     25  H3  UNL     1      -7.122   7.141  15.069  1.00  0.00     0.166 HD
HETATM   26  N4  UNL     1      -4.013   6.395  14.254  1.00  0.00    -0.340 N 
ATOM     27  H4  UNL     1      -3.479   5.678  13.761  1.00  0.00     0.167 HD
BRANCH  24  28
HETATM   28  C18 UNL     1      -6.031   5.151  13.767  1.00  0.00     0.011 A 
HETATM   29  C19 UNL     1      -7.366   4.834  14.089  1.00  0.00     0.015 A 
HETATM   30  C20 UNL     1      -8.012   3.737  13.516  1.00  0.00     0.004 A 
HETATM   31  C21 UNL     1      -7.332   2.931  12.607  1.00  0.00     0.037 A 
HETATM   32  C22 UNL     1      -6.009   3.212  12.266  1.00  0.00     0.069 A 
HETATM   33  C24 UNL     1      -5.370   4.314  12.843  1.00  0.00     0.052 A 
BRANCH  32  34
HETATM   34  O3  UNL     1      -5.456   2.343  11.365  1.00  0.00    -0.356 OA
HETATM   35  C23 UNL     1      -6.144   1.115  11.149  1.00  0.00     0.210 C 
ENDBRANCH  32  34
ENDBRANCH  24  28
ENDBRANCH  15  20
BRANCH   1  36
HETATM   36  C2  UNL     1       2.392   6.593   7.459  1.00  0.00     0.064 C 
HETATM   37  C1  UNL     1       1.929   6.706   6.207  1.00  0.00     0.017 C 
ENDBRANCH   1  36
TORSDOF 4
ENDMDL
MODEL 5
REMARK minimizedAffinity -9.45602798
REMARK  4 active torsions:
REMARK  status: ('A' for Active; 'I' for Inactive)
REMARK    1  A    between atoms: C2_2  and  C3_3 
REMARK       I    between atoms: C3_3  and  N1_5 
REMARK    2  A    between atoms: C13_17  and  C14_18 
REMARK    3  A    between atoms: C17_23  and  C18_24 
REMARK    4  A    between atoms: C22_28  and  O3_29 
ROOT
HETATM    1  C3  UNL     1      -9.095  -9.566  20.015  1.00  0.00     0.242 C 
HETATM    2  O1  UNL     1      -8.198  -8.723  19.992  1.00  0.00    -0.268 OA
HETATM    3  N1  UNL     1      -9.233 -10.495  21.047  1.00  0.00    -0.349 N 
HETATM    4  C4  UNL     1      -8.080 -10.640  21.939  1.00  0.00     0.127 C 
HETATM    5  C5  UNL     1      -8.460 -11.075  23.351  1.00  0.00     0.037 C 
HETATM    6  C6  UNL     1      -9.400 -12.297  23.369  1.00  0.00     0.022 C 
HETATM    7  C7  UNL     1     -10.614 -11.991  22.475  1.00  0.00     0.037 C 
HETATM    8  C8  UNL     1     -10.214 -11.581  21.059  1.00  0.00     0.127 C 
HETATM    9  C9  UNL     1      -8.671 -13.593  22.866  1.00  0.00     0.139 C 
HETATM   10  N2  UNL     1      -7.750 -14.174  23.838  1.00  0.00    -0.356 N 
HETATM   11  C10 UNL     1      -8.099 -14.353  25.164  1.00  0.00     0.253 C 
HETATM   12  O2  UNL     1      -7.494 -15.138  25.883  1.00  0.00    -0.268 OA
HETATM   13  C11 UNL     1      -9.211 -13.527  25.611  1.00  0.00     0.057 A 
HETATM   14  C12 UNL     1      -9.879 -13.472  26.856  1.00  0.00     0.051 A 
HETATM   15  C13 UNL     1     -10.857 -12.487  26.793  1.00  0.00     0.060 A 
HETATM   16  N5  UNL     1     -10.792 -11.955  25.520  1.00  0.00    -0.356 N 
HETATM   17  C25 UNL     1      -9.813 -12.584  24.797  1.00  0.00     0.036 A 
HETATM   18  H14 UNL     1      -7.062 -14.849  23.526  1.00  0.00     0.162 HD
HETATM   19  H25 UNL     1     -11.390 -11.219  25.173  1.00  0.00     0.166 HD
ENDROOT
BRANCH  15  20
HETATM   20  C14 UNL     1     -11.810 -12.056  27.816  1.00  0.00     0.062 A 
HETATM   21  C15 UNL     1     -12.511 -12.933  28.615  1.00  0.00     0.049 A 
HETATM   22  C16 UNL     1     -13.360 -12.357  29.529  1.00  0.00     0.092 A 
HETATM   23  N3  UNL     1     -13.520 -11.029  29.663  1.00  0.00    -0.352 N 
HETATM   24  C17 UNL     1     -12.801 -10.247  28.833  1.00  0.00     0.116 A 
ATOM     25  H3  UNL     1     -14.152 -10.632  30.358  1.00  0.00     0.166 HD
HETATM   26  N4  UNL     1     -11.945 -10.719  27.907  1.00  0.00    -0.340 N 
ATOM     27  H4  UNL     1     -11.420 -10.090  27.299  1.00  0.00     0.167 HD
BRANCH  24  28
HETATM   28  C18 UNL     1     -12.963  -8.782  28.941  1.00  0.00     0.011 A 
HETATM   29  C19 UNL     1     -13.738  -8.061  28.011  1.00  0.00     0.015 A 
HETATM   30  C20 UNL     1     -13.897  -6.677  28.113  1.00  0.00     0.004 A 
HETATM   31  C21 UNL     1     -13.279  -5.985  29.151  1.00  0.00     0.037 A 
HETATM   32  C22 UNL     1     -12.502  -6.665  30.089  1.00  0.00     0.069 A 
HETATM   33  C24 UNL     1     -12.351  -8.051  29.981  1.00  0.00     0.052 A 
BRANCH  32  34
HETATM   34  O3  UNL     1     -11.950  -5.868  31.056  1.00  0.00    -0.356 OA
HETATM   35  C23 UNL     1     -12.645  -4.667  31.374  1.00  0.00     0.210 C 
ENDBRANCH  32  34
ENDBRANCH  24  28
ENDBRANCH  15  20
BRANCH   1  36
HETATM   36  C2  UNL     1     -10.081  -9.615  18.899  1.00  0.00     0.064 C 
HETATM   37  C1  UNL     1     -10.084  -8.659  17.960  1.00  0.00     0.017 C 
ENDBRANCH   1  36
TORSDOF 4
ENDMDL
MODEL 6
REMARK minimizedAffinity -9.2921896
REMARK  4 active torsions:
REMARK  status: ('A' for Active; 'I' for Inactive)
REMARK    1  A    between atoms: C2_2  and  C3_3 
REMARK       I    between atoms: C3_3  and  N1_5 
REMARK    2  A    between atoms: C13_17  and  C14_18 
REMARK    3  A    between atoms: C17_23  and  C18_24 
REMARK    4  A    between atoms: C22_28  and  O3_29 
ROOT
HETATM    1  C3  UNL     1      -9.745   7.711  14.819  1.00  0.00     0.242 C 
HETATM    2  O1  UNL     1     -10.428   8.303  13.985  1.00  0.00    -0.268 OA
HETATM    3  N1  UNL     1      -8.832   6.711  14.476  1.00  0.00    -0.349 N 
HETATM    4  C4  UNL     1      -8.954   6.168  13.121  1.00  0.00     0.127 C 
HETATM    5  C5  UNL     1      -7.635   5.650  12.559  1.00  0.00     0.037 C 
HETATM    6  C6  UNL     1      -6.898   4.704  13.529  1.00  0.00     0.022 C 
HETATM    7  C7  UNL     1      -6.748   5.418  14.884  1.00  0.00     0.037 C 
HETATM    8  C8  UNL     1      -8.082   5.908  15.442  1.00  0.00     0.127 C 
HETATM    9  C9  UNL     1      -7.671   3.351  13.713  1.00  0.00     0.139 C 
HETATM   10  N2  UNL     1      -7.547   2.435  12.584  1.00  0.00    -0.356 N 
HETATM   11  C10 UNL     1      -6.329   2.167  11.987  1.00  0.00     0.253 C 
HETATM   12  O2  UNL     1      -6.161   1.167  11.302  1.00  0.00    -0.268 OA
HETATM   13  C11 UNL     1      -5.304   3.170  12.233  1.00  0.00     0.057 A 
HETATM   14  C12 UNL     1      -3.944   3.216  11.847  1.00  0.00     0.051 A 
HETATM   15  C13 UNL     1      -3.394   4.409  12.298  1.00  0.00     0.060 A 
HETATM   16  N5  UNL     1      -4.405   5.079  12.960  1.00  0.00    -0.356 N 
HETATM   17  C25 UNL     1      -5.554   4.334  12.937  1.00  0.00     0.036 A 
HETATM   18  H14 UNL     1      -8.195   1.661  12.501  1.00  0.00     0.162 HD
HETATM   19  H25 UNL     1      -4.303   5.979  13.406  1.00  0.00     0.166 HD
ENDROOT
BRANCH  15  20
HETATM   20  C14 UNL     1      -2.028   4.916  12.156  1.00  0.00     0.062 A 
HETATM   21  C15 UNL     1      -1.216   4.613  11.086  1.00  0.00     0.049 A 
HETATM   22  C16 UNL     1       0.035   5.180  11.108  1.00  0.00     0.092 A 
HETATM   23  N3  UNL     1       0.470   5.984  12.093  1.00  0.00    -0.352 N 
HETATM   24  C17 UNL     1      -0.388   6.219  13.105  1.00  0.00     0.116 A 
ATOM     25  H3  UNL     1       1.403   6.397  12.076  1.00  0.00     0.166 HD
HETATM   26  N4  UNL     1      -1.632   5.708  13.170  1.00  0.00    -0.340 N 
ATOM     27  H4  UNL     1      -2.250   5.914  13.956  1.00  0.00     0.167 HD
BRANCH  24  28
HETATM   28  C18 UNL     1       0.062   7.086  14.214  1.00  0.00     0.011 A 
HETATM   29  C19 UNL     1       1.426   7.189  14.555  1.00  0.00     0.015 A 
HETATM   30  C20 UNL     1       1.855   8.012  15.598  1.00  0.00     0.004 A 
HETATM   31  C21 UNL     1       0.924   8.748  16.326  1.00  0.00     0.037 A 
HETATM   32  C22 UNL     1      -0.434   8.669  16.020  1.00  0.00     0.069 A 
HETATM   33  C24 UNL     1      -0.855   7.845  14.972  1.00  0.00     0.052 A 
BRANCH  32  34
HETATM   34  O3  UNL     1      -1.242   9.440  16.811  1.00  0.00    -0.356 OA
HETATM   35  C23 UNL     1      -0.639  10.560  17.449  1.00  0.00     0.210 C 
ENDBRANCH  32  34
ENDBRANCH  24  28
ENDBRANCH  15  20
BRANCH   1  36
HETATM   36  C2  UNL     1      -9.886   8.058  16.261  1.00  0.00     0.064 C 
HETATM   37  C1  UNL     1     -10.465   9.211  16.623  1.00  0.00     0.017 C 
ENDBRANCH   1  36
TORSDOF 4
ENDMDL
MODEL 7
REMARK minimizedAffinity -9.21883011
REMARK  4 active torsions:
REMARK  status: ('A' for Active; 'I' for Inactive)
REMARK    1  A    between atoms: C2_2  and  C3_3 
REMARK       I    between atoms: C3_3  and  N1_5 
REMARK    2  A    between atoms: C13_17  and  C14_18 
REMARK    3  A    between atoms: C17_23  and  C18_24 
REMARK    4  A    between atoms: C22_28  and  O3_29 
ROOT
HETATM    1  C3  UNL     1      -0.854   7.776  14.874  1.00  0.00     0.242 C 
HETATM    2  O1  UNL     1      -0.297   7.314  15.869  1.00  0.00    -0.268 OA
HETATM    3  N1  UNL     1      -2.064   7.278  14.386  1.00  0.00    -0.349 N 
HETATM    4  C4  UNL     1      -2.481   5.976  14.911  1.00  0.00     0.127 C 
HETATM    5  C5  UNL     1      -3.995   5.790  14.929  1.00  0.00     0.037 C 
HETATM    6  C6  UNL     1      -4.660   6.144  13.584  1.00  0.00     0.022 C 
HETATM    7  C7  UNL     1      -4.222   7.564  13.184  1.00  0.00     0.037 C 
HETATM    8  C8  UNL     1      -2.703   7.723  13.147  1.00  0.00     0.127 C 
HETATM    9  C9  UNL     1      -4.268   5.120  12.460  1.00  0.00     0.139 C 
HETATM   10  N2  UNL     1      -4.951   3.834  12.561  1.00  0.00    -0.356 N 
HETATM   11  C10 UNL     1      -6.312   3.742  12.785  1.00  0.00     0.253 C 
HETATM   12  O2  UNL     1      -6.934   2.720  12.523  1.00  0.00    -0.268 OA
HETATM   13  C11 UNL     1      -6.910   4.936  13.362  1.00  0.00     0.057 A 
HETATM   14  C12 UNL     1      -8.257   5.238  13.672  1.00  0.00     0.051 A 
HETATM   15  C13 UNL     1      -8.309   6.503  14.244  1.00  0.00     0.060 A 
HETATM   16  N5  UNL     1      -7.010   6.971  14.272  1.00  0.00    -0.356 N 
HETATM   17  C25 UNL     1      -6.163   6.040  13.731  1.00  0.00     0.036 A 
HETATM   18  H14 UNL     1      -4.590   3.041  12.046  1.00  0.00     0.162 HD
HETATM   19  H25 UNL     1      -6.731   7.875  14.628  1.00  0.00     0.166 HD
ENDROOT
BRANCH  15  20
HETATM   20  C14 UNL     1      -9.466   7.259  14.726  1.00  0.00     0.062 A 
HETATM   21  C15 UNL     1      -9.363   8.339  15.574  1.00  0.00     0.049 A 
HETATM   22  C16 UNL     1     -10.550   8.938  15.922  1.00  0.00     0.092 A 
HETATM   23  N3  UNL     1     -11.750   8.524  15.481  1.00  0.00    -0.352 N 
HETATM   24  C17 UNL     1     -11.756   7.453  14.662  1.00  0.00     0.116 A 
ATOM     25  H3  UNL     1     -12.613   8.996  15.752  1.00  0.00     0.166 HD
HETATM   26  N4  UNL     1     -10.646   6.802  14.266  1.00  0.00    -0.340 N 
ATOM     27  H4  UNL     1     -10.697   5.995  13.643  1.00  0.00     0.167 HD
BRANCH  24  28
HETATM   28  C18 UNL     1     -13.059   6.960  14.170  1.00  0.00     0.011 A 
HETATM   29  C19 UNL     1     -13.755   5.934  14.841  1.00  0.00     0.015 A 
HETATM   30  C20 UNL     1     -14.989   5.470  14.381  1.00  0.00     0.004 A 
HETATM   31  C21 UNL     1     -15.552   6.023  13.235  1.00  0.00     0.037 A 
HETATM   32  C22 UNL     1     -14.892   7.037  12.541  1.00  0.00     0.069 A 
HETATM   33  C24 UNL     1     -13.658   7.499  13.011  1.00  0.00     0.052 A 
BRANCH  32  34
HETATM   34  O3  UNL     1     -15.551   7.492  11.432  1.00  0.00    -0.356 OA
HETATM   35  C23 UNL     1     -16.169   8.771  11.529  1.00  0.00     0.210 C 
ENDBRANCH  32  34
ENDBRANCH  24  28
ENDBRANCH  15  20
BRANCH   1  36
HETATM   36  C2  UNL     1      -0.225   8.911  14.143  1.00  0.00     0.064 C 
HETATM   37  C1  UNL     1       0.998   8.774  13.612  1.00  0.00     0.017 C 
ENDBRANCH   1  36
TORSDOF 4
ENDMDL
MODEL 8
REMARK minimizedAffinity -9.15453911
REMARK  4 active torsions:
REMARK  status: ('A' for Active; 'I' for Inactive)
REMARK    1  A    between atoms: C2_2  and  C3_3 
REMARK       I    between atoms: C3_3  and  N1_5 
REMARK    2  A    between atoms: C13_17  and  C14_18 
REMARK    3  A    between atoms: C17_23  and  C18_24 
REMARK    4  A    between atoms: C22_28  and  O3_29 
ROOT
HETATM    1  C3  UNL     1       2.948   5.397   7.181  1.00  0.00     0.242 C 
HETATM    2  O1  UNL     1       2.619   5.998   6.160  1.00  0.00    -0.268 OA
HETATM    3  N1  UNL     1       2.793   5.937   8.460  1.00  0.00    -0.349 N 
HETATM    4  C4  UNL     1       2.525   7.375   8.520  1.00  0.00     0.127 C 
HETATM    5  C5  UNL     1       1.717   7.787   9.747  1.00  0.00     0.037 C 
HETATM    6  C6  UNL     1       2.289   7.219  11.061  1.00  0.00     0.022 C 
HETATM    7  C7  UNL     1       2.438   5.695  10.909  1.00  0.00     0.037 C 
HETATM    8  C8  UNL     1       3.271   5.304   9.690  1.00  0.00     0.127 C 
HETATM    9  C9  UNL     1       3.676   7.866  11.413  1.00  0.00     0.139 C 
HETATM   10  N2  UNL     1       3.584   9.225  11.935  1.00  0.00    -0.356 N 
HETATM   11  C10 UNL     1       2.674   9.574  12.917  1.00  0.00     0.253 C 
HETATM   12  O2  UNL     1       2.823  10.582  13.595  1.00  0.00    -0.268 OA
HETATM   13  C11 UNL     1       1.549   8.662  13.047  1.00  0.00     0.057 A 
HETATM   14  C12 UNL     1       0.467   8.653  13.958  1.00  0.00     0.051 A 
HETATM   15  C13 UNL     1      -0.369   7.588  13.645  1.00  0.00     0.060 A 
HETATM   16  N5  UNL     1       0.202   6.950  12.561  1.00  0.00    -0.356 N 
HETATM   17  C25 UNL     1       1.364   7.581  12.203  1.00  0.00     0.036 A 
HETATM   18  H14 UNL     1       4.414   9.805  11.956  1.00  0.00     0.162 HD
HETATM   19  H25 UNL     1      -0.178   6.130  12.111  1.00  0.00     0.166 HD
ENDROOT
BRANCH  15  20
HETATM   20  C14 UNL     1      -1.608   7.157  14.294  1.00  0.00     0.062 A 
HETATM   21  C15 UNL     1      -2.001   7.593  15.540  1.00  0.00     0.049 A 
HETATM   22  C16 UNL     1      -3.197   7.092  15.996  1.00  0.00     0.092 A 
HETATM   23  N3  UNL     1      -3.959   6.233  15.298  1.00  0.00    -0.352 N 
HETATM   24  C17 UNL     1      -3.491   5.853  14.092  1.00  0.00     0.116 A 
ATOM     25  H3  UNL     1      -4.847   5.886  15.661  1.00  0.00     0.166 HD
HETATM   26  N4  UNL     1      -2.333   6.289  13.562  1.00  0.00    -0.340 N 
ATOM     27  H4  UNL     1      -2.017   5.975  12.644  1.00  0.00     0.167 HD
BRANCH  24  28
HETATM   28  C18 UNL     1      -4.295   4.896  13.303  1.00  0.00     0.011 A 
HETATM   29  C19 UNL     1      -3.683   3.921  12.490  1.00  0.00     0.015 A 
HETATM   30  C20 UNL     1      -4.440   3.013  11.747  1.00  0.00     0.004 A 
HETATM   31  C21 UNL     1      -5.830   3.065  11.801  1.00  0.00     0.037 A 
HETATM   32  C22 UNL     1      -6.472   4.018  12.592  1.00  0.00     0.069 A 
HETATM   33  C24 UNL     1      -5.706   4.921  13.335  1.00  0.00     0.052 A 
BRANCH  32  34
HETATM   34  O3  UNL     1      -7.839   3.962  12.555  1.00  0.00    -0.356 OA
HETATM   35  C23 UNL     1      -8.537   5.194  12.700  1.00  0.00     0.210 C 
ENDBRANCH  32  34
ENDBRANCH  24  28
ENDBRANCH  15  20
BRANCH   1  36
HETATM   36  C2  UNL     1       3.543   4.036   7.070  1.00  0.00     0.064 C 
HETATM   37  C1  UNL     1       3.580   3.412   5.884  1.00  0.00     0.017 C 
ENDBRANCH   1  36
TORSDOF 4
ENDMDL
MODEL 9
REMARK minimizedAffinity -9.13621998
REMARK  4 active torsions:
REMARK  status: ('A' for Active; 'I' for Inactive)
REMARK    1  A    between atoms: C2_2  and  C3_3 
REMARK       I    between atoms: C3_3  and  N1_5 
REMARK    2  A    between atoms: C13_17  and  C14_18 
REMARK    3  A    between atoms: C17_23  and  C18_24 
REMARK    4  A    between atoms: C22_28  and  O3_29 
ROOT
HETATM    1  C3  UNL     1       1.709   9.740  16.790  1.00  0.00     0.242 C 
HETATM    2  O1  UNL     1       2.306   9.242  17.744  1.00  0.00    -0.268 OA
HETATM    3  N1  UNL     1       1.416   9.027  15.626  1.00  0.00    -0.349 N 
HETATM    4  C4  UNL     1       2.130   7.759  15.452  1.00  0.00     0.127 C 
HETATM    5  C5  UNL     1       1.353   6.737  14.629  1.00  0.00     0.037 C 
HETATM    6  C6  UNL     1       0.813   7.317  13.306  1.00  0.00     0.022 C 
HETATM    7  C7  UNL     1       0.006   8.587  13.626  1.00  0.00     0.037 C 
HETATM    8  C8  UNL     1       0.809   9.609  14.429  1.00  0.00     0.127 C 
HETATM    9  C9  UNL     1       1.976   7.652  12.306  1.00  0.00     0.139 C 
HETATM   10  N2  UNL     1       2.560   6.482  11.659  1.00  0.00    -0.356 N 
HETATM   11  C10 UNL     1       1.780   5.482  11.108  1.00  0.00     0.253 C 
HETATM   12  O2  UNL     1       2.233   4.705  10.277  1.00  0.00    -0.268 OA
HETATM   13  C11 UNL     1       0.416   5.436  11.611  1.00  0.00     0.057 A 
HETATM   14  C12 UNL     1      -0.673   4.609  11.251  1.00  0.00     0.051 A 
HETATM   15  C13 UNL     1      -1.761   4.933  12.053  1.00  0.00     0.060 A 
HETATM   16  N5  UNL     1      -1.341   5.952  12.885  1.00  0.00    -0.356 N 
HETATM   17  C25 UNL     1      -0.036   6.271  12.616  1.00  0.00     0.036 A 
HETATM   18  H14 UNL     1       3.459   6.568  11.199  1.00  0.00     0.162 HD
HETATM   19  H25 UNL     1      -1.919   6.404  13.579  1.00  0.00     0.166 HD
ENDROOT
BRANCH  15  20
HETATM   20  C14 UNL     1      -3.111   4.367  12.063  1.00  0.00     0.062 A 
HETATM   21  C15 UNL     1      -3.443   3.192  11.427  1.00  0.00     0.049 A 
HETATM   22  C16 UNL     1      -4.756   2.802  11.543  1.00  0.00     0.092 A 
HETATM   23  N3  UNL     1      -5.681   3.497  12.227  1.00  0.00    -0.352 N 
HETATM   24  C17 UNL     1      -5.268   4.640  12.810  1.00  0.00     0.116 A 
ATOM     25  H3  UNL     1      -6.646   3.176  12.302  1.00  0.00     0.166 HD
HETATM   26  N4  UNL     1      -4.005   5.102  12.751  1.00  0.00    -0.340 N 
ATOM     27  H4  UNL     1      -3.736   5.974  13.209  1.00  0.00     0.167 HD
BRANCH  24  28
HETATM   28  C18 UNL     1      -6.262   5.439  13.557  1.00  0.00     0.011 A 
HETATM   29  C19 UNL     1      -5.904   6.152  14.719  1.00  0.00     0.015 A 
HETATM   30  C20 UNL     1      -6.840   6.911  15.424  1.00  0.00     0.004 A 
HETATM   31  C21 UNL     1      -8.158   6.970  14.981  1.00  0.00     0.037 A 
HETATM   32  C22 UNL     1      -8.551   6.275  13.837  1.00  0.00     0.069 A 
HETATM   33  C24 UNL     1      -7.606   5.520  13.135  1.00  0.00     0.052 A 
BRANCH  32  34
HETATM   34  O3  UNL     1      -9.872   6.415  13.511  1.00  0.00    -0.356 OA
HETATM   35  C23 UNL     1     -10.613   7.396  14.230  1.00  0.00     0.210 C 
ENDBRANCH  32  34
ENDBRANCH  24  28
ENDBRANCH  15  20
BRANCH   1  36
HETATM   36  C2  UNL     1       1.278  11.164  16.859  1.00  0.00     0.064 C 
HETATM   37  C1  UNL     1       0.153  11.496  17.508  1.00  0.00     0.017 C 
ENDBRANCH   1  36
TORSDOF 4
ENDMDL
