MODEL 1
REMARK minimizedAffinity -8.37004375
REMARK  8 active torsions:
REMARK  status: ('A' for Active; 'I' for Inactive)
REMARK    1  A    between atoms: O1_2  and  C2_3 
REMARK    2  A    between atoms: C5_6  and  N1_7 
REMARK    3  A    between atoms: N1_7  and  C6_8 
REMARK    4  A    between atoms: C15_23  and  O2_24 
REMARK    5  A    between atoms: O2_24  and  C16_25 
REMARK    6  A    between atoms: C16_25  and  C17_26 
REMARK    7  A    between atoms: C17_26  and  C18_27 
REMARK    8  A    between atoms: C18_27  and  N4_28 
ROOT
HETATM    1  C2  UNL     1       6.302  -6.788  29.291  1.00  0.00     0.102 A 
HETATM    2  C3  UNL     1       7.190  -6.086  30.106  1.00  0.00     0.057 A 
HETATM    3  C4  UNL     1       6.846  -4.812  30.617  1.00  0.00     0.038 A 
HETATM    4  C5  UNL     1       7.669  -4.018  31.443  1.00  0.00     0.119 A 
HETATM    5  N2  UNL     1       7.291  -2.797  31.860  1.00  0.00    -0.338 N 
ATOM      6  H2  UNL     1       7.899  -2.218  32.440  1.00  0.00     0.168 HD
HETATM    7  C12 UNL     1       6.081  -2.378  31.481  1.00  0.00     0.182 A 
HETATM    8  N3  UNL     1       5.213  -3.056  30.722  1.00  0.00    -0.351 N 
ATOM      9  H3  UNL     1       4.299  -2.671  30.482  1.00  0.00     0.166 HD
HETATM   10  C13 UNL     1       5.599  -4.260  30.294  1.00  0.00     0.050 A 
HETATM   11  C14 UNL     1       4.721  -4.988  29.499  1.00  0.00     0.070 A 
HETATM   12  C15 UNL     1       5.044  -6.252  28.998  1.00  0.00     0.104 A 
ENDROOT
BRANCH   4  13
HETATM   13  N1  UNL     1       8.932  -4.527  31.845  1.00  0.00    -0.339 N 
HETATM   14  H5  UNL     1       8.857  -5.529  32.011  1.00  0.00     0.167 HD
BRANCH  13  15
HETATM   15  C6  UNL     1       9.860  -3.953  32.745  1.00  0.00     0.072 A 
HETATM   16  C7  UNL     1      10.863  -3.065  32.344  1.00  0.00     0.034 A 
HETATM   17  C8  UNL     1      11.798  -2.578  33.265  1.00  0.00     0.026 A 
HETATM   18  C9  UNL     1      11.750  -2.995  34.594  1.00  0.00     0.037 A 
HETATM   19 CL1  UNL     1      12.903  -2.396  35.720  1.00  0.00    -0.084 Cl
HETATM   20  C10 UNL     1      10.782  -3.900  35.013  1.00  0.00     0.068 A 
HETATM   21  C11 UNL     1       9.859  -4.374  34.085  1.00  0.00     0.144 A 
HETATM   22  F1  UNL     1       8.933  -5.259  34.490  1.00  0.00    -0.204 F 
ENDBRANCH  13  15
ENDBRANCH   4  13
BRANCH   1  23
HETATM   23  O1  UNL     1       6.605  -8.042  28.823  1.00  0.00    -0.353 OA
HETATM   24  C1  UNL     1       7.971  -8.396  29.034  1.00  0.00     0.210 C 
ENDBRANCH   1  23
BRANCH  12  25
HETATM   25  O2  UNL     1       4.232  -7.028  28.214  1.00  0.00    -0.348 OA
BRANCH  25  26
HETATM   26  C16 UNL     1       2.817  -6.857  28.273  1.00  0.00     0.177 C 
BRANCH  26  27
HETATM   27  C17 UNL     1       2.095  -8.110  27.779  1.00  0.00     0.057 C 
BRANCH  27  28
HETATM   28  C18 UNL     1       3.093  -9.130  27.220  1.00  0.00     0.274 C 
BRANCH  28  29
HETATM   29  N4  UNL     1       3.474  -8.967  25.816  1.00  0.00     0.092 N 
HETATM   30  C19 UNL     1       2.350  -8.631  24.927  1.00  0.00     0.298 C 
HETATM   31  C20 UNL     1       2.740  -8.808  23.451  1.00  0.00     0.198 C 
HETATM   32  O3  UNL     1       3.066 -10.164  23.116  1.00  0.00    -0.388 OA
HETATM   33  C21 UNL     1       3.563 -10.919  24.231  1.00  0.00     0.198 C 
HETATM   34  C22 UNL     1       4.301 -10.057  25.267  1.00  0.00     0.298 C 
ENDBRANCH  28  29
ENDBRANCH  27  28
ENDBRANCH  26  27
ENDBRANCH  25  26
ENDBRANCH  12  25
TORSDOF 8
ENDMDL
MODEL 2
REMARK minimizedAffinity -8.19918251
REMARK  8 active torsions:
REMARK  status: ('A' for Active; 'I' for Inactive)
REMARK    1  A    between atoms: O1_2  and  C2_3 
REMARK    2  A    between atoms: C5_6  and  N1_7 
REMARK    3  A    between atoms: N1_7  and  C6_8 
REMARK    4  A    between atoms: C15_23  and  O2_24 
REMARK    5  A    between atoms: O2_24  and  C16_25 
REMARK    6  A    between atoms: C16_25  and  C17_26 
REMARK    7  A    between atoms: C17_26  and  C18_27 
REMARK    8  A    between atoms: C18_27  and  N4_28 
ROOT
HETATM    1  C2  UNL     1       6.142  -6.746  29.217  1.00  0.00     0.102 A 
HETATM    2  C3  UNL     1       7.095  -6.077  29.985  1.00  0.00     0.057 A 
HETATM    3  C4  UNL     1       6.807  -4.809  30.545  1.00  0.00     0.038 A 
HETATM    4  C5  UNL     1       7.697  -4.048  31.330  1.00  0.00     0.119 A 
HETATM    5  N2  UNL     1       7.369  -2.831  31.799  1.00  0.00    -0.338 N 
ATOM      6  H2  UNL     1       8.024  -2.275  32.347  1.00  0.00     0.168 HD
HETATM    7  C12 UNL     1       6.143  -2.386  31.512  1.00  0.00     0.182 A 
HETATM    8  N3  UNL     1       5.214  -3.033  30.800  1.00  0.00    -0.351 N 
ATOM      9  H3  UNL     1       4.293  -2.629  30.631  1.00  0.00     0.166 HD
HETATM   10  C13 UNL     1       5.551  -4.232  30.320  1.00  0.00     0.050 A 
HETATM   11  C14 UNL     1       4.608  -4.929  29.572  1.00  0.00     0.070 A 
HETATM   12  C15 UNL     1       4.876  -6.186  29.022  1.00  0.00     0.104 A 
ENDROOT
BRANCH   4  13
HETATM   13  N1  UNL     1       8.977  -4.584  31.633  1.00  0.00    -0.339 N 
HETATM   14  H5  UNL     1       8.927  -5.602  31.628  1.00  0.00     0.167 HD
BRANCH  13  15
HETATM   15  C6  UNL     1       9.899  -4.147  32.611  1.00  0.00     0.072 A 
HETATM   16  C7  UNL     1       9.785  -4.472  33.967  1.00  0.00     0.034 A 
HETATM   17  C8  UNL     1      10.687  -3.957  34.905  1.00  0.00     0.026 A 
HETATM   18  C9  UNL     1      11.702  -3.093  34.496  1.00  0.00     0.037 A 
HETATM   19 CL1  UNL     1      12.806  -2.462  35.653  1.00  0.00    -0.084 Cl
HETATM   20  C10 UNL     1      11.820  -2.731  33.159  1.00  0.00     0.068 A 
HETATM   21  C11 UNL     1      10.915  -3.251  32.240  1.00  0.00     0.144 A 
HETATM   22  F1  UNL     1      11.024  -2.888  30.951  1.00  0.00    -0.204 F 
ENDBRANCH  13  15
ENDBRANCH   4  13
BRANCH   1  23
HETATM   23  O1  UNL     1       6.392  -7.994  28.702  1.00  0.00    -0.353 OA
HETATM   24  C1  UNL     1       7.326  -7.970  27.624  1.00  0.00     0.210 C 
ENDBRANCH   1  23
BRANCH  12  25
HETATM   25  O2  UNL     1       3.999  -6.931  28.280  1.00  0.00    -0.348 OA
BRANCH  25  26
HETATM   26  C16 UNL     1       2.597  -6.701  28.398  1.00  0.00     0.177 C 
BRANCH  26  27
HETATM   27  C17 UNL     1       1.809  -7.666  27.511  1.00  0.00     0.057 C 
BRANCH  27  28
HETATM   28  C18 UNL     1       2.704  -8.809  27.020  1.00  0.00     0.274 C 
BRANCH  28  29
HETATM   29  N4  UNL     1       3.149  -8.737  25.626  1.00  0.00     0.092 N 
HETATM   30  C19 UNL     1       2.048  -8.677  24.651  1.00  0.00     0.298 C 
HETATM   31  C20 UNL     1       2.556  -8.944  23.226  1.00  0.00     0.198 C 
HETATM   32  O3  UNL     1       3.104 -10.260  23.064  1.00  0.00    -0.388 OA
HETATM   33  C21 UNL     1       3.634 -10.807  24.281  1.00  0.00     0.198 C 
HETATM   34  C22 UNL     1       4.164  -9.735  25.247  1.00  0.00     0.298 C 
ENDBRANCH  28  29
ENDBRANCH  27  28
ENDBRANCH  26  27
ENDBRANCH  25  26
ENDBRANCH  12  25
TORSDOF 8
ENDMDL
MODEL 3
REMARK minimizedAffinity -8.07490253
REMARK  8 active torsions:
REMARK  status: ('A' for Active; 'I' for Inactive)
REMARK    1  A    between atoms: O1_2  and  C2_3 
REMARK    2  A    between atoms: C5_6  and  N1_7 
REMARK    3  A    between atoms: N1_7  and  C6_8 
REMARK    4  A    between atoms: C15_23  and  O2_24 
REMARK    5  A    between atoms: O2_24  and  C16_25 
REMARK    6  A    between atoms: C16_25  and  C17_26 
REMARK    7  A    between atoms: C17_26  and  C18_27 
REMARK    8  A    between atoms: C18_27  and  N4_28 
ROOT
HETATM    1  C2  UNL     1      10.535  -6.401  29.815  1.00  0.00     0.102 A 
HETATM    2  C3  UNL     1       9.706  -5.439  30.392  1.00  0.00     0.057 A 
HETATM    3  C4  UNL     1       8.298  -5.581  30.347  1.00  0.00     0.038 A 
HETATM    4  C5  UNL     1       7.372  -4.668  30.893  1.00  0.00     0.119 A 
HETATM    5  N2  UNL     1       6.045  -4.849  30.779  1.00  0.00    -0.338 N 
ATOM      6  H2  UNL     1       5.379  -4.174  31.157  1.00  0.00     0.168 HD
HETATM    7  C12 UNL     1       5.639  -5.953  30.147  1.00  0.00     0.182 A 
HETATM    8  N3  UNL     1       6.427  -6.892  29.614  1.00  0.00    -0.351 N 
ATOM      9  H3  UNL     1       6.040  -7.717  29.154  1.00  0.00     0.166 HD
HETATM   10  C13 UNL     1       7.744  -6.701  29.713  1.00  0.00     0.050 A 
HETATM   11  C14 UNL     1       8.591  -7.658  29.166  1.00  0.00     0.070 A 
HETATM   12  C15 UNL     1       9.983  -7.536  29.213  1.00  0.00     0.104 A 
ENDROOT
BRANCH   4  13
HETATM   13  N1  UNL     1       7.859  -3.528  31.585  1.00  0.00    -0.339 N 
HETATM   14  H5  UNL     1       7.848  -2.723  30.960  1.00  0.00     0.167 HD
BRANCH  13  15
HETATM   15  C6  UNL     1       8.960  -3.443  32.467  1.00  0.00     0.072 A 
HETATM   16  C7  UNL     1       9.078  -4.229  33.619  1.00  0.00     0.034 A 
HETATM   17  C8  UNL     1      10.156  -4.058  34.495  1.00  0.00     0.026 A 
HETATM   18  C9  UNL     1      11.118  -3.082  34.236  1.00  0.00     0.037 A 
HETATM   19 CL1  UNL     1      12.438  -2.876  35.317  1.00  0.00    -0.084 Cl
HETATM   20  C10 UNL     1      11.009  -2.268  33.115  1.00  0.00     0.068 A 
HETATM   21  C11 UNL     1       9.931  -2.450  32.254  1.00  0.00     0.144 A 
HETATM   22  F1  UNL     1       9.823  -1.654  31.178  1.00  0.00    -0.204 F 
ENDBRANCH  13  15
ENDBRANCH   4  13
BRANCH   1  23
HETATM   23  O1  UNL     1      11.902  -6.297  29.887  1.00  0.00    -0.353 OA
HETATM   24  C1  UNL     1      12.341  -5.565  31.029  1.00  0.00     0.210 C 
ENDBRANCH   1  23
BRANCH  12  25
HETATM   25  O2  UNL     1      10.877  -8.437  28.701  1.00  0.00    -0.348 OA
BRANCH  25  26
HETATM   26  C16 UNL     1      11.741  -9.156  29.578  1.00  0.00     0.177 C 
BRANCH  26  27
HETATM   27  C17 UNL     1      11.847 -10.622  29.159  1.00  0.00     0.057 C 
BRANCH  27  28
HETATM   28  C18 UNL     1      11.732 -11.547  30.375  1.00  0.00     0.274 C 
BRANCH  28  29
HETATM   29  N4  UNL     1      12.978 -11.860  31.077  1.00  0.00     0.092 N 
HETATM   30  C19 UNL     1      13.076 -11.259  32.417  1.00  0.00     0.298 C 
HETATM   31  C20 UNL     1      14.513 -11.335  32.954  1.00  0.00     0.198 C 
HETATM   32  O3  UNL     1      15.448 -10.590  32.160  1.00  0.00    -0.388 OA
HETATM   33  C21 UNL     1      15.050 -10.464  30.787  1.00  0.00     0.198 C 
HETATM   34  C22 UNL     1      14.205 -11.646  30.289  1.00  0.00     0.298 C 
ENDBRANCH  28  29
ENDBRANCH  27  28
ENDBRANCH  26  27
ENDBRANCH  25  26
ENDBRANCH  12  25
TORSDOF 8
ENDMDL
MODEL 4
REMARK minimizedAffinity -7.98752356
REMARK  8 active torsions:
REMARK  status: ('A' for Active; 'I' for Inactive)
REMARK    1  A    between atoms: O1_2  and  C2_3 
REMARK    2  A    between atoms: C5_6  and  N1_7 
REMARK    3  A    between atoms: N1_7  and  C6_8 
REMARK    4  A    between atoms: C15_23  and  O2_24 
REMARK    5  A    between atoms: O2_24  and  C16_25 
REMARK    6  A    between atoms: C16_25  and  C17_26 
REMARK    7  A    between atoms: C17_26  and  C18_27 
REMARK    8  A    between atoms: C18_27  and  N4_28 
ROOT
HETATM    1  C2  UNL     1       6.376  -6.817  29.219  1.00  0.00     0.102 A 
HETATM    2  C3  UNL     1       7.249  -6.111  30.047  1.00  0.00     0.057 A 
HETATM    3  C4  UNL     1       6.879  -4.851  30.576  1.00  0.00     0.038 A 
HETATM    4  C5  UNL     1       7.684  -4.055  31.415  1.00  0.00     0.119 A 
HETATM    5  N2  UNL     1       7.281  -2.848  31.850  1.00  0.00    -0.338 N 
ATOM      6  H2  UNL     1       7.877  -2.266  32.440  1.00  0.00     0.168 HD
HETATM    7  C12 UNL     1       6.064  -2.447  31.475  1.00  0.00     0.182 A 
HETATM    8  N3  UNL     1       5.211  -3.130  30.705  1.00  0.00    -0.351 N 
ATOM      9  H3  UNL     1       4.290  -2.760  30.469  1.00  0.00     0.166 HD
HETATM   10  C13 UNL     1       5.622  -4.320  30.259  1.00  0.00     0.050 A 
HETATM   11  C14 UNL     1       4.759  -5.053  29.452  1.00  0.00     0.070 A 
HETATM   12  C15 UNL     1       5.108  -6.303  28.932  1.00  0.00     0.104 A 
ENDROOT
BRANCH   4  13
HETATM   13  N1  UNL     1       8.957  -4.544  31.811  1.00  0.00    -0.339 N 
HETATM   14  H5  UNL     1       8.899  -5.549  31.969  1.00  0.00     0.167 HD
BRANCH  13  15
HETATM   15  C6  UNL     1       9.875  -3.962  32.716  1.00  0.00     0.072 A 
HETATM   16  C7  UNL     1      10.902  -3.102  32.313  1.00  0.00     0.034 A 
HETATM   17  C8  UNL     1      11.826  -2.606  33.240  1.00  0.00     0.026 A 
HETATM   18  C9  UNL     1      11.742  -2.985  34.580  1.00  0.00     0.037 A 
HETATM   19 CL1  UNL     1      12.881  -2.375  35.714  1.00  0.00    -0.084 Cl
HETATM   20  C10 UNL     1      10.749  -3.862  35.001  1.00  0.00     0.068 A 
HETATM   21  C11 UNL     1       9.838  -4.345  34.067  1.00  0.00     0.144 A 
HETATM   22  F1  UNL     1       8.888  -5.202  34.475  1.00  0.00    -0.204 F 
ENDBRANCH  13  15
ENDBRANCH   4  13
BRANCH   1  23
HETATM   23  O1  UNL     1       6.705  -8.058  28.732  1.00  0.00    -0.353 OA
HETATM   24  C1  UNL     1       7.587  -7.997  27.614  1.00  0.00     0.210 C 
ENDBRANCH   1  23
BRANCH  12  25
HETATM   25  O2  UNL     1       4.313  -7.082  28.135  1.00  0.00    -0.348 OA
BRANCH  25  26
HETATM   26  C16 UNL     1       2.899  -6.895  28.146  1.00  0.00     0.177 C 
BRANCH  26  27
HETATM   27  C17 UNL     1       2.175  -8.189  27.774  1.00  0.00     0.057 C 
BRANCH  27  28
HETATM   28  C18 UNL     1       1.219  -7.960  26.598  1.00  0.00     0.274 C 
BRANCH  28  29
HETATM   29  N4  UNL     1      -0.153  -8.444  26.767  1.00  0.00     0.092 N 
HETATM   30  C19 UNL     1      -0.350  -9.267  27.972  1.00  0.00     0.298 C 
HETATM   31  C20 UNL     1      -1.692 -10.014  27.917  1.00  0.00     0.198 C 
HETATM   32  O3  UNL     1      -1.770 -10.948  26.831  1.00  0.00    -0.388 OA
HETATM   33  C21 UNL     1      -0.942 -10.589  25.715  1.00  0.00     0.198 C 
HETATM   34  C22 UNL     1      -0.741  -9.072  25.571  1.00  0.00     0.298 C 
ENDBRANCH  28  29
ENDBRANCH  27  28
ENDBRANCH  26  27
ENDBRANCH  25  26
ENDBRANCH  12  25
TORSDOF 8
ENDMDL
MODEL 5
REMARK minimizedAffinity -7.85707283
REMARK  8 active torsions:
REMARK  status: ('A' for Active; 'I' for Inactive)
REMARK    1  A    between atoms: O1_2  and  C2_3 
REMARK    2  A    between atoms: C5_6  and  N1_7 
REMARK    3  A    between atoms: N1_7  and  C6_8 
REMARK    4  A    between atoms: C15_23  and  O2_24 
REMARK    5  A    between atoms: O2_24  and  C16_25 
REMARK    6  A    between atoms: C16_25  and  C17_26 
REMARK    7  A    between atoms: C17_26  and  C18_27 
REMARK    8  A    between atoms: C18_27  and  N4_28 
ROOT
HETATM    1  C2  UNL     1       6.109  -7.703  28.634  1.00  0.00     0.102 A 
HETATM    2  C3  UNL     1       6.873  -6.954  29.530  1.00  0.00     0.057 A 
HETATM    3  C4  UNL     1       6.418  -5.694  29.987  1.00  0.00     0.038 A 
HETATM    4  C5  UNL     1       7.111  -4.858  30.885  1.00  0.00     0.119 A 
HETATM    5  N2  UNL     1       6.635  -3.653  31.246  1.00  0.00    -0.338 N 
ATOM      6  H2  UNL     1       7.151  -3.042  31.879  1.00  0.00     0.168 HD
HETATM    7  C12 UNL     1       5.453  -3.294  30.736  1.00  0.00     0.182 A 
HETATM    8  N3  UNL     1       4.703  -4.017  29.899  1.00  0.00    -0.351 N 
ATOM      9  H3  UNL     1       3.803  -3.678  29.559  1.00  0.00     0.166 HD
HETATM   10  C13 UNL     1       5.188  -5.204  29.527  1.00  0.00     0.050 A 
HETATM   11  C14 UNL     1       4.433  -5.979  28.654  1.00  0.00     0.070 A 
HETATM   12  C15 UNL     1       4.866  -7.230  28.204  1.00  0.00     0.104 A 
ENDROOT
BRANCH   4  13
HETATM   13  N1  UNL     1       8.347  -5.303  31.423  1.00  0.00    -0.339 N 
HETATM   14  H5  UNL     1       8.247  -6.261  31.754  1.00  0.00     0.167 HD
BRANCH  13  15
HETATM   15  C6  UNL     1       9.246  -4.594  32.253  1.00  0.00     0.072 A 
HETATM   16  C7  UNL     1      10.258  -3.768  31.752  1.00  0.00     0.034 A 
HETATM   17  C8  UNL     1      11.164  -3.141  32.616  1.00  0.00     0.026 A 
HETATM   18  C9  UNL     1      11.077  -3.354  33.991  1.00  0.00     0.037 A 
HETATM   19 CL1  UNL     1      12.195  -2.584  35.047  1.00  0.00    -0.084 Cl
HETATM   20  C10 UNL     1      10.100  -4.193  34.513  1.00  0.00     0.068 A 
HETATM   21  C11 UNL     1       9.207  -4.808  33.641  1.00  0.00     0.144 A 
HETATM   22  F1  UNL     1       8.272  -5.629  34.148  1.00  0.00    -0.204 F 
ENDBRANCH  13  15
ENDBRANCH   4  13
BRANCH   1  23
HETATM   23  O1  UNL     1       6.518  -8.944  28.215  1.00  0.00    -0.353 OA
HETATM   24  C1  UNL     1       7.567  -9.481  29.018  1.00  0.00     0.210 C 
ENDBRANCH   1  23
BRANCH  12  25
HETATM   25  O2  UNL     1       4.177  -8.048  27.349  1.00  0.00    -0.348 OA
BRANCH  25  26
HETATM   26  C16 UNL     1       2.878  -8.516  27.707  1.00  0.00     0.177 C 
BRANCH  26  27
HETATM   27  C17 UNL     1       2.423  -9.632  26.767  1.00  0.00     0.057 C 
BRANCH  27  28
HETATM   28  C18 UNL     1       3.107  -9.509  25.401  1.00  0.00     0.274 C 
BRANCH  28  29
HETATM   29  N4  UNL     1       2.262  -9.731  24.226  1.00  0.00     0.092 N 
HETATM   30  C19 UNL     1       2.628  -8.905  23.064  1.00  0.00     0.298 C 
HETATM   31  C20 UNL     1       1.521  -8.928  21.998  1.00  0.00     0.198 C 
HETATM   32  O3  UNL     1       0.285  -8.365  22.462  1.00  0.00    -0.388 OA
HETATM   33  C21 UNL     1       0.112  -8.472  23.882  1.00  0.00     0.198 C 
HETATM   34  C22 UNL     1       0.813  -9.697  24.489  1.00  0.00     0.298 C 
ENDBRANCH  28  29
ENDBRANCH  27  28
ENDBRANCH  26  27
ENDBRANCH  25  26
ENDBRANCH  12  25
TORSDOF 8
ENDMDL
MODEL 6
REMARK minimizedAffinity -7.64435339
REMARK  8 active torsions:
REMARK  status: ('A' for Active; 'I' for Inactive)
REMARK    1  A    between atoms: O1_2  and  C2_3 
REMARK    2  A    between atoms: C5_6  and  N1_7 
REMARK    3  A    between atoms: N1_7  and  C6_8 
REMARK    4  A    between atoms: C15_23  and  O2_24 
REMARK    5  A    between atoms: O2_24  and  C16_25 
REMARK    6  A    between atoms: C16_25  and  C17_26 
REMARK    7  A    between atoms: C17_26  and  C18_27 
REMARK    8  A    between atoms: C18_27  and  N4_28 
ROOT
HETATM    1  C2  UNL     1       5.961  -7.767  28.340  1.00  0.00     0.102 A 
HETATM    2  C3  UNL     1       6.788  -7.044  29.201  1.00  0.00     0.057 A 
HETATM    3  C4  UNL     1       6.352  -5.817  29.756  1.00  0.00     0.038 A 
HETATM    4  C5  UNL     1       7.107  -5.008  30.630  1.00  0.00     0.119 A 
HETATM    5  N2  UNL     1       6.642  -3.833  31.090  1.00  0.00    -0.338 N 
ATOM      6  H2  UNL     1       7.201  -3.241  31.705  1.00  0.00     0.168 HD
HETATM    7  C12 UNL     1       5.415  -3.477  30.703  1.00  0.00     0.182 A 
HETATM    8  N3  UNL     1       4.607  -4.176  29.899  1.00  0.00    -0.351 N 
ATOM      9  H3  UNL     1       3.674  -3.841  29.656  1.00  0.00     0.166 HD
HETATM   10  C13 UNL     1       5.078  -5.333  29.430  1.00  0.00     0.050 A 
HETATM   11  C14 UNL     1       4.263  -6.083  28.588  1.00  0.00     0.070 A 
HETATM   12  C15 UNL     1       4.677  -7.301  28.042  1.00  0.00     0.104 A 
ENDROOT
BRANCH   4  13
HETATM   13  N1  UNL     1       8.393  -5.451  31.037  1.00  0.00    -0.339 N 
HETATM   14  H5  UNL     1       8.375  -6.460  31.177  1.00  0.00     0.167 HD
BRANCH  13  15
HETATM   15  C6  UNL     1       9.273  -4.847  31.964  1.00  0.00     0.072 A 
HETATM   16  C7  UNL     1       9.225  -5.100  33.339  1.00  0.00     0.034 A 
HETATM   17  C8  UNL     1      10.075  -4.425  34.222  1.00  0.00     0.026 A 
HETATM   18  C9  UNL     1      10.970  -3.472  33.737  1.00  0.00     0.037 A 
HETATM   19 CL1  UNL     1      12.010  -2.643  34.827  1.00  0.00    -0.084 Cl
HETATM   20  C10 UNL     1      11.018  -3.179  32.379  1.00  0.00     0.068 A 
HETATM   21  C11 UNL     1      10.166  -3.860  31.515  1.00  0.00     0.144 A 
HETATM   22  F1  UNL     1      10.206  -3.566  30.205  1.00  0.00    -0.204 F 
ENDBRANCH  13  15
ENDBRANCH   4  13
BRANCH   1  23
HETATM   23  O1  UNL     1       6.354  -8.978  27.827  1.00  0.00    -0.353 OA
HETATM   24  C1  UNL     1       7.402  -9.584  28.581  1.00  0.00     0.210 C 
ENDBRANCH   1  23
BRANCH  12  25
HETATM   25  O2  UNL     1       3.931  -8.093  27.211  1.00  0.00    -0.348 OA
BRANCH  25  26
HETATM   26  C16 UNL     1       2.725  -8.685  27.690  1.00  0.00     0.177 C 
BRANCH  26  27
HETATM   27  C17 UNL     1       1.506  -7.881  27.239  1.00  0.00     0.057 C 
BRANCH  27  28
HETATM   28  C18 UNL     1       0.366  -8.812  26.811  1.00  0.00     0.274 C 
BRANCH  28  29
HETATM   29  N4  UNL     1      -0.019  -9.854  27.765  1.00  0.00     0.092 N 
HETATM   30  C19 UNL     1       0.093 -11.222  27.232  1.00  0.00     0.298 C 
HETATM   31  C20 UNL     1      -0.633 -12.229  28.137  1.00  0.00     0.198 C 
HETATM   32  O3  UNL     1      -2.046 -11.992  28.218  1.00  0.00    -0.388 OA
HETATM   33  C21 UNL     1      -2.403 -10.619  28.002  1.00  0.00     0.198 C 
HETATM   34  C22 UNL     1      -1.310  -9.632  28.439  1.00  0.00     0.298 C 
ENDBRANCH  28  29
ENDBRANCH  27  28
ENDBRANCH  26  27
ENDBRANCH  25  26
ENDBRANCH  12  25
TORSDOF 8
ENDMDL
MODEL 7
REMARK minimizedAffinity -7.62371206
REMARK  8 active torsions:
REMARK  status: ('A' for Active; 'I' for Inactive)
REMARK    1  A    between atoms: O1_2  and  C2_3 
REMARK    2  A    between atoms: C5_6  and  N1_7 
REMARK    3  A    between atoms: N1_7  and  C6_8 
REMARK    4  A    between atoms: C15_23  and  O2_24 
REMARK    5  A    between atoms: O2_24  and  C16_25 
REMARK    6  A    between atoms: C16_25  and  C17_26 
REMARK    7  A    between atoms: C17_26  and  C18_27 
REMARK    8  A    between atoms: C18_27  and  N4_28 
ROOT
HETATM    1  C2  UNL     1       5.766  -6.008  29.421  1.00  0.00     0.102 A 
HETATM    2  C3  UNL     1       6.876  -5.385  29.993  1.00  0.00     0.057 A 
HETATM    3  C4  UNL     1       8.148  -6.005  29.958  1.00  0.00     0.038 A 
HETATM    4  C5  UNL     1       9.329  -5.466  30.508  1.00  0.00     0.119 A 
HETATM    5  N2  UNL     1      10.497  -6.131  30.471  1.00  0.00    -0.338 N 
ATOM      6  H2  UNL     1      11.345  -5.746  30.890  1.00  0.00     0.168 HD
HETATM    7  C12 UNL     1      10.496  -7.319  29.861  1.00  0.00     0.182 A 
HETATM    8  N3  UNL     1       9.443  -7.911  29.288  1.00  0.00    -0.351 N 
ATOM      9  H3  UNL     1       9.524  -8.819  28.831  1.00  0.00     0.166 HD
HETATM   10  C13 UNL     1       8.281  -7.257  29.343  1.00  0.00     0.050 A 
HETATM   11  C14 UNL     1       7.166  -7.848  28.759  1.00  0.00     0.070 A 
HETATM   12  C15 UNL     1       5.907  -7.241  28.776  1.00  0.00     0.104 A 
ENDROOT
BRANCH   4  13
HETATM   13  N1  UNL     1       9.281  -4.184  31.115  1.00  0.00    -0.339 N 
HETATM   14  H5  UNL     1       9.171  -3.472  30.395  1.00  0.00     0.167 HD
BRANCH  13  15
HETATM   15  C6  UNL     1      10.077  -3.686  32.172  1.00  0.00     0.072 A 
HETATM   16  C7  UNL     1      11.052  -2.699  31.995  1.00  0.00     0.034 A 
HETATM   17  C8  UNL     1      11.859  -2.289  33.062  1.00  0.00     0.026 A 
HETATM   18  C9  UNL     1      11.712  -2.882  34.316  1.00  0.00     0.037 A 
HETATM   19 CL1  UNL     1      12.708  -2.377  35.623  1.00  0.00    -0.084 Cl
HETATM   20  C10 UNL     1      10.771  -3.886  34.513  1.00  0.00     0.068 A 
HETATM   21  C11 UNL     1       9.976  -4.282  33.441  1.00  0.00     0.144 A 
HETATM   22  F1  UNL     1       9.077  -5.261  33.631  1.00  0.00    -0.204 F 
ENDBRANCH  13  15
ENDBRANCH   4  13
BRANCH   1  23
HETATM   23  O1  UNL     1       4.536  -5.400  29.411  1.00  0.00    -0.353 OA
HETATM   24  C1  UNL     1       4.382  -4.446  30.460  1.00  0.00     0.210 C 
ENDBRANCH   1  23
BRANCH  12  25
HETATM   25  O2  UNL     1       4.768  -7.759  28.221  1.00  0.00    -0.348 OA
BRANCH  25  26
HETATM   26  C16 UNL     1       4.858  -8.611  27.081  1.00  0.00     0.177 C 
BRANCH  26  27
HETATM   27  C17 UNL     1       3.593  -9.456  26.930  1.00  0.00     0.057 C 
BRANCH  27  28
HETATM   28  C18 UNL     1       2.339  -8.581  27.024  1.00  0.00     0.274 C 
BRANCH  28  29
HETATM   29  N4  UNL     1       1.753  -8.141  25.757  1.00  0.00     0.092 N 
HETATM   30  C19 UNL     1       0.286  -8.244  25.709  1.00  0.00     0.298 C 
HETATM   31  C20 UNL     1      -0.233  -8.098  24.270  1.00  0.00     0.198 C 
HETATM   32  O3  UNL     1       0.226  -9.142  23.400  1.00  0.00    -0.388 OA
HETATM   33  C21 UNL     1       1.481  -9.707  23.807  1.00  0.00     0.198 C 
HETATM   34  C22 UNL     1       2.383  -8.710  24.552  1.00  0.00     0.298 C 
ENDBRANCH  28  29
ENDBRANCH  27  28
ENDBRANCH  26  27
ENDBRANCH  25  26
ENDBRANCH  12  25
TORSDOF 8
ENDMDL
MODEL 8
REMARK minimizedAffinity -7.51335001
REMARK  8 active torsions:
REMARK  status: ('A' for Active; 'I' for Inactive)
REMARK    1  A    between atoms: O1_2  and  C2_3 
REMARK    2  A    between atoms: C5_6  and  N1_7 
REMARK    3  A    between atoms: N1_7  and  C6_8 
REMARK    4  A    between atoms: C15_23  and  O2_24 
REMARK    5  A    between atoms: O2_24  and  C16_25 
REMARK    6  A    between atoms: C16_25  and  C17_26 
REMARK    7  A    between atoms: C17_26  and  C18_27 
REMARK    8  A    between atoms: C18_27  and  N4_28 
ROOT
HETATM    1  C2  UNL     1       8.933  -6.583  29.403  1.00  0.00     0.102 A 
HETATM    2  C3  UNL     1       8.573  -5.399  30.048  1.00  0.00     0.057 A 
HETATM    3  C4  UNL     1       7.211  -5.092  30.283  1.00  0.00     0.038 A 
HETATM    4  C5  UNL     1       6.740  -3.926  30.919  1.00  0.00     0.119 A 
HETATM    5  N2  UNL     1       5.427  -3.682  31.075  1.00  0.00    -0.338 N 
ATOM      6  H2  UNL     1       5.090  -2.826  31.516  1.00  0.00     0.168 HD
HETATM    7  C12 UNL     1       4.583  -4.614  30.624  1.00  0.00     0.182 A 
HETATM    8  N3  UNL     1       4.921  -5.763  30.029  1.00  0.00    -0.351 N 
ATOM      9  H3  UNL     1       4.216  -6.432  29.719  1.00  0.00     0.166 HD
HETATM   10  C13 UNL     1       6.225  -5.993  29.859  1.00  0.00     0.050 A 
HETATM   11  C14 UNL     1       6.609  -7.177  29.240  1.00  0.00     0.070 A 
HETATM   12  C15 UNL     1       7.950  -7.497  29.012  1.00  0.00     0.104 A 
ENDROOT
BRANCH   4  13
HETATM   13  N1  UNL     1       7.682  -2.983  31.411  1.00  0.00    -0.339 N 
HETATM   14  H5  UNL     1       8.004  -2.395  30.644  1.00  0.00     0.167 HD
BRANCH  13  15
HETATM   15  C6  UNL     1       8.730  -3.195  32.335  1.00  0.00     0.072 A 
HETATM   16  C7  UNL     1       8.668  -4.150  33.355  1.00  0.00     0.034 A 
HETATM   17  C8  UNL     1       9.707  -4.274  34.285  1.00  0.00     0.026 A 
HETATM   18  C9  UNL     1      10.810  -3.425  34.215  1.00  0.00     0.037 A 
HETATM   19 CL1  UNL     1      12.082  -3.579  35.362  1.00  0.00    -0.084 Cl
HETATM   20  C10 UNL     1      10.884  -2.447  33.229  1.00  0.00     0.068 A 
HETATM   21  C11 UNL     1       9.844  -2.338  32.312  1.00  0.00     0.144 A 
HETATM   22  F1  UNL     1       9.912  -1.384  31.369  1.00  0.00    -0.204 F 
ENDBRANCH  13  15
ENDBRANCH   4  13
BRANCH   1  23
HETATM   23  O1  UNL     1      10.250  -6.913  29.205  1.00  0.00    -0.353 OA
HETATM   24  C1  UNL     1      11.126  -5.794  29.332  1.00  0.00     0.210 C 
ENDBRANCH   1  23
BRANCH  12  25
HETATM   25  O2  UNL     1       8.403  -8.642  28.413  1.00  0.00    -0.348 OA
BRANCH  25  26
HETATM   26  C16 UNL     1       7.497  -9.713  28.156  1.00  0.00     0.177 C 
BRANCH  26  27
HETATM   27  C17 UNL     1       8.108 -10.723  27.183  1.00  0.00     0.057 C 
BRANCH  27  28
HETATM   28  C18 UNL     1       9.432 -10.200  26.615  1.00  0.00     0.274 C 
BRANCH  28  29
HETATM   29  N4  UNL     1      10.644 -10.911  27.024  1.00  0.00     0.092 N 
HETATM   30  C19 UNL     1      10.462 -12.365  27.172  1.00  0.00     0.298 C 
HETATM   31  C20 UNL     1      11.647 -12.998  27.918  1.00  0.00     0.198 C 
HETATM   32  O3  UNL     1      11.784 -12.517  29.262  1.00  0.00    -0.388 OA
HETATM   33  C21 UNL     1      11.263 -11.193  29.446  1.00  0.00     0.198 C 
HETATM   34  C22 UNL     1      11.346 -10.326  28.180  1.00  0.00     0.298 C 
ENDBRANCH  28  29
ENDBRANCH  27  28
ENDBRANCH  26  27
ENDBRANCH  25  26
ENDBRANCH  12  25
TORSDOF 8
ENDMDL
MODEL 9
REMARK minimizedAffinity -7.42550278
REMARK  8 active torsions:
REMARK  status: ('A' for Active; 'I' for Inactive)
REMARK    1  A    between atoms: O1_2  and  C2_3 
REMARK    2  A    between atoms: C5_6  and  N1_7 
REMARK    3  A    between atoms: N1_7  and  C6_8 
REMARK    4  A    between atoms: C15_23  and  O2_24 
REMARK    5  A    between atoms: O2_24  and  C16_25 
REMARK    6  A    between atoms: C16_25  and  C17_26 
REMARK    7  A    between atoms: C17_26  and  C18_27 
REMARK    8  A    between atoms: C18_27  and  N4_28 
ROOT
HETATM    1  C2  UNL     1      10.497  -6.275  29.695  1.00  0.00     0.102 A 
HETATM    2  C3  UNL     1       9.663  -5.360  30.339  1.00  0.00     0.057 A 
HETATM    3  C4  UNL     1       8.256  -5.509  30.289  1.00  0.00     0.038 A 
HETATM    4  C5  UNL     1       7.326  -4.642  30.898  1.00  0.00     0.119 A 
HETATM    5  N2  UNL     1       5.999  -4.824  30.777  1.00  0.00    -0.338 N 
ATOM      6  H2  UNL     1       5.330  -4.182  31.201  1.00  0.00     0.168 HD
HETATM    7  C12 UNL     1       5.599  -5.887  30.073  1.00  0.00     0.182 A 
HETATM    8  N3  UNL     1       6.392  -6.782  29.476  1.00  0.00    -0.351 N 
ATOM      9  H3  UNL     1       6.009  -7.577  28.963  1.00  0.00     0.166 HD
HETATM   10  C13 UNL     1       7.708  -6.588  29.583  1.00  0.00     0.050 A 
HETATM   11  C14 UNL     1       8.560  -7.500  28.969  1.00  0.00     0.070 A 
HETATM   12  C15 UNL     1       9.951  -7.370  29.020  1.00  0.00     0.104 A 
ENDROOT
BRANCH   4  13
HETATM   13  N1  UNL     1       7.807  -3.547  31.663  1.00  0.00    -0.339 N 
HETATM   14  H5  UNL     1       7.782  -2.701  31.097  1.00  0.00     0.167 HD
BRANCH  13  15
HETATM   15  C6  UNL     1       8.916  -3.512  32.540  1.00  0.00     0.072 A 
HETATM   16  C7  UNL     1       9.026  -4.335  33.666  1.00  0.00     0.034 A 
HETATM   17  C8  UNL     1      10.113  -4.213  34.538  1.00  0.00     0.026 A 
HETATM   18  C9  UNL     1      11.092  -3.249  34.303  1.00  0.00     0.037 A 
HETATM   19 CL1  UNL     1      12.424  -3.102  35.380  1.00  0.00    -0.084 Cl
HETATM   20  C10 UNL     1      10.992  -2.398  33.208  1.00  0.00     0.068 A 
HETATM   21  C11 UNL     1       9.905  -2.532  32.350  1.00  0.00     0.144 A 
HETATM   22  F1  UNL     1       9.805  -1.700  31.300  1.00  0.00    -0.204 F 
ENDBRANCH  13  15
ENDBRANCH   4  13
BRANCH   1  23
HETATM   23  O1  UNL     1      11.863  -6.166  29.769  1.00  0.00    -0.353 OA
HETATM   24  C1  UNL     1      12.306  -5.586  30.994  1.00  0.00     0.210 C 
ENDBRANCH   1  23
BRANCH  12  25
HETATM   25  O2  UNL     1      10.850  -8.228  28.445  1.00  0.00    -0.348 OA
BRANCH  25  26
HETATM   26  C16 UNL     1      11.282  -8.007  27.104  1.00  0.00     0.177 C 
BRANCH  26  27
HETATM   27  C17 UNL     1      10.673  -9.041  26.157  1.00  0.00     0.057 C 
BRANCH  27  28
HETATM   28  C18 UNL     1       9.626  -8.394  25.244  1.00  0.00     0.274 C 
BRANCH  28  29
HETATM   29  N4  UNL     1      10.009  -8.205  23.843  1.00  0.00     0.092 N 
HETATM   30  C19 UNL     1       9.516  -9.259  22.942  1.00  0.00     0.298 C 
HETATM   31  C20 UNL     1      10.220  -9.195  21.578  1.00  0.00     0.198 C 
HETATM   32  O3  UNL     1      11.633  -9.432  21.665  1.00  0.00    -0.388 OA
HETATM   33  C21 UNL     1      12.191  -9.070  22.936  1.00  0.00     0.198 C 
HETATM   34  C22 UNL     1      11.438  -7.920  23.624  1.00  0.00     0.298 C 
ENDBRANCH  28  29
ENDBRANCH  27  28
ENDBRANCH  26  27
ENDBRANCH  25  26
ENDBRANCH  12  25
TORSDOF 8
ENDMDL
