MODEL 1
REMARK minimizedAffinity -6.17808723
REMARK CNNscore 0.393463135
REMARK CNNaffinity 6.49112749
REMARK  1 active torsions:
REMARK  status: ('A' for Active; 'I' for Inactive)
REMARK    1  A    between atoms: C2_2  and  C3_3 
REMARK       I    between atoms: C3_3  and  N1_5 
ROOT
HETATM    1  C3  UNL     1     -13.680 -10.624  29.966  1.00  0.00     0.247 C 
HETATM    2  O1  UNL     1     -13.234 -10.348  31.078  1.00  0.00    -0.268 OA
HETATM    3  N1  UNL     1     -13.941  -9.713  28.926  1.00  0.00    -0.315 N 
HETATM    4  C4  UNL     1     -14.323 -10.171  27.569  1.00  0.00     0.132 C 
HETATM    5  C5  UNL     1     -13.089 -10.626  26.775  1.00  0.00     0.020 C 
HETATM    6  C6  UNL     1     -13.397 -11.656  25.684  1.00  0.00     0.002 C 
HETATM    7  C7  UNL     1     -14.374 -11.214  24.592  1.00  0.00     0.000 C 
HETATM    8  C8  UNL     1     -13.915  -9.961  23.847  1.00  0.00     0.002 C 
HETATM    9  C9  UNL     1     -14.640  -9.718  22.516  1.00  0.00     0.020 C 
HETATM   10  C10 UNL     1     -16.170  -9.818  22.535  1.00  0.00     0.128 C 
HETATM   11  N2  UNL     1     -16.901  -8.906  23.397  1.00  0.00    -0.355 N 
HETATM   12  C11 UNL     1     -16.433  -7.733  23.919  1.00  0.00     0.106 A 
HETATM   13  C12 UNL     1     -17.413  -7.188  24.723  1.00  0.00     0.019 A 
HETATM   14  C13 UNL     1     -18.557  -8.032  24.633  1.00  0.00     0.005 A 
HETATM   15  C14 UNL     1     -19.847  -8.003  25.205  1.00  0.00     0.014 A 
HETATM   16  C15 UNL     1     -20.763  -9.015  24.900  1.00  0.00     0.001 A 
HETATM   17  C16 UNL     1     -20.410 -10.052  24.044  1.00  0.00     0.002 A 
HETATM   18  C17 UNL     1     -19.135 -10.114  23.474  1.00  0.00     0.030 A 
HETATM   19  C18 UNL     1     -18.218  -9.095  23.786  1.00  0.00     0.045 A 
HETATM   20  C19 UNL     1     -17.190  -5.978  25.486  1.00  0.00     0.063 A 
HETATM   21  C20 UNL     1     -17.968  -4.861  25.305  1.00  0.00     0.048 A 
HETATM   22  C21 UNL     1     -17.606  -3.781  26.065  1.00  0.00     0.108 A 
HETATM   23  N3  UNL     1     -16.579  -3.793  26.939  1.00  0.00    -0.202 N 
ATOM     24  H3  UNL     1     -16.333  -2.964  27.479  1.00  0.00     0.183 HD
HETATM   25  C22 UNL     1     -15.894  -4.940  27.069  1.00  0.00     0.683 A 
HETATM   26  N4  UNL     1     -16.160  -6.035  26.353  1.00  0.00    -0.191 N 
ATOM     27  H4  UNL     1     -15.604  -6.884  26.458  1.00  0.00     0.184 HD
HETATM   28  N5  UNL     1     -14.855  -4.929  27.992  1.00  0.00    -0.189 N 
HETATM   29  C23 UNL     1     -14.113  -5.949  28.607  1.00  0.00     0.089 A 
HETATM   30  C24 UNL     1     -14.375  -7.320  28.441  1.00  0.00     0.063 A 
HETATM   31  C25 UNL     1     -13.611  -8.316  29.081  1.00  0.00     0.039 A 
HETATM   32  C26 UNL     1     -12.536  -7.900  29.882  1.00  0.00     0.033 A 
HETATM   33  C27 UNL     1     -12.236  -6.547  30.040  1.00  0.00     0.047 A 
HETATM   34  C28 UNL     1     -13.019  -5.593  29.405  1.00  0.00     0.143 A 
HETATM   35  F1  UNL     1     -12.722  -4.295  29.576  1.00  0.00    -0.204 F 
HETATM   36  H25 UNL     1     -14.732  -4.003  28.378  1.00  0.00     0.184 HD
ENDROOT
BRANCH   1  37
HETATM   37  C2  UNL     1     -14.005 -12.055  29.696  1.00  0.00     0.064 C 
HETATM   38  C1  UNL     1     -13.037 -12.980  29.736  1.00  0.00     0.017 C 
ENDBRANCH   1  37
TORSDOF 1
ENDMDL
MODEL 2
REMARK minimizedAffinity -6.08276272
REMARK CNNscore 0.23083666
REMARK CNNaffinity 5.06486893
REMARK  1 active torsions:
REMARK  status: ('A' for Active; 'I' for Inactive)
REMARK    1  A    between atoms: C2_2  and  C3_3 
REMARK       I    between atoms: C3_3  and  N1_5 
ROOT
HETATM    1  C3  UNL     1     -20.049  -8.045   5.456  1.00  0.00     0.247 C 
HETATM    2  O1  UNL     1     -21.182  -7.748   5.829  1.00  0.00    -0.268 OA
HETATM    3  N1  UNL     1     -18.854  -7.806   6.161  1.00  0.00    -0.315 N 
HETATM    4  C4  UNL     1     -17.556  -8.351   5.697  1.00  0.00     0.132 C 
HETATM    5  C5  UNL     1     -17.413  -9.831   6.081  1.00  0.00     0.020 C 
HETATM    6  C6  UNL     1     -16.480 -10.625   5.161  1.00  0.00     0.002 C 
HETATM    7  C7  UNL     1     -15.031 -10.140   5.085  1.00  0.00     0.000 C 
HETATM    8  C8  UNL     1     -14.334 -10.116   6.445  1.00  0.00     0.002 C 
HETATM    9  C9  UNL     1     -12.804 -10.023   6.367  1.00  0.00     0.020 C 
HETATM   10  C10 UNL     1     -12.223  -8.955   5.432  1.00  0.00     0.128 C 
HETATM   11  N2  UNL     1     -12.553  -7.565   5.698  1.00  0.00    -0.355 N 
HETATM   12  C11 UNL     1     -13.014  -7.054   6.879  1.00  0.00     0.106 A 
HETATM   13  C12 UNL     1     -13.253  -5.705   6.708  1.00  0.00     0.019 A 
HETATM   14  C13 UNL     1     -12.854  -5.365   5.384  1.00  0.00     0.005 A 
HETATM   15  C14 UNL     1     -12.847  -4.167   4.638  1.00  0.00     0.014 A 
HETATM   16  C15 UNL     1     -12.376  -4.174   3.321  1.00  0.00     0.001 A 
HETATM   17  C16 UNL     1     -11.920  -5.352   2.741  1.00  0.00     0.002 A 
HETATM   18  C17 UNL     1     -11.929  -6.556   3.451  1.00  0.00     0.030 A 
HETATM   19  C18 UNL     1     -12.407  -6.543   4.773  1.00  0.00     0.045 A 
HETATM   20  C19 UNL     1     -13.825  -4.893   7.761  1.00  0.00     0.063 A 
HETATM   21  C20 UNL     1     -13.163  -3.802   8.268  1.00  0.00     0.048 A 
HETATM   22  C21 UNL     1     -13.810  -3.162   9.290  1.00  0.00     0.108 A 
HETATM   23  N3  UNL     1     -15.011  -3.545   9.770  1.00  0.00    -0.202 N 
ATOM     24  H3  UNL     1     -15.457  -3.048  10.541  1.00  0.00     0.183 HD
HETATM   25  C22 UNL     1     -15.596  -4.605   9.191  1.00  0.00     0.683 A 
HETATM   26  N4  UNL     1     -15.028  -5.305   8.206  1.00  0.00    -0.191 N 
ATOM     27  H4  UNL     1     -15.489  -6.122   7.804  1.00  0.00     0.184 HD
HETATM   28  N5  UNL     1     -16.841  -4.964   9.692  1.00  0.00    -0.189 N 
HETATM   29  C23 UNL     1     -17.865  -5.791   9.205  1.00  0.00     0.089 A 
HETATM   30  C24 UNL     1     -17.841  -6.408   7.942  1.00  0.00     0.063 A 
HETATM   31  C25 UNL     1     -18.892  -7.229   7.484  1.00  0.00     0.039 A 
HETATM   32  C26 UNL     1     -19.974  -7.448   8.350  1.00  0.00     0.033 A 
HETATM   33  C27 UNL     1     -20.009  -6.871   9.620  1.00  0.00     0.047 A 
HETATM   34  C28 UNL     1     -18.962  -6.057  10.032  1.00  0.00     0.143 A 
HETATM   35  F1  UNL     1     -19.017  -5.503  11.254  1.00  0.00    -0.204 F 
HETATM   36  H25 UNL     1     -17.083  -4.391  10.489  1.00  0.00     0.184 HD
ENDROOT
BRANCH   1  37
HETATM   37  C2  UNL     1     -19.916  -8.692   4.119  1.00  0.00     0.064 C 
HETATM   38  C1  UNL     1     -20.321  -8.044   3.019  1.00  0.00     0.017 C 
ENDBRANCH   1  37
TORSDOF 1
ENDMDL
MODEL 3
REMARK minimizedAffinity -6.47933865
REMARK CNNscore 0.223560348
REMARK CNNaffinity 5.64865732
REMARK  1 active torsions:
REMARK  status: ('A' for Active; 'I' for Inactive)
REMARK    1  A    between atoms: C2_2  and  C3_3 
REMARK       I    between atoms: C3_3  and  N1_5 
ROOT
HETATM    1  C3  UNL     1      -5.148  -9.841   5.221  1.00  0.00     0.247 C 
HETATM    2  O1  UNL     1      -3.961 -10.078   5.008  1.00  0.00    -0.268 OA
HETATM    3  N1  UNL     1      -6.190  -9.908   4.278  1.00  0.00    -0.315 N 
HETATM    4  C4  UNL     1      -7.611  -9.761   4.678  1.00  0.00     0.132 C 
HETATM    5  C5  UNL     1      -8.151 -11.070   5.274  1.00  0.00     0.020 C 
HETATM    6  C6  UNL     1      -9.313 -10.874   6.251  1.00  0.00     0.002 C 
HETATM    7  C7  UNL     1     -10.567 -10.201   5.687  1.00  0.00     0.000 C 
HETATM    8  C8  UNL     1     -11.163 -10.947   4.494  1.00  0.00     0.002 C 
HETATM    9  C9  UNL     1     -12.605 -10.545   4.156  1.00  0.00     0.020 C 
HETATM   10  C10 UNL     1     -12.901  -9.042   4.070  1.00  0.00     0.128 C 
HETATM   11  N2  UNL     1     -12.177  -8.261   3.082  1.00  0.00    -0.355 N 
HETATM   12  C11 UNL     1     -11.534  -8.747   1.978  1.00  0.00     0.106 A 
HETATM   13  C12 UNL     1     -10.929  -7.693   1.323  1.00  0.00     0.019 A 
HETATM   14  C13 UNL     1     -11.276  -6.501   2.022  1.00  0.00     0.005 A 
HETATM   15  C14 UNL     1     -10.977  -5.134   1.840  1.00  0.00     0.014 A 
HETATM   16  C15 UNL     1     -11.493  -4.188   2.731  1.00  0.00     0.001 A 
HETATM   17  C16 UNL     1     -12.292  -4.585   3.797  1.00  0.00     0.002 A 
HETATM   18  C17 UNL     1     -12.593  -5.933   4.010  1.00  0.00     0.030 A 
HETATM   19  C18 UNL     1     -12.069  -6.880   3.113  1.00  0.00     0.045 A 
HETATM   20  C19 UNL     1     -10.100  -7.896   0.154  1.00  0.00     0.063 A 
HETATM   21  C20 UNL     1     -10.400  -7.308  -1.050  1.00  0.00     0.048 A 
HETATM   22  C21 UNL     1      -9.548  -7.630  -2.073  1.00  0.00     0.108 A 
HETATM   23  N3  UNL     1      -8.486  -8.447  -1.931  1.00  0.00    -0.202 N 
ATOM     24  H3  UNL     1      -7.881  -8.673  -2.721  1.00  0.00     0.183 HD
HETATM   25  C22 UNL     1      -8.255  -8.951  -0.709  1.00  0.00     0.683 A 
HETATM   26  N4  UNL     1      -9.044  -8.711   0.341  1.00  0.00    -0.191 N 
ATOM     27  H4  UNL     1      -8.855  -9.130   1.252  1.00  0.00     0.184 HD
HETATM   28  N5  UNL     1      -7.141  -9.773  -0.587  1.00  0.00    -0.189 N 
HETATM   29  C23 UNL     1      -6.420 -10.248   0.519  1.00  0.00     0.089 A 
HETATM   30  C24 UNL     1      -6.678  -9.866   1.847  1.00  0.00     0.063 A 
HETATM   31  C25 UNL     1      -5.928 -10.361   2.933  1.00  0.00     0.039 A 
HETATM   32  C26 UNL     1      -4.913 -11.289   2.656  1.00  0.00     0.033 A 
HETATM   33  C27 UNL     1      -4.655 -11.707   1.350  1.00  0.00     0.047 A 
HETATM   34  C28 UNL     1      -5.406 -11.189   0.304  1.00  0.00     0.143 A 
HETATM   35  F1  UNL     1      -5.137 -11.595  -0.948  1.00  0.00    -0.204 F 
HETATM   36  H25 UNL     1      -6.709  -9.922  -1.489  1.00  0.00     0.184 HD
ENDROOT
BRANCH   1  37
HETATM   37  C2  UNL     1      -5.523  -9.413   6.600  1.00  0.00     0.064 C 
HETATM   38  C1  UNL     1      -4.617  -9.462   7.586  1.00  0.00     0.017 C 
ENDBRANCH   1  37
TORSDOF 1
ENDMDL
MODEL 4
REMARK minimizedAffinity -6.29401016
REMARK CNNscore 0.213861525
REMARK CNNaffinity 6.30755615
REMARK  1 active torsions:
REMARK  status: ('A' for Active; 'I' for Inactive)
REMARK    1  A    between atoms: C2_2  and  C3_3 
REMARK       I    between atoms: C3_3  and  N1_5 
ROOT
HETATM    1  C3  UNL     1     -18.567  -7.447  25.104  1.00  0.00     0.247 C 
HETATM    2  O1  UNL     1     -19.123  -7.666  24.029  1.00  0.00    -0.268 OA
HETATM    3  N1  UNL     1     -17.226  -7.732  25.418  1.00  0.00    -0.315 N 
HETATM    4  C4  UNL     1     -16.612  -7.278  26.689  1.00  0.00     0.132 C 
HETATM    5  C5  UNL     1     -16.212  -5.797  26.606  1.00  0.00     0.020 C 
HETATM    6  C6  UNL     1     -16.173  -5.087  27.963  1.00  0.00     0.002 C 
HETATM    7  C7  UNL     1     -15.200  -5.657  28.998  1.00  0.00     0.000 C 
HETATM    8  C8  UNL     1     -13.752  -5.678  28.511  1.00  0.00     0.002 C 
HETATM    9  C9  UNL     1     -12.714  -5.862  29.627  1.00  0.00     0.020 C 
HETATM   10  C10 UNL     1     -12.974  -6.991  30.633  1.00  0.00     0.128 C 
HETATM   11  N2  UNL     1     -13.050  -8.350  30.125  1.00  0.00    -0.355 N 
HETATM   12  C11 UNL     1     -12.564  -8.797  28.929  1.00  0.00     0.106 A 
HETATM   13  C12 UNL     1     -12.880 -10.134  28.799  1.00  0.00     0.019 A 
HETATM   14  C13 UNL     1     -13.528 -10.538  30.002  1.00  0.00     0.005 A 
HETATM   15  C14 UNL     1     -14.067 -11.757  30.465  1.00  0.00     0.014 A 
HETATM   16  C15 UNL     1     -14.651 -11.819  31.734  1.00  0.00     0.001 A 
HETATM   17  C16 UNL     1     -14.708 -10.687  32.540  1.00  0.00     0.002 A 
HETATM   18  C17 UNL     1     -14.194  -9.463  32.102  1.00  0.00     0.030 A 
HETATM   19  C18 UNL     1     -13.612  -9.407  30.824  1.00  0.00     0.045 A 
HETATM   20  C19 UNL     1     -12.569 -10.879  27.598  1.00  0.00     0.063 A 
HETATM   21  C20 UNL     1     -11.762 -11.989  27.629  1.00  0.00     0.048 A 
HETATM   22  C21 UNL     1     -11.523 -12.559  26.407  1.00  0.00     0.108 A 
HETATM   23  N3  UNL     1     -12.038 -12.093  25.252  1.00  0.00    -0.202 N 
ATOM     24  H3  UNL     1     -11.827 -12.538  24.359  1.00  0.00     0.183 HD
HETATM   25  C22 UNL     1     -12.840 -11.019  25.324  1.00  0.00     0.683 A 
HETATM   26  N4  UNL     1     -13.110 -10.385  26.467  1.00  0.00    -0.191 N 
ATOM     27  H4  UNL     1     -13.704  -9.555  26.485  1.00  0.00     0.184 HD
HETATM   28  N5  UNL     1     -13.374 -10.574  24.121  1.00  0.00    -0.189 N 
HETATM   29  C23 UNL     1     -14.430  -9.704  23.807  1.00  0.00     0.089 A 
HETATM   30  C24 UNL     1     -15.284  -9.129  24.764  1.00  0.00     0.063 A 
HETATM   31  C25 UNL     1     -16.339  -8.264  24.411  1.00  0.00     0.039 A 
HETATM   32  C26 UNL     1     -16.502  -7.957  23.052  1.00  0.00     0.033 A 
HETATM   33  C27 UNL     1     -15.651  -8.490  22.084  1.00  0.00     0.047 A 
HETATM   34  C28 UNL     1     -14.630  -9.350  22.468  1.00  0.00     0.143 A 
HETATM   35  F1  UNL     1     -13.826  -9.861  21.522  1.00  0.00    -0.204 F 
HETATM   36  H25 UNL     1     -13.000 -11.106  23.347  1.00  0.00     0.184 HD
ENDROOT
BRANCH   1  37
HETATM   37  C2  UNL     1     -19.395  -6.851  26.192  1.00  0.00     0.064 C 
HETATM   38  C1  UNL     1     -19.947  -5.641  26.026  1.00  0.00     0.017 C 
ENDBRANCH   1  37
TORSDOF 1
ENDMDL
MODEL 5
REMARK minimizedAffinity -7.28718281
REMARK CNNscore 0.185586348
REMARK CNNaffinity 5.61200953
REMARK  1 active torsions:
REMARK  status: ('A' for Active; 'I' for Inactive)
REMARK    1  A    between atoms: C2_2  and  C3_3 
REMARK       I    between atoms: C3_3  and  N1_5 
ROOT
HETATM    1  C3  UNL     1     -11.810 -12.810  25.507  1.00  0.00     0.247 C 
HETATM    2  O1  UNL     1     -11.167 -12.494  26.506  1.00  0.00    -0.268 OA
HETATM    3  N1  UNL     1     -11.395 -12.659  24.171  1.00  0.00    -0.315 N 
HETATM    4  C4  UNL     1     -12.178 -13.223  23.045  1.00  0.00     0.132 C 
HETATM    5  C5  UNL     1     -11.912 -14.728  22.892  1.00  0.00     0.020 C 
HETATM    6  C6  UNL     1     -13.063 -15.499  22.240  1.00  0.00     0.002 C 
HETATM    7  C7  UNL     1     -13.453 -15.065  20.825  1.00  0.00     0.000 C 
HETATM    8  C8  UNL     1     -12.296 -15.149  19.831  1.00  0.00     0.002 C 
HETATM    9  C9  UNL     1     -12.726 -15.109  18.358  1.00  0.00     0.020 C 
HETATM   10  C10 UNL     1     -13.717 -14.009  17.957  1.00  0.00     0.128 C 
HETATM   11  N2  UNL     1     -13.312 -12.626  18.146  1.00  0.00    -0.355 N 
HETATM   12  C11 UNL     1     -12.032 -12.170  18.293  1.00  0.00     0.106 A 
HETATM   13  C12 UNL     1     -12.075 -10.806  18.497  1.00  0.00     0.019 A 
HETATM   14  C13 UNL     1     -13.437 -10.401  18.401  1.00  0.00     0.005 A 
HETATM   15  C14 UNL     1     -14.103  -9.162  18.507  1.00  0.00     0.014 A 
HETATM   16  C15 UNL     1     -15.493  -9.107  18.355  1.00  0.00     0.001 A 
HETATM   17  C16 UNL     1     -16.221 -10.265  18.107  1.00  0.00     0.002 A 
HETATM   18  C17 UNL     1     -15.590 -11.508  18.011  1.00  0.00     0.030 A 
HETATM   19  C18 UNL     1     -14.194 -11.556  18.167  1.00  0.00     0.045 A 
HETATM   20  C19 UNL     1     -10.878 -10.037  18.767  1.00  0.00     0.063 A 
HETATM   21  C20 UNL     1     -10.487  -9.004  17.951  1.00  0.00     0.048 A 
HETATM   22  C21 UNL     1      -9.310  -8.403  18.310  1.00  0.00     0.108 A 
HETATM   23  N3  UNL     1      -8.582  -8.769  19.384  1.00  0.00    -0.202 N 
ATOM     24  H3  UNL     1      -7.704  -8.303  19.613  1.00  0.00     0.183 HD
HETATM   25  C22 UNL     1      -9.059  -9.770  20.140  1.00  0.00     0.683 A 
HETATM   26  N4  UNL     1     -10.184 -10.430  19.853  1.00  0.00    -0.191 N 
ATOM     27  H4  UNL     1     -10.507 -11.203  20.435  1.00  0.00     0.184 HD
HETATM   28  N5  UNL     1      -8.299 -10.111  21.252  1.00  0.00    -0.189 N 
HETATM   29  C23 UNL     1      -8.572 -10.869  22.401  1.00  0.00     0.089 A 
HETATM   30  C24 UNL     1      -9.834 -11.409  22.703  1.00  0.00     0.063 A 
HETATM   31  C25 UNL     1     -10.073 -12.161  23.871  1.00  0.00     0.039 A 
HETATM   32  C26 UNL     1      -8.989 -12.391  24.731  1.00  0.00     0.033 A 
HETATM   33  C27 UNL     1      -7.719 -11.891  24.441  1.00  0.00     0.047 A 
HETATM   34  C28 UNL     1      -7.525 -11.143  23.288  1.00  0.00     0.143 A 
HETATM   35  F1  UNL     1      -6.298 -10.661  23.029  1.00  0.00    -0.204 F 
HETATM   36  H25 UNL     1      -7.439  -9.579  21.272  1.00  0.00     0.184 HD
ENDROOT
BRANCH   1  37
HETATM   37  C2  UNL     1     -13.171 -13.380  25.721  1.00  0.00     0.064 C 
HETATM   38  C1  UNL     1     -14.121 -12.643  26.314  1.00  0.00     0.017 C 
ENDBRANCH   1  37
TORSDOF 1
ENDMDL
MODEL 6
REMARK minimizedAffinity -6.64293528
REMARK CNNscore 0.174452573
REMARK CNNaffinity 5.11708021
REMARK  1 active torsions:
REMARK  status: ('A' for Active; 'I' for Inactive)
REMARK    1  A    between atoms: C2_2  and  C3_3 
REMARK       I    between atoms: C3_3  and  N1_5 
ROOT
HETATM    1  C3  UNL     1     -20.539   1.273  10.065  1.00  0.00     0.247 C 
HETATM    2  O1  UNL     1     -20.311   2.479  10.125  1.00  0.00    -0.268 OA
HETATM    3  N1  UNL     1     -19.793   0.255  10.688  1.00  0.00    -0.315 N 
HETATM    4  C4  UNL     1     -20.250  -1.156  10.686  1.00  0.00     0.132 C 
HETATM    5  C5  UNL     1     -21.332  -1.383  11.752  1.00  0.00     0.020 C 
HETATM    6  C6  UNL     1     -22.281  -2.544  11.436  1.00  0.00     0.002 C 
HETATM    7  C7  UNL     1     -21.637  -3.924  11.289  1.00  0.00     0.000 C 
HETATM    8  C8  UNL     1     -20.863  -4.361  12.532  1.00  0.00     0.002 C 
HETATM    9  C9  UNL     1     -20.546  -5.862  12.581  1.00  0.00     0.020 C 
HETATM   10  C10 UNL     1     -19.947  -6.484  11.313  1.00  0.00     0.128 C 
HETATM   11  N2  UNL     1     -18.676  -5.967  10.836  1.00  0.00    -0.355 N 
HETATM   12  C11 UNL     1     -17.768  -5.251  11.564  1.00  0.00     0.106 A 
HETATM   13  C12 UNL     1     -16.718  -4.906  10.738  1.00  0.00     0.019 A 
HETATM   14  C13 UNL     1     -16.964  -5.495   9.465  1.00  0.00     0.005 A 
HETATM   15  C14 UNL     1     -16.268  -5.509   8.237  1.00  0.00     0.014 A 
HETATM   16  C15 UNL     1     -16.800  -6.205   7.147  1.00  0.00     0.001 A 
HETATM   17  C16 UNL     1     -18.011  -6.879   7.263  1.00  0.00     0.002 A 
HETATM   18  C17 UNL     1     -18.729  -6.871   8.462  1.00  0.00     0.030 A 
HETATM   19  C18 UNL     1     -18.191  -6.166   9.553  1.00  0.00     0.045 A 
HETATM   20  C19 UNL     1     -15.627  -4.072  11.197  1.00  0.00     0.063 A 
HETATM   21  C20 UNL     1     -14.328  -4.515  11.179  1.00  0.00     0.048 A 
HETATM   22  C21 UNL     1     -13.413  -3.631  11.688  1.00  0.00     0.108 A 
HETATM   23  N3  UNL     1     -13.738  -2.412  12.163  1.00  0.00    -0.202 N 
ATOM     24  H3  UNL     1     -13.029  -1.786  12.545  1.00  0.00     0.183 HD
HETATM   25  C22 UNL     1     -15.031  -2.054  12.112  1.00  0.00     0.683 A 
HETATM   26  N4  UNL     1     -15.993  -2.859  11.656  1.00  0.00    -0.191 N 
ATOM     27  H4  UNL     1     -16.971  -2.567  11.654  1.00  0.00     0.184 HD
HETATM   28  N5  UNL     1     -15.332  -0.785  12.589  1.00  0.00    -0.189 N 
HETATM   29  C23 UNL     1     -16.459   0.042  12.459  1.00  0.00     0.089 A 
HETATM   30  C24 UNL     1     -17.575  -0.271  11.664  1.00  0.00     0.063 A 
HETATM   31  C25 UNL     1     -18.687   0.588  11.553  1.00  0.00     0.039 A 
HETATM   32  C26 UNL     1     -18.668   1.778  12.296  1.00  0.00     0.033 A 
HETATM   33  C27 UNL     1     -17.586   2.099  13.116  1.00  0.00     0.047 A 
HETATM   34  C28 UNL     1     -16.502   1.235  13.190  1.00  0.00     0.143 A 
HETATM   35  F1  UNL     1     -15.465   1.565  13.977  1.00  0.00    -0.204 F 
HETATM   36  H25 UNL     1     -14.509  -0.346  12.979  1.00  0.00     0.184 HD
ENDROOT
BRANCH   1  37
HETATM   37  C2  UNL     1     -21.697   0.836   9.232  1.00  0.00     0.064 C 
HETATM   38  C1  UNL     1     -21.791   1.234   7.956  1.00  0.00     0.017 C 
ENDBRANCH   1  37
TORSDOF 1
ENDMDL
MODEL 7
REMARK minimizedAffinity -6.23223829
REMARK CNNscore 0.169881776
REMARK CNNaffinity 5.57811403
REMARK  1 active torsions:
REMARK  status: ('A' for Active; 'I' for Inactive)
REMARK    1  A    between atoms: C2_2  and  C3_3 
REMARK       I    between atoms: C3_3  and  N1_5 
ROOT
HETATM    1  C3  UNL     1     -20.186   0.741  23.371  1.00  0.00     0.247 C 
HETATM    2  O1  UNL     1     -21.022   0.727  22.469  1.00  0.00    -0.268 OA
HETATM    3  N1  UNL     1     -19.356   1.823  23.717  1.00  0.00    -0.315 N 
HETATM    4  C4  UNL     1     -18.498   1.790  24.926  1.00  0.00     0.132 C 
HETATM    5  C5  UNL     1     -19.318   2.097  26.188  1.00  0.00     0.020 C 
HETATM    6  C6  UNL     1     -18.733   1.495  27.470  1.00  0.00     0.002 C 
HETATM    7  C7  UNL     1     -17.321   1.948  27.848  1.00  0.00     0.000 C 
HETATM    8  C8  UNL     1     -17.203   3.461  28.022  1.00  0.00     0.002 C 
HETATM    9  C9  UNL     1     -15.942   3.913  28.771  1.00  0.00     0.020 C 
HETATM   10  C10 UNL     1     -14.611   3.306  28.311  1.00  0.00     0.128 C 
HETATM   11  N2  UNL     1     -14.194   3.540  26.939  1.00  0.00    -0.355 N 
HETATM   12  C11 UNL     1     -14.649   4.527  26.111  1.00  0.00     0.106 A 
HETATM   13  C12 UNL     1     -14.045   4.379  24.880  1.00  0.00     0.019 A 
HETATM   14  C13 UNL     1     -13.127   3.295  24.981  1.00  0.00     0.005 A 
HETATM   15  C14 UNL     1     -12.230   2.679  24.082  1.00  0.00     0.014 A 
HETATM   16  C15 UNL     1     -11.447   1.603  24.513  1.00  0.00     0.001 A 
HETATM   17  C16 UNL     1     -11.551   1.132  25.816  1.00  0.00     0.002 A 
HETATM   18  C17 UNL     1     -12.442   1.712  26.724  1.00  0.00     0.030 A 
HETATM   19  C18 UNL     1     -13.227   2.792  26.285  1.00  0.00     0.045 A 
HETATM   20  C19 UNL     1     -14.382   5.229  23.757  1.00  0.00     0.063 A 
HETATM   21  C20 UNL     1     -13.436   6.004  23.133  1.00  0.00     0.048 A 
HETATM   22  C21 UNL     1     -13.916   6.788  22.118  1.00  0.00     0.108 A 
HETATM   23  N3  UNL     1     -15.208   6.805  21.734  1.00  0.00    -0.202 N 
ATOM     24  H3  UNL     1     -15.529   7.412  20.980  1.00  0.00     0.183 HD
HETATM   25  C22 UNL     1     -16.054   5.991  22.384  1.00  0.00     0.683 A 
HETATM   26  N4  UNL     1     -15.681   5.210  23.401  1.00  0.00    -0.191 N 
ATOM     27  H4  UNL     1     -16.355   4.621  23.890  1.00  0.00     0.184 HD
HETATM   28  N5  UNL     1     -17.375   6.014  21.953  1.00  0.00    -0.189 N 
HETATM   29  C23 UNL     1     -18.464   5.154  22.162  1.00  0.00     0.089 A 
HETATM   30  C24 UNL     1     -18.378   3.934  22.856  1.00  0.00     0.063 A 
HETATM   31  C25 UNL     1     -19.493   3.092  23.041  1.00  0.00     0.039 A 
HETATM   32  C26 UNL     1     -20.728   3.523  22.533  1.00  0.00     0.033 A 
HETATM   33  C27 UNL     1     -20.847   4.742  21.866  1.00  0.00     0.047 A 
HETATM   34  C28 UNL     1     -19.724   5.540  21.690  1.00  0.00     0.143 A 
HETATM   35  F1  UNL     1     -19.855   6.706  21.037  1.00  0.00    -0.204 F 
HETATM   36  H25 UNL     1     -17.505   6.720  21.241  1.00  0.00     0.184 HD
ENDROOT
BRANCH   1  37
HETATM   37  C2  UNL     1     -20.009  -0.513  24.158  1.00  0.00     0.064 C 
HETATM   38  C1  UNL     1     -19.810  -1.678  23.526  1.00  0.00     0.017 C 
ENDBRANCH   1  37
TORSDOF 1
ENDMDL
MODEL 8
REMARK minimizedAffinity -7.57890129
REMARK CNNscore 0.169104025
REMARK CNNaffinity 5.93939447
REMARK  1 active torsions:
REMARK  status: ('A' for Active; 'I' for Inactive)
REMARK    1  A    between atoms: C2_2  and  C3_3 
REMARK       I    between atoms: C3_3  and  N1_5 
ROOT
HETATM    1  C3  UNL     1     -13.114  -9.006  29.678  1.00  0.00     0.247 C 
HETATM    2  O1  UNL     1     -13.220  -8.988  30.903  1.00  0.00    -0.268 OA
HETATM    3  N1  UNL     1     -12.964 -10.152  28.875  1.00  0.00    -0.315 N 
HETATM    4  C4  UNL     1     -13.010 -10.076  27.395  1.00  0.00     0.132 C 
HETATM    5  C5  UNL     1     -14.460  -9.994  26.895  1.00  0.00     0.020 C 
HETATM    6  C6  UNL     1     -14.610  -9.304  25.536  1.00  0.00     0.002 C 
HETATM    7  C7  UNL     1     -13.869  -9.950  24.363  1.00  0.00     0.000 C 
HETATM    8  C8  UNL     1     -14.275 -11.404  24.125  1.00  0.00     0.002 C 
HETATM    9  C9  UNL     1     -13.867 -11.954  22.751  1.00  0.00     0.020 C 
HETATM   10  C10 UNL     1     -12.420 -11.707  22.309  1.00  0.00     0.128 C 
HETATM   11  N2  UNL     1     -11.354 -12.252  23.133  1.00  0.00    -0.355 N 
HETATM   12  C11 UNL     1     -11.472 -13.261  24.048  1.00  0.00     0.106 A 
HETATM   13  C12 UNL     1     -10.246 -13.450  24.652  1.00  0.00     0.019 A 
HETATM   14  C13 UNL     1      -9.321 -12.563  24.029  1.00  0.00     0.005 A 
HETATM   15  C14 UNL     1      -7.945 -12.300  24.200  1.00  0.00     0.014 A 
HETATM   16  C15 UNL     1      -7.320 -11.338  23.401  1.00  0.00     0.001 A 
HETATM   17  C16 UNL     1      -8.044 -10.636  22.444  1.00  0.00     0.002 A 
HETATM   18  C17 UNL     1      -9.411 -10.866  22.262  1.00  0.00     0.030 A 
HETATM   19  C18 UNL     1     -10.034 -11.832  23.071  1.00  0.00     0.045 A 
HETATM   20  C19 UNL     1     -10.065 -14.399  25.730  1.00  0.00     0.063 A 
HETATM   21  C20 UNL     1      -9.175 -15.440  25.627  1.00  0.00     0.048 A 
HETATM   22  C21 UNL     1      -9.149 -16.281  26.709  1.00  0.00     0.108 A 
HETATM   23  N3  UNL     1      -9.917 -16.112  27.803  1.00  0.00    -0.202 N 
ATOM     24  H3  UNL     1      -9.877 -16.767  28.585  1.00  0.00     0.183 HD
HETATM   25  C22 UNL     1     -10.735 -15.049  27.825  1.00  0.00     0.683 A 
HETATM   26  N4  UNL     1     -10.845 -14.191  26.808  1.00  0.00    -0.191 N 
ATOM     27  H4  UNL     1     -11.495 -13.406  26.845  1.00  0.00     0.184 HD
HETATM   28  N5  UNL     1     -11.499 -14.889  28.975  1.00  0.00    -0.189 N 
HETATM   29  C23 UNL     1     -12.232 -13.811  29.494  1.00  0.00     0.089 A 
HETATM   30  C24 UNL     1     -12.257 -12.529  28.916  1.00  0.00     0.063 A 
HETATM   31  C25 UNL     1     -13.001 -11.468  29.469  1.00  0.00     0.039 A 
HETATM   32  C26 UNL     1     -13.759 -11.733  30.620  1.00  0.00     0.033 A 
HETATM   33  C27 UNL     1     -13.775 -13.003  31.197  1.00  0.00     0.047 A 
HETATM   34  C28 UNL     1     -13.019 -14.021  30.632  1.00  0.00     0.143 A 
HETATM   35  F1  UNL     1     -13.038 -15.235  31.206  1.00  0.00    -0.204 F 
HETATM   36  H25 UNL     1     -11.363 -15.670  29.603  1.00  0.00     0.184 HD
ENDROOT
BRANCH   1  37
HETATM   37  C2  UNL     1     -13.116  -7.693  28.971  1.00  0.00     0.064 C 
HETATM   38  C1  UNL     1     -13.084  -6.554  29.675  1.00  0.00     0.017 C 
ENDBRANCH   1  37
TORSDOF 1
ENDMDL
MODEL 9
REMARK minimizedAffinity -6.44015217
REMARK CNNscore 0.162384599
REMARK CNNaffinity 5.41467524
REMARK  1 active torsions:
REMARK  status: ('A' for Active; 'I' for Inactive)
REMARK    1  A    between atoms: C2_2  and  C3_3 
REMARK       I    between atoms: C3_3  and  N1_5 
ROOT
HETATM    1  C3  UNL     1     -11.174  10.050  16.812  1.00  0.00     0.247 C 
HETATM    2  O1  UNL     1     -10.123  10.554  16.419  1.00  0.00    -0.268 OA
HETATM    3  N1  UNL     1     -11.717  10.164  18.104  1.00  0.00    -0.315 N 
HETATM    4  C4  UNL     1     -13.071   9.654  18.427  1.00  0.00     0.132 C 
HETATM    5  C5  UNL     1     -14.154  10.634  17.953  1.00  0.00     0.020 C 
HETATM    6  C6  UNL     1     -15.504   9.974  17.659  1.00  0.00     0.002 C 
HETATM    7  C7  UNL     1     -16.173   9.249  18.829  1.00  0.00     0.000 C 
HETATM    8  C8  UNL     1     -16.421  10.155  20.033  1.00  0.00     0.002 C 
HETATM    9  C9  UNL     1     -17.423   9.591  21.051  1.00  0.00     0.020 C 
HETATM   10  C10 UNL     1     -17.217   8.136  21.490  1.00  0.00     0.128 C 
HETATM   11  N2  UNL     1     -15.965   7.793  22.142  1.00  0.00    -0.355 N 
HETATM   12  C11 UNL     1     -15.098   8.663  22.741  1.00  0.00     0.106 A 
HETATM   13  C12 UNL     1     -14.008   7.951  23.198  1.00  0.00     0.019 A 
HETATM   14  C13 UNL     1     -14.252   6.574  22.926  1.00  0.00     0.005 A 
HETATM   15  C14 UNL     1     -13.530   5.384  23.155  1.00  0.00     0.014 A 
HETATM   16  C15 UNL     1     -14.069   4.158  22.754  1.00  0.00     0.001 A 
HETATM   17  C16 UNL     1     -15.308   4.104  22.125  1.00  0.00     0.002 A 
HETATM   18  C17 UNL     1     -16.039   5.267  21.872  1.00  0.00     0.030 A 
HETATM   19  C18 UNL     1     -15.491   6.497  22.275  1.00  0.00     0.045 A 
HETATM   20  C19 UNL     1     -12.871   8.605  23.812  1.00  0.00     0.063 A 
HETATM   21  C20 UNL     1     -12.478   8.308  25.093  1.00  0.00     0.048 A 
HETATM   22  C21 UNL     1     -11.416   9.042  25.551  1.00  0.00     0.108 A 
HETATM   23  N3  UNL     1     -10.782   9.977  24.816  1.00  0.00    -0.202 N 
ATOM     24  H3  UNL     1     -10.002  10.512  25.197  1.00  0.00     0.183 HD
HETATM   25  C22 UNL     1     -11.220  10.178  23.563  1.00  0.00     0.683 A 
HETATM   26  N4  UNL     1     -12.262   9.527  23.041  1.00  0.00    -0.191 N 
ATOM     27  H4  UNL     1     -12.586   9.720  22.093  1.00  0.00     0.184 HD
HETATM   28  N5  UNL     1     -10.535  11.133  22.823  1.00  0.00    -0.189 N 
HETATM   29  C23 UNL     1     -10.492  11.429  21.452  1.00  0.00     0.089 A 
HETATM   30  C24 UNL     1     -11.144  10.671  20.464  1.00  0.00     0.063 A 
HETATM   31  C25 UNL     1     -11.073  10.995  19.094  1.00  0.00     0.039 A 
HETATM   32  C26 UNL     1     -10.344  12.138  18.732  1.00  0.00     0.033 A 
HETATM   33  C27 UNL     1      -9.710  12.924  19.694  1.00  0.00     0.047 A 
HETATM   34  C28 UNL     1      -9.791  12.567  21.033  1.00  0.00     0.143 A 
HETATM   35  F1  UNL     1      -9.167  13.330  21.945  1.00  0.00    -0.204 F 
HETATM   36  H25 UNL     1      -9.837  11.592  23.392  1.00  0.00     0.184 HD
ENDROOT
BRANCH   1  37
HETATM   37  C2  UNL     1     -11.935   9.213  15.840  1.00  0.00     0.064 C 
HETATM   38  C1  UNL     1     -11.315   8.698  14.770  1.00  0.00     0.017 C 
ENDBRANCH   1  37
TORSDOF 1
ENDMDL
