MODEL 1
REMARK minimizedAffinity -6.82643175
REMARK  2 active torsions:
REMARK  status: ('A' for Active; 'I' for Inactive)
REMARK    1  A    between atoms: C6_6  and  N1_7 
REMARK    2  A    between atoms: N1_7  and  C7_8 
ROOT
HETATM    1  C7  UNL     1      10.731  35.151  17.857  1.00  0.00     0.121 A 
HETATM    2  N2  UNL     1       9.865  35.763  17.006  1.00  0.00    -0.338 N 
ATOM      3  H2  UNL     1      10.121  35.905  16.029  1.00  0.00     0.168 HD
HETATM    4  C8  UNL     1       8.669  36.179  17.457  1.00  0.00     0.183 A 
HETATM    5  N3  UNL     1       8.176  36.075  18.697  1.00  0.00    -0.338 N 
ATOM      6  H3  UNL     1       7.256  36.411  18.982  1.00  0.00     0.168 HD
HETATM    7  C9  UNL     1       9.047  35.470  19.514  1.00  0.00     0.121 A 
HETATM    8  N4  UNL     1       8.806  35.232  20.835  1.00  0.00    -0.345 N 
HETATM    9  C10 UNL     1       9.881  34.602  21.408  1.00  0.00     0.014 A 
HETATM   10  C11 UNL     1       9.880  34.227  22.846  1.00  0.00     0.068 C 
HETATM   11  C12 UNL     1      10.845  34.432  20.421  1.00  0.00    -0.022 A 
HETATM   12  C13 UNL     1      12.176  33.793  20.608  1.00  0.00     0.051 C 
HETATM   13  C14 UNL     1      10.309  34.989  19.201  1.00  0.00     0.060 A 
HETATM   14  H9  UNL     1       7.947  35.494  21.298  1.00  0.00     0.167 HD
ENDROOT
BRANCH   1  15
HETATM   15  N1  UNL     1      11.984  34.697  17.417  1.00  0.00    -0.342 N 
HETATM   16  H7  UNL     1      11.987  33.716  17.191  1.00  0.00     0.167 HD
BRANCH  15  17
HETATM   17  C6  UNL     1      13.224  35.329  17.219  1.00  0.00     0.034 A 
HETATM   18  C5  UNL     1      14.382  34.682  17.684  1.00  0.00     0.029 A 
HETATM   19  C4  UNL     1      15.648  35.251  17.525  1.00  0.00     0.003 A 
HETATM   20  C3  UNL     1      15.784  36.482  16.891  1.00  0.00     0.007 A 
HETATM   21  C2  UNL     1      14.654  37.144  16.403  1.00  0.00    -0.060 A 
HETATM   22  C1  UNL     1      14.780  38.487  15.746  1.00  0.00     0.048 C 
HETATM   23  C15 UNL     1      13.384  36.565  16.584  1.00  0.00     0.036 A 
ENDBRANCH  15  17
ENDBRANCH   1  15
TORSDOF 2
ENDMDL
MODEL 2
REMARK minimizedAffinity -6.70123672
REMARK  2 active torsions:
REMARK  status: ('A' for Active; 'I' for Inactive)
REMARK    1  A    between atoms: C6_6  and  N1_7 
REMARK    2  A    between atoms: N1_7  and  C7_8 
ROOT
HETATM    1  C7  UNL     1      12.887  35.377  17.439  1.00  0.00     0.121 A 
HETATM    2  N2  UNL     1      12.252  36.054  16.445  1.00  0.00    -0.338 N 
ATOM      3  H2  UNL     1      11.233  36.109  16.433  1.00  0.00     0.168 HD
HETATM    4  C8  UNL     1      12.971  36.650  15.479  1.00  0.00     0.183 A 
HETATM    5  N3  UNL     1      14.303  36.677  15.342  1.00  0.00    -0.338 N 
ATOM      6  H3  UNL     1      14.795  37.148  14.584  1.00  0.00     0.168 HD
HETATM    7  C9  UNL     1      14.904  36.003  16.331  1.00  0.00     0.121 A 
HETATM    8  N4  UNL     1      16.256  35.867  16.441  1.00  0.00    -0.345 N 
HETATM    9  C10 UNL     1      16.570  35.126  17.553  1.00  0.00     0.014 A 
HETATM   10  C11 UNL     1      17.981  34.826  17.908  1.00  0.00     0.068 C 
HETATM   11  C12 UNL     1      15.377  34.775  18.175  1.00  0.00    -0.022 A 
HETATM   12  C13 UNL     1      15.252  33.964  19.417  1.00  0.00     0.051 C 
HETATM   13  C14 UNL     1      14.304  35.339  17.391  1.00  0.00     0.060 A 
HETATM   14  H9  UNL     1      16.909  36.266  15.783  1.00  0.00     0.167 HD
ENDROOT
BRANCH   1  15
HETATM   15  N1  UNL     1      12.167  34.750  18.467  1.00  0.00    -0.342 N 
HETATM   16  H7  UNL     1      12.684  34.009  18.911  1.00  0.00     0.167 HD
BRANCH  15  17
HETATM   17  C6  UNL     1      10.884  34.950  19.007  1.00  0.00     0.034 A 
HETATM   18  C5  UNL     1      10.524  34.219  20.152  1.00  0.00     0.029 A 
HETATM   19  C4  UNL     1       9.266  34.363  20.742  1.00  0.00     0.003 A 
HETATM   20  C3  UNL     1       8.340  35.249  20.200  1.00  0.00     0.007 A 
HETATM   21  C2  UNL     1       8.673  36.002  19.071  1.00  0.00    -0.060 A 
HETATM   22  C1  UNL     1       7.674  36.937  18.456  1.00  0.00     0.048 C 
HETATM   23  C15 UNL     1       9.938  35.835  18.480  1.00  0.00     0.036 A 
ENDBRANCH  15  17
ENDBRANCH   1  15
TORSDOF 2
ENDMDL
MODEL 3
REMARK minimizedAffinity -6.68533468
REMARK  2 active torsions:
REMARK  status: ('A' for Active; 'I' for Inactive)
REMARK    1  A    between atoms: C6_6  and  N1_7 
REMARK    2  A    between atoms: N1_7  and  C7_8 
ROOT
HETATM    1  C7  UNL     1      10.895  34.730  18.892  1.00  0.00     0.121 A 
HETATM    2  N2  UNL     1      10.811  35.184  17.612  1.00  0.00    -0.338 N 
ATOM      3  H2  UNL     1      11.531  34.937  16.934  1.00  0.00     0.168 HD
HETATM    4  C8  UNL     1       9.776  35.959  17.246  1.00  0.00     0.183 A 
HETATM    5  N3  UNL     1       8.752  36.376  18.002  1.00  0.00    -0.338 N 
ATOM      6  H3  UNL     1       7.991  36.966  17.667  1.00  0.00     0.168 HD
HETATM    7  C9  UNL     1       8.859  35.917  19.255  1.00  0.00     0.121 A 
HETATM    8  N4  UNL     1       7.954  36.187  20.239  1.00  0.00    -0.345 N 
HETATM    9  C10 UNL     1       8.332  35.582  21.411  1.00  0.00     0.014 A 
HETATM   10  C11 UNL     1       7.519  35.716  22.647  1.00  0.00     0.068 C 
HETATM   11  C12 UNL     1       9.520  34.901  21.170  1.00  0.00    -0.022 A 
HETATM   12  C13 UNL     1      10.285  34.107  22.169  1.00  0.00     0.051 C 
HETATM   13  C14 UNL     1       9.860  35.114  19.782  1.00  0.00     0.060 A 
HETATM   14  H9  UNL     1       7.132  36.756  20.096  1.00  0.00     0.167 HD
ENDROOT
BRANCH   1  15
HETATM   15  N1  UNL     1      11.958  33.913  19.305  1.00  0.00    -0.342 N 
HETATM   16  H7  UNL     1      11.670  32.970  19.509  1.00  0.00     0.167 HD
BRANCH  15  17
HETATM   17  C6  UNL     1      13.334  34.137  19.483  1.00  0.00     0.034 A 
HETATM   18  C5  UNL     1      13.806  34.377  20.785  1.00  0.00     0.029 A 
HETATM   19  C4  UNL     1      15.160  34.611  21.038  1.00  0.00     0.003 A 
HETATM   20  C3  UNL     1      16.075  34.604  19.989  1.00  0.00     0.007 A 
HETATM   21  C2  UNL     1      15.641  34.352  18.685  1.00  0.00    -0.060 A 
HETATM   22  C1  UNL     1      16.610  34.374  17.541  1.00  0.00     0.048 C 
HETATM   23  C15 UNL     1      14.272  34.134  18.446  1.00  0.00     0.036 A 
ENDBRANCH  15  17
ENDBRANCH   1  15
TORSDOF 2
ENDMDL
MODEL 4
REMARK minimizedAffinity -6.64951754
REMARK  2 active torsions:
REMARK  status: ('A' for Active; 'I' for Inactive)
REMARK    1  A    between atoms: C6_6  and  N1_7 
REMARK    2  A    between atoms: N1_7  and  C7_8 
ROOT
HETATM    1  C7  UNL     1      12.127  35.464  17.393  1.00  0.00     0.121 A 
HETATM    2  N2  UNL     1      11.838  36.067  16.209  1.00  0.00    -0.338 N 
ATOM      3  H2  UNL     1      10.877  36.089  15.867  1.00  0.00     0.168 HD
HETATM    4  C8  UNL     1      12.823  36.634  15.492  1.00  0.00     0.183 A 
HETATM    5  N3  UNL     1      14.127  36.696  15.789  1.00  0.00    -0.338 N 
ATOM      6  H3  UNL     1      14.831  37.142  15.202  1.00  0.00     0.168 HD
HETATM    7  C9  UNL     1      14.385  36.095  16.957  1.00  0.00     0.121 A 
HETATM    8  N4  UNL     1      15.631  36.008  17.505  1.00  0.00    -0.345 N 
HETATM    9  C10 UNL     1      15.579  35.337  18.700  1.00  0.00     0.014 A 
HETATM   10  C11 UNL     1      16.803  35.101  19.508  1.00  0.00     0.068 C 
HETATM   11  C12 UNL     1      14.253  34.981  18.926  1.00  0.00    -0.022 A 
HETATM   12  C13 UNL     1      13.744  34.234  20.109  1.00  0.00     0.051 C 
HETATM   13  C14 UNL     1      13.484  35.469  17.806  1.00  0.00     0.060 A 
HETATM   14  H9  UNL     1      16.457  36.392  17.068  1.00  0.00     0.167 HD
ENDROOT
BRANCH   1  15
HETATM   15  N1  UNL     1      11.122  34.870  18.171  1.00  0.00    -0.342 N 
HETATM   16  H7  UNL     1      11.316  33.907  18.393  1.00  0.00     0.167 HD
BRANCH  15  17
HETATM   17  C6  UNL     1       9.912  35.343  18.710  1.00  0.00     0.034 A 
HETATM   18  C5  UNL     1       9.116  36.187  17.916  1.00  0.00     0.029 A 
HETATM   19  C4  UNL     1       7.904  36.699  18.385  1.00  0.00     0.003 A 
HETATM   20  C3  UNL     1       7.458  36.371  19.662  1.00  0.00     0.007 A 
HETATM   21  C2  UNL     1       8.218  35.522  20.470  1.00  0.00    -0.060 A 
HETATM   22  C1  UNL     1       7.766  35.186  21.861  1.00  0.00     0.048 C 
HETATM   23  C15 UNL     1       9.444  35.027  19.989  1.00  0.00     0.036 A 
ENDBRANCH  15  17
ENDBRANCH   1  15
TORSDOF 2
ENDMDL
MODEL 5
REMARK minimizedAffinity -6.54236841
REMARK  2 active torsions:
REMARK  status: ('A' for Active; 'I' for Inactive)
REMARK    1  A    between atoms: C6_6  and  N1_7 
REMARK    2  A    between atoms: N1_7  and  C7_8 
ROOT
HETATM    1  C7  UNL     1       9.939  36.497  19.587  1.00  0.00     0.121 A 
HETATM    2  N2  UNL     1       9.199  36.940  18.536  1.00  0.00    -0.338 N 
ATOM      3  H2  UNL     1       9.657  37.370  17.733  1.00  0.00     0.168 HD
HETATM    4  C8  UNL     1       7.862  36.808  18.558  1.00  0.00     0.183 A 
HETATM    5  N3  UNL     1       7.104  36.272  19.524  1.00  0.00    -0.338 N 
ATOM      6  H3  UNL     1       6.088  36.199  19.485  1.00  0.00     0.168 HD
HETATM    7  C9  UNL     1       7.855  35.846  20.547  1.00  0.00     0.121 A 
HETATM    8  N4  UNL     1       7.345  35.258  21.666  1.00  0.00    -0.345 N 
HETATM    9  C10 UNL     1       8.356  34.931  22.534  1.00  0.00     0.014 A 
HETATM   10  C11 UNL     1       8.074  34.277  23.838  1.00  0.00     0.068 C 
HETATM   11  C12 UNL     1       9.555  35.324  21.950  1.00  0.00    -0.022 A 
HETATM   12  C13 UNL     1      10.908  35.161  22.550  1.00  0.00     0.051 C 
HETATM   13  C14 UNL     1       9.235  35.911  20.671  1.00  0.00     0.060 A 
HETATM   14  H9  UNL     1       6.357  35.099  21.809  1.00  0.00     0.167 HD
ENDROOT
BRANCH   1  15
HETATM   15  N1  UNL     1      11.337  36.612  19.593  1.00  0.00    -0.342 N 
HETATM   16  H7  UNL     1      11.656  37.497  19.951  1.00  0.00     0.167 HD
BRANCH  15  17
HETATM   17  C6  UNL     1      12.377  35.745  19.213  1.00  0.00     0.034 A 
HETATM   18  C5  UNL     1      12.192  34.944  18.073  1.00  0.00     0.029 A 
HETATM   19  C4  UNL     1      13.180  34.057  17.638  1.00  0.00     0.003 A 
HETATM   20  C3  UNL     1      14.381  33.957  18.333  1.00  0.00     0.007 A 
HETATM   21  C2  UNL     1      14.602  34.751  19.462  1.00  0.00    -0.060 A 
HETATM   22  C1  UNL     1      15.878  34.630  20.241  1.00  0.00     0.048 C 
HETATM   23  C15 UNL     1      13.592  35.628  19.896  1.00  0.00     0.036 A 
ENDBRANCH  15  17
ENDBRANCH   1  15
TORSDOF 2
ENDMDL
MODEL 6
REMARK minimizedAffinity -6.31252337
REMARK  2 active torsions:
REMARK  status: ('A' for Active; 'I' for Inactive)
REMARK    1  A    between atoms: C6_6  and  N1_7 
REMARK    2  A    between atoms: N1_7  and  C7_8 
ROOT
HETATM    1  C7  UNL     1      13.405  35.454  19.090  1.00  0.00     0.121 A 
HETATM    2  N2  UNL     1      13.769  34.806  20.229  1.00  0.00    -0.338 N 
ATOM      3  H2  UNL     1      13.163  34.834  21.049  1.00  0.00     0.168 HD
HETATM    4  C8  UNL     1      14.930  34.131  20.269  1.00  0.00     0.183 A 
HETATM    5  N3  UNL     1      15.837  33.994  19.294  1.00  0.00    -0.338 N 
ATOM      6  H3  UNL     1      16.704  33.466  19.384  1.00  0.00     0.168 HD
HETATM    7  C9  UNL     1      15.456  34.640  18.185  1.00  0.00     0.121 A 
HETATM    8  N4  UNL     1      16.189  34.669  17.036  1.00  0.00    -0.345 N 
HETATM    9  C10 UNL     1      15.543  35.409  16.079  1.00  0.00     0.014 A 
HETATM   10  C11 UNL     1      16.128  35.603  14.727  1.00  0.00     0.068 C 
HETATM   11  C12 UNL     1      14.355  35.871  16.634  1.00  0.00    -0.022 A 
HETATM   12  C13 UNL     1      13.345  36.719  15.943  1.00  0.00     0.051 C 
HETATM   13  C14 UNL     1      14.296  35.376  17.989  1.00  0.00     0.060 A 
HETATM   14  H9  UNL     1      17.079  34.203  16.934  1.00  0.00     0.167 HD
ENDROOT
BRANCH   1  15
HETATM   15  N1  UNL     1      12.196  36.162  19.010  1.00  0.00    -0.342 N 
HETATM   16  H7  UNL     1      12.312  37.096  18.652  1.00  0.00     0.167 HD
BRANCH  15  17
HETATM   17  C6  UNL     1      10.863  35.833  19.315  1.00  0.00     0.034 A 
HETATM   18  C5  UNL     1      10.628  34.761  20.194  1.00  0.00     0.029 A 
HETATM   19  C4  UNL     1       9.331  34.374  20.540  1.00  0.00     0.003 A 
HETATM   20  C3  UNL     1       8.238  35.058  20.017  1.00  0.00     0.007 A 
HETATM   21  C2  UNL     1       8.438  36.138  19.154  1.00  0.00    -0.060 A 
HETATM   22  C1  UNL     1       7.269  36.863  18.556  1.00  0.00     0.048 C 
HETATM   23  C15 UNL     1       9.750  36.505  18.802  1.00  0.00     0.036 A 
ENDBRANCH  15  17
ENDBRANCH   1  15
TORSDOF 2
ENDMDL
MODEL 7
REMARK minimizedAffinity -6.29011965
REMARK  2 active torsions:
REMARK  status: ('A' for Active; 'I' for Inactive)
REMARK    1  A    between atoms: C6_6  and  N1_7 
REMARK    2  A    between atoms: N1_7  and  C7_8 
ROOT
HETATM    1  C7  UNL     1       1.622  65.217  -3.513  1.00  0.00     0.121 A 
HETATM    2  N2  UNL     1       1.420  63.899  -3.780  1.00  0.00    -0.338 N 
ATOM      3  H2  UNL     1       1.821  63.479  -4.619  1.00  0.00     0.168 HD
HETATM    4  C8  UNL     1       0.690  63.152  -2.934  1.00  0.00     0.183 A 
HETATM    5  N3  UNL     1       0.096  63.538  -1.798  1.00  0.00    -0.338 N 
ATOM      6  H3  UNL     1      -0.448  62.922  -1.195  1.00  0.00     0.168 HD
HETATM    7  C9  UNL     1       0.309  64.838  -1.559  1.00  0.00     0.121 A 
HETATM    8  N4  UNL     1      -0.181  65.497  -0.470  1.00  0.00    -0.345 N 
HETATM    9  C10 UNL     1       0.203  66.814  -0.501  1.00  0.00     0.014 A 
HETATM   10  C11 UNL     1      -0.199  67.760   0.572  1.00  0.00     0.068 C 
HETATM   11  C12 UNL     1       0.963  67.005  -1.649  1.00  0.00    -0.022 A 
HETATM   12  C13 UNL     1       1.580  68.290  -2.078  1.00  0.00     0.051 C 
HETATM   13  C14 UNL     1       1.034  65.734  -2.330  1.00  0.00     0.060 A 
HETATM   14  H9  UNL     1      -0.743  65.052   0.241  1.00  0.00     0.167 HD
ENDROOT
BRANCH   1  15
HETATM   15  N1  UNL     1       2.386  66.024  -4.370  1.00  0.00    -0.342 N 
HETATM   16  H7  UNL     1       2.033  66.964  -4.440  1.00  0.00     0.167 HD
BRANCH  15  17
HETATM   17  C6  UNL     1       3.541  65.793  -5.137  1.00  0.00     0.034 A 
HETATM   18  C5  UNL     1       3.591  66.319  -6.439  1.00  0.00     0.029 A 
HETATM   19  C4  UNL     1       4.704  66.127  -7.261  1.00  0.00     0.003 A 
HETATM   20  C3  UNL     1       5.798  65.406  -6.794  1.00  0.00     0.007 A 
HETATM   21  C2  UNL     1       5.787  64.883  -5.498  1.00  0.00    -0.060 A 
HETATM   22  C1  UNL     1       6.946  64.075  -4.992  1.00  0.00     0.048 C 
HETATM   23  C15 UNL     1       4.652  65.072  -4.688  1.00  0.00     0.036 A 
ENDBRANCH  15  17
ENDBRANCH   1  15
TORSDOF 2
ENDMDL
MODEL 8
REMARK minimizedAffinity -6.24423742
REMARK  2 active torsions:
REMARK  status: ('A' for Active; 'I' for Inactive)
REMARK    1  A    between atoms: C6_6  and  N1_7 
REMARK    2  A    between atoms: N1_7  and  C7_8 
ROOT
HETATM    1  C7  UNL     1      11.804  34.509  18.817  1.00  0.00     0.121 A 
HETATM    2  N2  UNL     1      12.578  33.889  19.748  1.00  0.00    -0.338 N 
ATOM      3  H2  UNL     1      13.528  33.601  19.513  1.00  0.00     0.168 HD
HETATM    4  C8  UNL     1      12.086  33.657  20.977  1.00  0.00     0.183 A 
HETATM    5  N3  UNL     1      10.872  33.965  21.449  1.00  0.00    -0.338 N 
ATOM      6  H3  UNL     1      10.553  33.763  22.396  1.00  0.00     0.168 HD
HETATM    7  C9  UNL     1      10.130  34.573  20.514  1.00  0.00     0.121 A 
HETATM    8  N4  UNL     1       8.851  34.996  20.721  1.00  0.00    -0.345 N 
HETATM    9  C10 UNL     1       8.353  35.579  19.583  1.00  0.00     0.014 A 
HETATM   10  C11 UNL     1       6.973  36.127  19.535  1.00  0.00     0.068 C 
HETATM   11  C12 UNL     1       9.348  35.525  18.613  1.00  0.00    -0.022 A 
HETATM   12  C13 UNL     1       9.234  36.042  17.222  1.00  0.00     0.051 C 
HETATM   13  C14 UNL     1      10.493  34.879  19.211  1.00  0.00     0.060 A 
HETATM   14  H9  UNL     1       8.364  34.884  21.599  1.00  0.00     0.167 HD
ENDROOT
BRANCH   1  15
HETATM   15  N1  UNL     1      12.289  34.773  17.527  1.00  0.00    -0.342 N 
HETATM   16  H7  UNL     1      11.672  34.446  16.802  1.00  0.00     0.167 HD
BRANCH  15  17
HETATM   17  C6  UNL     1      13.447  35.408  17.043  1.00  0.00     0.034 A 
HETATM   18  C5  UNL     1      13.312  36.674  16.449  1.00  0.00     0.029 A 
HETATM   19  C4  UNL     1      14.417  37.363  15.943  1.00  0.00     0.003 A 
HETATM   20  C3  UNL     1      15.686  36.799  16.026  1.00  0.00     0.007 A 
HETATM   21  C2  UNL     1      15.857  35.548  16.625  1.00  0.00    -0.060 A 
HETATM   22  C1  UNL     1      17.214  34.913  16.692  1.00  0.00     0.048 C 
HETATM   23  C15 UNL     1      14.731  34.861  17.116  1.00  0.00     0.036 A 
ENDBRANCH  15  17
ENDBRANCH   1  15
TORSDOF 2
ENDMDL
MODEL 9
REMARK minimizedAffinity -6.2423358
REMARK  2 active torsions:
REMARK  status: ('A' for Active; 'I' for Inactive)
REMARK    1  A    between atoms: C6_6  and  N1_7 
REMARK    2  A    between atoms: N1_7  and  C7_8 
ROOT
HETATM    1  C7  UNL     1      17.221  50.507   5.440  1.00  0.00     0.121 A 
HETATM    2  N2  UNL     1      16.825  49.722   4.403  1.00  0.00    -0.338 N 
ATOM      3  H2  UNL     1      15.976  49.948   3.885  1.00  0.00     0.168 HD
HETATM    4  C8  UNL     1      17.556  48.647   4.063  1.00  0.00     0.183 A 
HETATM    5  N3  UNL     1      18.686  48.207   4.631  1.00  0.00    -0.338 N 
ATOM      6  H3  UNL     1      19.200  47.380   4.328  1.00  0.00     0.168 HD
HETATM    7  C9  UNL     1      19.054  48.996   5.648  1.00  0.00     0.121 A 
HETATM    8  N4  UNL     1      20.168  48.783   6.406  1.00  0.00    -0.345 N 
HETATM    9  C10 UNL     1      20.279  49.754   7.369  1.00  0.00     0.014 A 
HETATM   10  C11 UNL     1      21.408  49.758   8.335  1.00  0.00     0.068 C 
HETATM   11  C12 UNL     1      19.198  50.617   7.225  1.00  0.00    -0.022 A 
HETATM   12  C13 UNL     1      18.922  51.812   8.068  1.00  0.00     0.051 C 
HETATM   13  C14 UNL     1      18.410  50.131   6.117  1.00  0.00     0.060 A 
HETATM   14  H9  UNL     1      20.802  48.012   6.255  1.00  0.00     0.167 HD
ENDROOT
BRANCH   1  15
HETATM   15  N1  UNL     1      16.486  51.641   5.816  1.00  0.00    -0.342 N 
HETATM   16  H7  UNL     1      15.978  51.511   6.676  1.00  0.00     0.167 HD
BRANCH  15  17
HETATM   17  C6  UNL     1      16.323  52.917   5.248  1.00  0.00     0.034 A 
HETATM   18  C5  UNL     1      17.476  53.646   4.909  1.00  0.00     0.029 A 
HETATM   19  C4  UNL     1      17.392  54.921   4.344  1.00  0.00     0.003 A 
HETATM   20  C3  UNL     1      16.147  55.494   4.100  1.00  0.00     0.007 A 
HETATM   21  C2  UNL     1      14.981  54.788   4.411  1.00  0.00    -0.060 A 
HETATM   22  C1  UNL     1      13.633  55.406   4.185  1.00  0.00     0.048 C 
HETATM   23  C15 UNL     1      15.083  53.512   4.994  1.00  0.00     0.036 A 
ENDBRANCH  15  17
ENDBRANCH   1  15
TORSDOF 2
ENDMDL
