MODEL 1
REMARK minimizedAffinity -11.8226624
REMARK CNNscore 0.179012626
REMARK CNNaffinity 7.56793976
REMARK  2 active torsions:
REMARK  status: ('A' for Active; 'I' for Inactive)
REMARK    1  A    between atoms: C22_33  and  C23_34 
REMARK    2  A    between atoms: C23_34  and  N7_35 
ROOT
HETATM    1  C1  UNL     1      -6.266   0.942  10.876  1.00  0.00     0.068 C 
HETATM    2  C2  UNL     1      -5.635   2.119  11.558  1.00  0.00     0.006 A 
HETATM    3  C3  UNL     1      -4.256   2.256  11.586  1.00  0.00     0.041 A 
HETATM    4  C4  UNL     1      -3.717   3.364  12.234  1.00  0.00     0.036 A 
HETATM    5  C5  UNL     1      -4.564   4.290  12.846  1.00  0.00     0.047 A 
HETATM    6  C6  UNL     1      -5.933   4.105  12.754  1.00  0.00     0.049 A 
HETATM    7  N1  UNL     1      -6.467   3.030  12.119  1.00  0.00    -0.359 N 
ATOM      8  H1  UNL     1      -7.479   2.909  12.066  1.00  0.00     0.166 HD
HETATM    9  C7  UNL     1      -6.909   5.050  13.278  1.00  0.00     0.060 A 
HETATM   10  C8  UNL     1      -8.315   5.024  13.100  1.00  0.00     0.125 A 
HETATM   11  N2  UNL     1      -8.944   6.031  13.712  1.00  0.00    -0.307 N 
ATOM     12  H2  UNL     1      -9.941   6.248  13.714  1.00  0.00     0.186 HD
HETATM   13  N3  UNL     1      -7.943   6.689  14.325  1.00  0.00    -0.275 N 
HETATM   14  C9  UNL     1      -8.260   7.823  15.156  1.00  0.00     0.180 C 
HETATM   15  C10 UNL     1      -6.694   6.180  14.052  1.00  0.00     0.173 A 
HETATM   16  O1  UNL     1      -5.597   6.726  14.584  1.00  0.00    -0.334 OA
HETATM   17  C11 UNL     1      -4.980   7.729  13.766  1.00  0.00     0.177 C 
HETATM   18  C12 UNL     1      -3.741   8.218  14.516  1.00  0.00     0.027 C 
HETATM   19  C13 UNL     1      -2.811   9.086  13.662  1.00  0.00     0.008 C 
HETATM   20  C14 UNL     1      -1.928   8.289  12.672  1.00  0.00     0.001 C 
HETATM   21  C15 UNL     1      -1.330   9.258  11.641  1.00  0.00     0.011 C 
HETATM   22  C16 UNL     1      -0.809   7.513  13.407  1.00  0.00     0.152 C 
HETATM   23  N4  UNL     1      -0.186   6.534  12.541  1.00  0.00    -0.180 N 
HETATM   24  C17 UNL     1      -0.718   5.280  12.203  1.00  0.00     0.688 A 
HETATM   25  N5  UNL     1      -1.833   4.812  12.661  1.00  0.00    -0.155 N 
ATOM     26  H5  UNL     1      -2.393   5.348  13.324  1.00  0.00     0.187 HD
HETATM   27  C18 UNL     1      -2.241   3.574  12.230  1.00  0.00     0.270 C 
HETATM   28  O2  UNL     1      -1.502   2.671  11.850  1.00  0.00    -0.267 OA
HETATM   29  N6  UNL     1       0.188   4.690  11.323  1.00  0.00    -0.189 N 
HETATM   30  C19 UNL     1       1.332   5.486  11.245  1.00  0.00     0.076 A 
HETATM   31  C20 UNL     1       2.485   5.308  10.518  1.00  0.00     0.033 A 
HETATM   32  C21 UNL     1       3.436   6.334  10.559  1.00  0.00     0.011 A 
HETATM   33  C22 UNL     1       3.210   7.520  11.297  1.00  0.00    -0.028 A 
HETATM   34  C29 UNL     1       2.016   7.672  12.027  1.00  0.00     0.041 A 
HETATM   35  C30 UNL     1       1.080   6.664  11.974  1.00  0.00     0.079 A 
HETATM   36  H22 UNL     1       0.194   3.687  11.206  1.00  0.00     0.184 HD
ENDROOT
BRANCH  33  37
HETATM   37  C23 UNL     1       4.276   8.602  11.333  1.00  0.00     0.311 C 
BRANCH  37  38
HETATM   38  N7  UNL     1       5.506   8.195  12.023  1.00  0.00     0.096 N 
HETATM   39  C24 UNL     1       6.563   9.215  11.882  1.00  0.00     0.303 C 
HETATM   40  C25 UNL     1       7.678   9.164  12.963  1.00  0.00     0.302 C 
HETATM   41  N8  UNL     1       7.855   7.824  13.528  1.00  0.00     0.087 N 
HETATM   42  C26 UNL     1       8.946   7.773  14.491  1.00  0.00     0.310 C 
HETATM   43  C27 UNL     1       6.593   7.327  14.110  1.00  0.00     0.302 C 
HETATM   44  C28 UNL     1       5.300   7.871  13.440  1.00  0.00     0.303 C 
ENDBRANCH  37  38
ENDBRANCH  33  37
TORSDOF 2
ENDMDL
MODEL 2
REMARK minimizedAffinity -11.2029266
REMARK CNNscore 0.173651025
REMARK CNNaffinity 7.51459551
REMARK  2 active torsions:
REMARK  status: ('A' for Active; 'I' for Inactive)
REMARK    1  A    between atoms: C22_33  and  C23_34 
REMARK    2  A    between atoms: C23_34  and  N7_35 
ROOT
HETATM    1  C1  UNL     1      -6.308   1.181  10.689  1.00  0.00     0.068 C 
HETATM    2  C2  UNL     1      -5.592   2.245  11.467  1.00  0.00     0.006 A 
HETATM    3  C3  UNL     1      -4.208   2.322  11.437  1.00  0.00     0.041 A 
HETATM    4  C4  UNL     1      -3.589   3.325  12.178  1.00  0.00     0.036 A 
HETATM    5  C5  UNL     1      -4.363   4.207  12.935  1.00  0.00     0.047 A 
HETATM    6  C6  UNL     1      -5.742   4.090  12.894  1.00  0.00     0.049 A 
HETATM    7  N1  UNL     1      -6.354   3.117  12.170  1.00  0.00    -0.359 N 
ATOM      8  H1  UNL     1      -7.372   3.044  12.156  1.00  0.00     0.166 HD
HETATM    9  C7  UNL     1      -6.647   5.005  13.572  1.00  0.00     0.060 A 
HETATM   10  C8  UNL     1      -8.060   5.057  13.467  1.00  0.00     0.125 A 
HETATM   11  N2  UNL     1      -8.612   6.010  14.221  1.00  0.00    -0.307 N 
ATOM     12  H2  UNL     1      -9.597   6.266  14.300  1.00  0.00     0.186 HD
HETATM   13  N3  UNL     1      -7.554   6.553  14.851  1.00  0.00    -0.275 N 
HETATM   14  C9  UNL     1      -7.780   7.595  15.821  1.00  0.00     0.180 C 
HETATM   15  C10 UNL     1      -6.344   6.029  14.458  1.00  0.00     0.173 A 
HETATM   16  O1  UNL     1      -5.199   6.465  14.990  1.00  0.00    -0.334 OA
HETATM   17  C11 UNL     1      -4.577   7.530  14.260  1.00  0.00     0.177 C 
HETATM   18  C12 UNL     1      -3.282   7.879  14.995  1.00  0.00     0.027 C 
HETATM   19  C13 UNL     1      -2.354   8.802  14.198  1.00  0.00     0.008 C 
HETATM   20  C14 UNL     1      -1.557   8.090  13.079  1.00  0.00     0.001 C 
HETATM   21  C15 UNL     1      -0.964   9.147  12.135  1.00  0.00     0.011 C 
HETATM   22  C16 UNL     1      -0.442   7.190  13.661  1.00  0.00     0.152 C 
HETATM   23  N4  UNL     1       0.094   6.293  12.659  1.00  0.00    -0.180 N 
HETATM   24  C17 UNL     1      -0.510   5.109  12.209  1.00  0.00     0.688 A 
HETATM   25  N5  UNL     1      -1.622   4.637  12.669  1.00  0.00    -0.155 N 
ATOM     26  H5  UNL     1      -2.126   5.115  13.416  1.00  0.00     0.187 HD
HETATM   27  C18 UNL     1      -2.106   3.474  12.121  1.00  0.00     0.270 C 
HETATM   28  O2  UNL     1      -1.429   2.593  11.603  1.00  0.00    -0.267 OA
HETATM   29  N6  UNL     1       0.326   4.589  11.221  1.00  0.00    -0.189 N 
HETATM   30  C19 UNL     1       1.499   5.343  11.175  1.00  0.00     0.076 A 
HETATM   31  C20 UNL     1       2.608   5.204  10.373  1.00  0.00     0.033 A 
HETATM   32  C21 UNL     1       3.606   6.179  10.480  1.00  0.00     0.011 A 
HETATM   33  C22 UNL     1       3.469   7.280  11.359  1.00  0.00    -0.028 A 
HETATM   34  C29 UNL     1       2.320   7.394  12.163  1.00  0.00     0.041 A 
HETATM   35  C30 UNL     1       1.337   6.437  12.045  1.00  0.00     0.079 A 
HETATM   36  H22 UNL     1       0.279   3.607  10.991  1.00  0.00     0.184 HD
ENDROOT
BRANCH  33  37
HETATM   37  C23 UNL     1       4.584   8.306  11.462  1.00  0.00     0.311 C 
BRANCH  37  38
HETATM   38  N7  UNL     1       4.589   9.047  12.729  1.00  0.00     0.096 N 
HETATM   39  C24 UNL     1       3.399   9.911  12.851  1.00  0.00     0.303 C 
HETATM   40  C25 UNL     1       3.021  10.314  14.304  1.00  0.00     0.302 C 
HETATM   41  N8  UNL     1       4.177  10.321  15.206  1.00  0.00     0.087 N 
HETATM   42  C26 UNL     1       3.825  10.764  16.547  1.00  0.00     0.310 C 
HETATM   43  C27 UNL     1       4.836   9.001  15.225  1.00  0.00     0.302 C 
HETATM   44  C28 UNL     1       4.710   8.181  13.910  1.00  0.00     0.303 C 
ENDBRANCH  37  38
ENDBRANCH  33  37
TORSDOF 2
ENDMDL
MODEL 3
REMARK minimizedAffinity -11.0875053
REMARK CNNscore 0.132778645
REMARK CNNaffinity 7.28089666
REMARK  2 active torsions:
REMARK  status: ('A' for Active; 'I' for Inactive)
REMARK    1  A    between atoms: C22_33  and  C23_34 
REMARK    2  A    between atoms: C23_34  and  N7_35 
ROOT
HETATM    1  C1  UNL     1      -8.344   7.263  16.255  1.00  0.00     0.068 C 
HETATM    2  C2  UNL     1      -7.282   6.904  15.257  1.00  0.00     0.006 A 
HETATM    3  C3  UNL     1      -6.234   7.777  15.007  1.00  0.00     0.041 A 
HETATM    4  C4  UNL     1      -5.276   7.401  14.070  1.00  0.00     0.036 A 
HETATM    5  C5  UNL     1      -5.397   6.181  13.403  1.00  0.00     0.047 A 
HETATM    6  C6  UNL     1      -6.454   5.346  13.725  1.00  0.00     0.049 A 
HETATM    7  N1  UNL     1      -7.392   5.702  14.641  1.00  0.00    -0.359 N 
ATOM      8  H1  UNL     1      -8.165   5.075  14.862  1.00  0.00     0.166 HD
HETATM    9  C7  UNL     1      -6.631   4.018  13.157  1.00  0.00     0.060 A 
HETATM   10  C8  UNL     1      -7.586   3.040  13.534  1.00  0.00     0.125 A 
HETATM   11  N2  UNL     1      -7.501   1.915  12.820  1.00  0.00    -0.307 N 
ATOM     12  H2  UNL     1      -8.052   1.061  12.913  1.00  0.00     0.186 HD
HETATM   13  N3  UNL     1      -6.512   2.182  11.946  1.00  0.00    -0.275 N 
HETATM   14  C9  UNL     1      -6.179   1.196  10.948  1.00  0.00     0.180 C 
HETATM   15  C10 UNL     1      -5.915   3.405  12.140  1.00  0.00     0.173 A 
HETATM   16  O1  UNL     1      -4.915   3.815  11.355  1.00  0.00    -0.334 OA
HETATM   17  C11 UNL     1      -3.607   3.493  11.848  1.00  0.00     0.177 C 
HETATM   18  C12 UNL     1      -2.600   4.054  10.844  1.00  0.00     0.027 C 
HETATM   19  C13 UNL     1      -1.156   4.047  11.354  1.00  0.00     0.008 C 
HETATM   20  C14 UNL     1      -0.829   5.180  12.355  1.00  0.00     0.001 C 
HETATM   21  C15 UNL     1       0.496   4.859  13.063  1.00  0.00     0.011 C 
HETATM   22  C16 UNL     1      -0.751   6.555  11.649  1.00  0.00     0.152 C 
HETATM   23  N4  UNL     1      -0.759   7.643  12.604  1.00  0.00    -0.180 N 
HETATM   24  C17 UNL     1      -1.888   8.144  13.270  1.00  0.00     0.688 A 
HETATM   25  N5  UNL     1      -3.094   7.717  13.084  1.00  0.00    -0.155 N 
ATOM     26  H5  UNL     1      -3.290   6.977  12.409  1.00  0.00     0.187 HD
HETATM   27  C18 UNL     1      -4.103   8.288  13.820  1.00  0.00     0.270 C 
HETATM   28  O2  UNL     1      -4.099   9.428  14.273  1.00  0.00    -0.267 OA
HETATM   29  N6  UNL     1      -1.433   9.153  14.118  1.00  0.00    -0.189 N 
HETATM   30  C19 UNL     1      -0.080   9.386  13.863  1.00  0.00     0.076 A 
HETATM   31  C20 UNL     1       0.786  10.284  14.440  1.00  0.00     0.033 A 
HETATM   32  C21 UNL     1       2.129  10.225  14.050  1.00  0.00     0.011 A 
HETATM   33  C22 UNL     1       2.584   9.262  13.118  1.00  0.00    -0.028 A 
HETATM   34  C29 UNL     1       1.671   8.354  12.549  1.00  0.00     0.041 A 
HETATM   35  C30 UNL     1       0.354   8.410  12.946  1.00  0.00     0.079 A 
HETATM   36  H22 UNL     1      -2.073   9.863  14.441  1.00  0.00     0.184 HD
ENDROOT
BRANCH  33  37
HETATM   37  C23 UNL     1       4.045   9.243  12.704  1.00  0.00     0.311 C 
BRANCH  37  38
HETATM   38  N7  UNL     1       4.972   9.019  13.819  1.00  0.00     0.096 N 
HETATM   39  C24 UNL     1       5.775   7.799  13.613  1.00  0.00     0.303 C 
HETATM   40  C25 UNL     1       7.108   7.743  14.410  1.00  0.00     0.302 C 
HETATM   41  N8  UNL     1       7.063   8.537  15.641  1.00  0.00     0.087 N 
HETATM   42  C26 UNL     1       8.292   8.424  16.413  1.00  0.00     0.310 C 
HETATM   43  C27 UNL     1       6.733   9.945  15.346  1.00  0.00     0.302 C 
HETATM   44  C28 UNL     1       5.851  10.166  14.085  1.00  0.00     0.303 C 
ENDBRANCH  37  38
ENDBRANCH  33  37
TORSDOF 2
ENDMDL
MODEL 4
REMARK minimizedAffinity -11.22579
REMARK CNNscore 0.109162889
REMARK CNNaffinity 7.27256632
REMARK  2 active torsions:
REMARK  status: ('A' for Active; 'I' for Inactive)
REMARK    1  A    between atoms: C22_33  and  C23_34 
REMARK    2  A    between atoms: C23_34  and  N7_35 
ROOT
HETATM    1  C1  UNL     1      -8.807   7.193  16.062  1.00  0.00     0.068 C 
HETATM    2  C2  UNL     1      -7.652   6.894  15.153  1.00  0.00     0.006 A 
HETATM    3  C3  UNL     1      -6.639   7.826  14.979  1.00  0.00     0.041 A 
HETATM    4  C4  UNL     1      -5.590   7.504  14.122  1.00  0.00     0.036 A 
HETATM    5  C5  UNL     1      -5.588   6.277  13.457  1.00  0.00     0.047 A 
HETATM    6  C6  UNL     1      -6.617   5.383  13.702  1.00  0.00     0.049 A 
HETATM    7  N1  UNL     1      -7.642   5.686  14.540  1.00  0.00    -0.359 N 
ATOM      8  H1  UNL     1      -8.393   5.015  14.704  1.00  0.00     0.166 HD
HETATM    9  C7  UNL     1      -6.671   4.045  13.132  1.00  0.00     0.060 A 
HETATM   10  C8  UNL     1      -7.595   3.014  13.441  1.00  0.00     0.125 A 
HETATM   11  N2  UNL     1      -7.388   1.894  12.743  1.00  0.00    -0.307 N 
ATOM     12  H2  UNL     1      -7.894   1.009  12.800  1.00  0.00     0.186 HD
HETATM   13  N3  UNL     1      -6.352   2.215  11.948  1.00  0.00    -0.275 N 
HETATM   14  C9  UNL     1      -5.884   1.248  10.987  1.00  0.00     0.180 C 
HETATM   15  C10 UNL     1      -5.843   3.472  12.179  1.00  0.00     0.173 A 
HETATM   16  O1  UNL     1      -4.810   3.938  11.471  1.00  0.00    -0.334 OA
HETATM   17  C11 UNL     1      -3.529   3.694  12.067  1.00  0.00     0.177 C 
HETATM   18  C12 UNL     1      -2.480   4.310  11.141  1.00  0.00     0.027 C 
HETATM   19  C13 UNL     1      -1.082   4.388  11.762  1.00  0.00     0.008 C 
HETATM   20  C14 UNL     1      -0.901   5.542  12.777  1.00  0.00     0.001 C 
HETATM   21  C15 UNL     1       0.380   5.301  13.589  1.00  0.00     0.011 C 
HETATM   22  C16 UNL     1      -0.848   6.917  12.069  1.00  0.00     0.152 C 
HETATM   23  N4  UNL     1      -0.994   8.006  13.013  1.00  0.00    -0.180 N 
HETATM   24  C17 UNL     1      -2.199   8.441  13.585  1.00  0.00     0.688 A 
HETATM   25  N5  UNL     1      -3.360   7.944  13.308  1.00  0.00    -0.155 N 
ATOM     26  H5  UNL     1      -3.459   7.192  12.625  1.00  0.00     0.187 HD
HETATM   27  C18 UNL     1      -4.455   8.458  13.958  1.00  0.00     0.270 C 
HETATM   28  O2  UNL     1      -4.552   9.597  14.402  1.00  0.00    -0.267 OA
HETATM   29  N6  UNL     1      -1.871   9.478  14.457  1.00  0.00    -0.189 N 
HETATM   30  C19 UNL     1      -0.518   9.788  14.307  1.00  0.00     0.076 A 
HETATM   31  C20 UNL     1       0.247  10.738  14.943  1.00  0.00     0.033 A 
HETATM   32  C21 UNL     1       1.617  10.756  14.660  1.00  0.00     0.011 A 
HETATM   33  C22 UNL     1       2.199   9.818  13.774  1.00  0.00    -0.028 A 
HETATM   34  C29 UNL     1       1.387   8.857  13.142  1.00  0.00     0.041 A 
HETATM   35  C30 UNL     1       0.042   8.837  13.434  1.00  0.00     0.079 A 
HETATM   36  H22 UNL     1      -2.575  10.150  14.724  1.00  0.00     0.184 HD
ENDROOT
BRANCH  33  37
HETATM   37  C23 UNL     1       3.686   9.884  13.475  1.00  0.00     0.311 C 
BRANCH  37  38
HETATM   38  N7  UNL     1       4.225   8.652  12.887  1.00  0.00     0.096 N 
HETATM   39  C24 UNL     1       4.405   8.788  11.428  1.00  0.00     0.303 C 
HETATM   40  C25 UNL     1       5.426   7.802  10.795  1.00  0.00     0.302 C 
HETATM   41  N8  UNL     1       5.558   6.558  11.559  1.00  0.00     0.087 N 
HETATM   42  C26 UNL     1       6.466   5.615  10.921  1.00  0.00     0.310 C 
HETATM   43  C27 UNL     1       5.956   6.838  12.952  1.00  0.00     0.302 C 
HETATM   44  C28 UNL     1       5.477   8.207  13.513  1.00  0.00     0.303 C 
ENDBRANCH  37  38
ENDBRANCH  33  37
TORSDOF 2
ENDMDL
MODEL 5
REMARK minimizedAffinity -9.16592216
REMARK CNNscore 0.0817561671
REMARK CNNaffinity 6.94219065
REMARK  2 active torsions:
REMARK  status: ('A' for Active; 'I' for Inactive)
REMARK    1  A    between atoms: C22_33  and  C23_34 
REMARK    2  A    between atoms: C23_34  and  N7_35 
ROOT
HETATM    1  C1  UNL     1      -8.362   2.240  12.108  1.00  0.00     0.068 C 
HETATM    2  C2  UNL     1      -7.479   3.307  12.685  1.00  0.00     0.006 A 
HETATM    3  C3  UNL     1      -6.101   3.156  12.676  1.00  0.00     0.041 A 
HETATM    4  C4  UNL     1      -5.324   4.172  13.226  1.00  0.00     0.036 A 
HETATM    5  C5  UNL     1      -5.942   5.295  13.781  1.00  0.00     0.047 A 
HETATM    6  C6  UNL     1      -7.322   5.392  13.729  1.00  0.00     0.049 A 
HETATM    7  N1  UNL     1      -8.087   4.408  13.190  1.00  0.00    -0.359 N 
ATOM      8  H1  UNL     1      -9.103   4.496  13.165  1.00  0.00     0.166 HD
HETATM    9  C7  UNL     1      -8.064   6.553  14.197  1.00  0.00     0.060 A 
HETATM   10  C8  UNL     1      -9.451   6.807  14.049  1.00  0.00     0.125 A 
HETATM   11  N2  UNL     1      -9.838   7.963  14.593  1.00  0.00    -0.307 N 
ATOM     12  H2  UNL     1     -10.768   8.382  14.597  1.00  0.00     0.186 HD
HETATM   13  N3  UNL     1      -8.702   8.442  15.134  1.00  0.00    -0.275 N 
HETATM   14  C9  UNL     1      -8.752   9.674  15.881  1.00  0.00     0.180 C 
HETATM   15  C10 UNL     1      -7.595   7.667  14.878  1.00  0.00     0.173 A 
HETATM   16  O1  UNL     1      -6.392   8.010  15.345  1.00  0.00    -0.334 OA
HETATM   17  C11 UNL     1      -5.611   8.802  14.440  1.00  0.00     0.177 C 
HETATM   18  C12 UNL     1      -4.272   9.076  15.126  1.00  0.00     0.027 C 
HETATM   19  C13 UNL     1      -3.214   9.669  14.191  1.00  0.00     0.008 C 
HETATM   20  C14 UNL     1      -2.549   8.638  13.248  1.00  0.00     0.001 C 
HETATM   21  C15 UNL     1      -1.800   9.384  12.135  1.00  0.00     0.011 C 
HETATM   22  C16 UNL     1      -1.588   7.701  14.019  1.00  0.00     0.152 C 
HETATM   23  N4  UNL     1      -1.210   6.554  13.220  1.00  0.00    -0.180 N 
HETATM   24  C17 UNL     1      -1.999   5.417  12.991  1.00  0.00     0.688 A 
HETATM   25  N5  UNL     1      -3.169   5.225  13.505  1.00  0.00    -0.155 N 
ATOM     26  H5  UNL     1      -3.585   5.912  14.135  1.00  0.00     0.187 HD
HETATM   27  C18 UNL     1      -3.837   4.070  13.178  1.00  0.00     0.270 C 
HETATM   28  O2  UNL     1      -3.313   3.009  12.855  1.00  0.00    -0.267 OA
HETATM   29  N6  UNL     1      -1.264   4.590  12.142  1.00  0.00    -0.189 N 
HETATM   30  C19 UNL     1       0.015   5.125  11.981  1.00  0.00     0.076 A 
HETATM   31  C20 UNL     1       1.082   4.660  11.248  1.00  0.00     0.033 A 
HETATM   32  C21 UNL     1       2.224   5.466  11.191  1.00  0.00     0.011 A 
HETATM   33  C22 UNL     1       2.272   6.724  11.839  1.00  0.00    -0.028 A 
HETATM   34  C29 UNL     1       1.160   7.171  12.578  1.00  0.00     0.041 A 
HETATM   35  C30 UNL     1       0.036   6.378  12.621  1.00  0.00     0.079 A 
HETATM   36  H22 UNL     1      -1.469   3.603  12.103  1.00  0.00     0.184 HD
ENDROOT
BRANCH  33  37
HETATM   37  C23 UNL     1       3.538   7.560  11.772  1.00  0.00     0.311 C 
BRANCH  37  38
HETATM   38  N7  UNL     1       3.766   8.382  12.966  1.00  0.00     0.096 N 
HETATM   39  C24 UNL     1       3.090   9.690  12.856  1.00  0.00     0.303 C 
HETATM   40  C25 UNL     1       2.810  10.404  14.207  1.00  0.00     0.302 C 
HETATM   41  N8  UNL     1       3.760  10.020  15.256  1.00  0.00     0.087 N 
HETATM   42  C26 UNL     1       3.530  10.746  16.497  1.00  0.00     0.310 C 
HETATM   43  C27 UNL     1       3.745   8.560  15.468  1.00  0.00     0.302 C 
HETATM   44  C28 UNL     1       3.378   7.715  14.216  1.00  0.00     0.303 C 
ENDBRANCH  37  38
ENDBRANCH  33  37
TORSDOF 2
ENDMDL
MODEL 6
REMARK minimizedAffinity -8.58188343
REMARK CNNscore 0.0645813644
REMARK CNNaffinity 6.82827187
REMARK  2 active torsions:
REMARK  status: ('A' for Active; 'I' for Inactive)
REMARK    1  A    between atoms: C22_33  and  C23_34 
REMARK    2  A    between atoms: C23_34  and  N7_35 
ROOT
HETATM    1  C1  UNL     1      -9.545   7.458  15.682  1.00  0.00     0.068 C 
HETATM    2  C2  UNL     1      -8.156   7.351  15.126  1.00  0.00     0.006 A 
HETATM    3  C3  UNL     1      -7.242   8.375  15.323  1.00  0.00     0.041 A 
HETATM    4  C4  UNL     1      -5.967   8.231  14.784  1.00  0.00     0.036 A 
HETATM    5  C5  UNL     1      -5.645   7.084  14.056  1.00  0.00     0.047 A 
HETATM    6  C6  UNL     1      -6.598   6.088  13.925  1.00  0.00     0.049 A 
HETATM    7  N1  UNL     1      -7.844   6.218  14.451  1.00  0.00    -0.359 N 
ATOM      8  H1  UNL     1      -8.534   5.474  14.340  1.00  0.00     0.166 HD
HETATM    9  C7  UNL     1      -6.346   4.816  13.263  1.00  0.00     0.060 A 
HETATM   10  C8  UNL     1      -7.202   3.687  13.212  1.00  0.00     0.125 A 
HETATM   11  N2  UNL     1      -6.689   2.666  12.521  1.00  0.00    -0.307 N 
ATOM     12  H2  UNL     1      -7.091   1.742  12.362  1.00  0.00     0.186 HD
HETATM   13  N3  UNL     1      -5.511   3.152  12.086  1.00  0.00    -0.275 N 
HETATM   14  C9  UNL     1      -4.692   2.331  11.230  1.00  0.00     0.180 C 
HETATM   15  C10 UNL     1      -5.227   4.416  12.549  1.00  0.00     0.173 A 
HETATM   16  O1  UNL     1      -4.094   5.036  12.208  1.00  0.00    -0.334 OA
HETATM   17  C11 UNL     1      -3.012   4.837  13.128  1.00  0.00     0.177 C 
HETATM   18  C12 UNL     1      -1.819   5.630  12.594  1.00  0.00     0.027 C 
HETATM   19  C13 UNL     1      -0.669   5.757  13.597  1.00  0.00     0.008 C 
HETATM   20  C14 UNL     1      -0.905   6.810  14.706  1.00  0.00     0.001 C 
HETATM   21  C15 UNL     1       0.116   6.592  15.832  1.00  0.00     0.011 C 
HETATM   22  C16 UNL     1      -0.805   8.251  14.150  1.00  0.00     0.152 C 
HETATM   23  N4  UNL     1      -1.326   9.220  15.092  1.00  0.00    -0.180 N 
HETATM   24  C17 UNL     1      -2.683   9.493  15.322  1.00  0.00     0.688 A 
HETATM   25  N5  UNL     1      -3.658   8.935  14.685  1.00  0.00    -0.155 N 
ATOM     26  H5  UNL     1      -3.481   8.252  13.948  1.00  0.00     0.187 HD
HETATM   27  C18 UNL     1      -4.941   9.286  15.028  1.00  0.00     0.270 C 
HETATM   28  O2  UNL     1      -5.282  10.362  15.510  1.00  0.00    -0.267 OA
HETATM   29  N6  UNL     1      -2.726  10.457  16.329  1.00  0.00    -0.189 N 
HETATM   30  C19 UNL     1      -1.428  10.891  16.600  1.00  0.00     0.076 A 
HETATM   31  C20 UNL     1      -0.979  11.829  17.501  1.00  0.00     0.033 A 
HETATM   32  C21 UNL     1       0.405  11.988  17.628  1.00  0.00     0.011 A 
HETATM   33  C22 UNL     1       1.310  11.198  16.879  1.00  0.00    -0.028 A 
HETATM   34  C29 UNL     1       0.817  10.245  15.968  1.00  0.00     0.041 A 
HETATM   35  C30 UNL     1      -0.546  10.085  15.856  1.00  0.00     0.079 A 
HETATM   36  H22 UNL     1      -3.546  11.038  16.432  1.00  0.00     0.184 HD
ENDROOT
BRANCH  33  37
HETATM   37  C23 UNL     1       2.805  11.417  17.028  1.00  0.00     0.311 C 
BRANCH  37  38
HETATM   38  N7  UNL     1       3.181  12.097  18.274  1.00  0.00     0.096 N 
HETATM   39  C24 UNL     1       3.550  11.129  19.324  1.00  0.00     0.303 C 
HETATM   40  C25 UNL     1       4.445  11.696  20.461  1.00  0.00     0.302 C 
HETATM   41  N8  UNL     1       4.265  13.138  20.654  1.00  0.00     0.087 N 
HETATM   42  C26 UNL     1       5.057  13.648  21.764  1.00  0.00     0.310 C 
HETATM   43  C27 UNL     1       4.541  13.874  19.405  1.00  0.00     0.302 C 
HETATM   44  C28 UNL     1       4.252  13.086  18.097  1.00  0.00     0.303 C 
ENDBRANCH  37  38
ENDBRANCH  33  37
TORSDOF 2
ENDMDL
MODEL 7
REMARK minimizedAffinity -9.51794624
REMARK CNNscore 0.064353019
REMARK CNNaffinity 6.33125925
REMARK  2 active torsions:
REMARK  status: ('A' for Active; 'I' for Inactive)
REMARK    1  A    between atoms: C22_33  and  C23_34 
REMARK    2  A    between atoms: C23_34  and  N7_35 
ROOT
HETATM    1  C1  UNL     1      -8.134   4.031  13.283  1.00  0.00     0.068 C 
HETATM    2  C2  UNL     1      -6.734   4.533  13.092  1.00  0.00     0.006 A 
HETATM    3  C3  UNL     1      -6.414   5.847  13.397  1.00  0.00     0.041 A 
HETATM    4  C4  UNL     1      -5.101   6.268  13.200  1.00  0.00     0.036 A 
HETATM    5  C5  UNL     1      -4.155   5.374  12.693  1.00  0.00     0.047 A 
HETATM    6  C6  UNL     1      -4.538   4.068  12.439  1.00  0.00     0.049 A 
HETATM    7  N1  UNL     1      -5.816   3.649  12.633  1.00  0.00    -0.359 N 
ATOM      8  H1  UNL     1      -6.079   2.683  12.435  1.00  0.00     0.166 HD
HETATM    9  C7  UNL     1      -3.618   3.033  11.992  1.00  0.00     0.060 A 
HETATM   10  C8  UNL     1      -3.882   1.647  11.853  1.00  0.00     0.125 A 
HETATM   11  N2  UNL     1      -2.831   0.951  11.414  1.00  0.00    -0.307 N 
ATOM     12  H2  UNL     1      -2.757  -0.055  11.259  1.00  0.00     0.186 HD
HETATM   13  N3  UNL     1      -1.892   1.897  11.229  1.00  0.00    -0.275 N 
HETATM   14  C9  UNL     1      -0.613   1.514  10.685  1.00  0.00     0.180 C 
HETATM   15  C10 UNL     1      -2.289   3.157  11.614  1.00  0.00     0.173 A 
HETATM   16  O1  UNL     1      -1.469   4.204  11.494  1.00  0.00    -0.334 OA
HETATM   17  C11 UNL     1      -0.686   4.477  12.664  1.00  0.00     0.177 C 
HETATM   18  C12 UNL     1       0.166   5.709  12.354  1.00  0.00     0.027 C 
HETATM   19  C13 UNL     1       0.853   6.304  13.587  1.00  0.00     0.008 C 
HETATM   20  C14 UNL     1      -0.080   7.145  14.492  1.00  0.00     0.001 C 
HETATM   21  C15 UNL     1       0.605   7.371  15.847  1.00  0.00     0.011 C 
HETATM   22  C16 UNL     1      -0.445   8.495  13.831  1.00  0.00     0.152 C 
HETATM   23  N4  UNL     1      -1.547   9.140  14.514  1.00  0.00    -0.180 N 
HETATM   24  C17 UNL     1      -2.903   8.805  14.382  1.00  0.00     0.688 A 
HETATM   25  N5  UNL     1      -3.355   7.890  13.589  1.00  0.00    -0.155 N 
ATOM     26  H5  UNL     1      -2.724   7.356  12.990  1.00  0.00     0.187 HD
HETATM   27  C18 UNL     1      -4.709   7.657  13.574  1.00  0.00     0.270 C 
HETATM   28  O2  UNL     1      -5.577   8.479  13.847  1.00  0.00    -0.267 OA
HETATM   29  N6  UNL     1      -3.605   9.648  15.243  1.00  0.00    -0.189 N 
HETATM   30  C19 UNL     1      -2.724  10.592  15.773  1.00  0.00     0.076 A 
HETATM   31  C20 UNL     1      -2.958  11.622  16.654  1.00  0.00     0.033 A 
HETATM   32  C21 UNL     1      -1.851  12.356  17.094  1.00  0.00     0.011 A 
HETATM   33  C22 UNL     1      -0.538  12.036  16.671  1.00  0.00    -0.028 A 
HETATM   34  C29 UNL     1      -0.334  10.972  15.771  1.00  0.00     0.041 A 
HETATM   35  C30 UNL     1      -1.426  10.247  15.351  1.00  0.00     0.079 A 
HETATM   36  H22 UNL     1      -4.587   9.822  15.085  1.00  0.00     0.184 HD
ENDROOT
BRANCH  33  37
HETATM   37  C23 UNL     1       0.635  12.870  17.154  1.00  0.00     0.311 C 
BRANCH  37  38
HETATM   38  N7  UNL     1       0.289  13.814  18.223  1.00  0.00     0.096 N 
HETATM   39  C24 UNL     1       1.034  13.518  19.462  1.00  0.00     0.303 C 
HETATM   40  C25 UNL     1       1.165  14.708  20.453  1.00  0.00     0.302 C 
HETATM   41  N8  UNL     1       0.067  15.671  20.327  1.00  0.00     0.087 N 
HETATM   42  C26 UNL     1       0.162  16.746  21.304  1.00  0.00     0.310 C 
HETATM   43  C27 UNL     1      -0.016  16.195  18.949  1.00  0.00     0.302 C 
HETATM   44  C28 UNL     1       0.475  15.220  17.842  1.00  0.00     0.303 C 
ENDBRANCH  37  38
ENDBRANCH  33  37
TORSDOF 2
ENDMDL
MODEL 8
REMARK minimizedAffinity -8.09513664
REMARK CNNscore 0.0480290018
REMARK CNNaffinity 4.771276
REMARK  2 active torsions:
REMARK  status: ('A' for Active; 'I' for Inactive)
REMARK    1  A    between atoms: C22_33  and  C23_34 
REMARK    2  A    between atoms: C23_34  and  N7_35 
ROOT
HETATM    1  C1  UNL     1       6.350  13.196  23.089  1.00  0.00     0.068 C 
HETATM    2  C2  UNL     1       5.904  12.489  21.844  1.00  0.00     0.006 A 
HETATM    3  C3  UNL     1       4.597  12.042  21.723  1.00  0.00     0.041 A 
HETATM    4  C4  UNL     1       4.232  11.388  20.550  1.00  0.00     0.036 A 
HETATM    5  C5  UNL     1       5.179  11.186  19.543  1.00  0.00     0.047 A 
HETATM    6  C6  UNL     1       6.458  11.685  19.720  1.00  0.00     0.049 A 
HETATM    7  N1  UNL     1       6.822  12.328  20.860  1.00  0.00    -0.359 N 
ATOM      8  H1  UNL     1       7.772  12.685  20.973  1.00  0.00     0.166 HD
HETATM    9  C7  UNL     1       7.498  11.608  18.706  1.00  0.00     0.060 A 
HETATM   10  C8  UNL     1       8.778  12.217  18.735  1.00  0.00     0.125 A 
HETATM   11  N2  UNL     1       9.514  11.955  17.652  1.00  0.00    -0.307 N 
ATOM     12  H2  UNL     1      10.449  12.293  17.424  1.00  0.00     0.186 HD
HETATM   13  N3  UNL     1       8.721  11.137  16.935  1.00  0.00    -0.275 N 
HETATM   14  C9  UNL     1       9.224  10.584  15.702  1.00  0.00     0.180 C 
HETATM   15  C10 UNL     1       7.478  10.940  17.490  1.00  0.00     0.173 A 
HETATM   16  O1  UNL     1       6.575  10.155  16.896  1.00  0.00    -0.334 OA
HETATM   17  C11 UNL     1       5.683  10.845  16.011  1.00  0.00     0.177 C 
HETATM   18  C12 UNL     1       4.716   9.803  15.448  1.00  0.00     0.027 C 
HETATM   19  C13 UNL     1       3.523  10.412  14.706  1.00  0.00     0.008 C 
HETATM   20  C14 UNL     1       2.418  10.974  15.631  1.00  0.00     0.001 C 
HETATM   21  C15 UNL     1       1.478  11.866  14.807  1.00  0.00     0.011 C 
HETATM   22  C16 UNL     1       1.626   9.840  16.324  1.00  0.00     0.152 C 
HETATM   23  N4  UNL     1       0.815  10.346  17.411  1.00  0.00    -0.180 N 
HETATM   24  C17 UNL     1       1.278  10.688  18.691  1.00  0.00     0.688 A 
HETATM   25  N5  UNL     1       2.503  10.556  19.083  1.00  0.00    -0.155 N 
ATOM     26  H5  UNL     1       3.214  10.170  18.461  1.00  0.00     0.187 HD
HETATM   27  C18 UNL     1       2.819  10.949  20.361  1.00  0.00     0.270 C 
HETATM   28  O2  UNL     1       2.046  10.970  21.313  1.00  0.00    -0.267 OA
HETATM   29  N6  UNL     1       0.174  11.163  19.398  1.00  0.00    -0.189 N 
HETATM   30  C19 UNL     1      -0.976  10.966  18.632  1.00  0.00     0.076 A 
HETATM   31  C20 UNL     1      -2.288  11.265  18.914  1.00  0.00     0.033 A 
HETATM   32  C21 UNL     1      -3.230  11.044  17.904  1.00  0.00     0.011 A 
HETATM   33  C22 UNL     1      -2.846  10.556  16.632  1.00  0.00    -0.028 A 
HETATM   34  C29 UNL     1      -1.493  10.263  16.375  1.00  0.00     0.041 A 
HETATM   35  C30 UNL     1      -0.570  10.494  17.369  1.00  0.00     0.079 A 
HETATM   36  H22 UNL     1       0.185  11.156  20.407  1.00  0.00     0.184 HD
ENDROOT
BRANCH  33  37
HETATM   37  C23 UNL     1      -3.901  10.308  15.568  1.00  0.00     0.311 C 
BRANCH  37  38
HETATM   38  N7  UNL     1      -4.108   8.888  15.261  1.00  0.00     0.096 N 
HETATM   39  C24 UNL     1      -4.923   8.715  14.043  1.00  0.00     0.303 C 
HETATM   40  C25 UNL     1      -4.768   7.341  13.335  1.00  0.00     0.302 C 
HETATM   41  N8  UNL     1      -4.374   6.272  14.257  1.00  0.00     0.087 N 
HETATM   42  C26 UNL     1      -4.296   4.976  13.597  1.00  0.00     0.310 C 
HETATM   43  C27 UNL     1      -3.111   6.609  14.943  1.00  0.00     0.302 C 
HETATM   44  C28 UNL     1      -2.856   8.129  15.146  1.00  0.00     0.303 C 
ENDBRANCH  37  38
ENDBRANCH  33  37
TORSDOF 2
ENDMDL
MODEL 9
REMARK minimizedAffinity -10.528944
REMARK CNNscore 0.0458632
REMARK CNNaffinity 6.44130182
REMARK  2 active torsions:
REMARK  status: ('A' for Active; 'I' for Inactive)
REMARK    1  A    between atoms: C22_33  and  C23_34 
REMARK    2  A    between atoms: C23_34  and  N7_35 
ROOT
HETATM    1  C1  UNL     1      -8.184   4.022  13.263  1.00  0.00     0.068 C 
HETATM    2  C2  UNL     1      -6.786   4.534  13.081  1.00  0.00     0.006 A 
HETATM    3  C3  UNL     1      -6.478   5.851  13.387  1.00  0.00     0.041 A 
HETATM    4  C4  UNL     1      -5.168   6.281  13.198  1.00  0.00     0.036 A 
HETATM    5  C5  UNL     1      -4.211   5.395  12.698  1.00  0.00     0.047 A 
HETATM    6  C6  UNL     1      -4.583   4.086  12.442  1.00  0.00     0.049 A 
HETATM    7  N1  UNL     1      -5.859   3.657  12.628  1.00  0.00    -0.359 N 
ATOM      8  H1  UNL     1      -6.114   2.689  12.429  1.00  0.00     0.166 HD
HETATM    9  C7  UNL     1      -3.652   3.058  12.002  1.00  0.00     0.060 A 
HETATM   10  C8  UNL     1      -3.905   1.669  11.862  1.00  0.00     0.125 A 
HETATM   11  N2  UNL     1      -2.845   0.981  11.430  1.00  0.00    -0.307 N 
ATOM     12  H2  UNL     1      -2.763  -0.024  11.275  1.00  0.00     0.186 HD
HETATM   13  N3  UNL     1      -1.913   1.934  11.250  1.00  0.00    -0.275 N 
HETATM   14  C9  UNL     1      -0.628   1.560  10.714  1.00  0.00     0.180 C 
HETATM   15  C10 UNL     1      -2.322   3.191  11.632  1.00  0.00     0.173 A 
HETATM   16  O1  UNL     1      -1.509   4.245  11.517  1.00  0.00    -0.334 OA
HETATM   17  C11 UNL     1      -0.735   4.524  12.692  1.00  0.00     0.177 C 
HETATM   18  C12 UNL     1       0.109   5.762  12.387  1.00  0.00     0.027 C 
HETATM   19  C13 UNL     1       0.783   6.363  13.624  1.00  0.00     0.008 C 
HETATM   20  C14 UNL     1      -0.162   7.197  14.522  1.00  0.00     0.001 C 
HETATM   21  C15 UNL     1       0.513   7.429  15.882  1.00  0.00     0.011 C 
HETATM   22  C16 UNL     1      -0.532   8.544  13.858  1.00  0.00     0.152 C 
HETATM   23  N4  UNL     1      -1.644   9.181  14.534  1.00  0.00    -0.180 N 
HETATM   24  C17 UNL     1      -2.997   8.836  14.393  1.00  0.00     0.688 A 
HETATM   25  N5  UNL     1      -3.436   7.917  13.597  1.00  0.00    -0.155 N 
ATOM     26  H5  UNL     1      -2.798   7.387  13.003  1.00  0.00     0.187 HD
HETATM   27  C18 UNL     1      -4.788   7.673  13.574  1.00  0.00     0.270 C 
HETATM   28  O2  UNL     1      -5.665   8.489  13.841  1.00  0.00    -0.267 OA
HETATM   29  N6  UNL     1      -3.710   9.674  15.249  1.00  0.00    -0.189 N 
HETATM   30  C19 UNL     1      -2.840  10.624  15.785  1.00  0.00     0.076 A 
HETATM   31  C20 UNL     1      -3.087  11.653  16.664  1.00  0.00     0.033 A 
HETATM   32  C21 UNL     1      -1.989  12.396  17.110  1.00  0.00     0.011 A 
HETATM   33  C22 UNL     1      -0.672  12.085  16.696  1.00  0.00    -0.028 A 
HETATM   34  C29 UNL     1      -0.453  11.023  15.798  1.00  0.00     0.041 A 
HETATM   35  C30 UNL     1      -1.537  10.290  15.371  1.00  0.00     0.079 A 
HETATM   36  H22 UNL     1      -4.692   9.840  15.085  1.00  0.00     0.184 HD
ENDROOT
BRANCH  33  37
HETATM   37  C23 UNL     1       0.493  12.929  17.186  1.00  0.00     0.311 C 
BRANCH  37  38
HETATM   38  N7  UNL     1       1.165  12.377  18.368  1.00  0.00     0.096 N 
HETATM   39  C24 UNL     1       0.189  11.881  19.358  1.00  0.00     0.303 C 
HETATM   40  C25 UNL     1       0.743  10.831  20.361  1.00  0.00     0.302 C 
HETATM   41  N8  UNL     1       2.187  10.964  20.578  1.00  0.00     0.087 N 
HETATM   42  C26 UNL     1       2.683  10.021  21.569  1.00  0.00     0.310 C 
HETATM   43  C27 UNL     1       2.922  10.851  19.303  1.00  0.00     0.302 C 
HETATM   44  C28 UNL     1       2.141  11.327  18.046  1.00  0.00     0.303 C 
ENDBRANCH  37  38
ENDBRANCH  33  37
TORSDOF 2
ENDMDL
