MODEL 1
REMARK minimizedAffinity -7.73499823
REMARK  3 active torsions:
REMARK  status: ('A' for Active; 'I' for Inactive)
REMARK    1  A    between atoms: C9_16  and  N4_17 
REMARK    2  A    between atoms: C10_19  and  C11_20 
REMARK    3  A    between atoms: C12_21  and  C13_22 
ROOT
HETATM    1 CL1  UNL     1      13.440  36.507  15.905  1.00  0.00    -0.044 Cl
HETATM    2  C1  UNL     1      15.020  35.868  15.699  1.00  0.00     0.203 A 
HETATM    3  N1  UNL     1      15.591  36.122  14.554  1.00  0.00    -0.331 N 
ATOM      4  H1  UNL     1      15.102  36.668  13.844  1.00  0.00     0.168 HD
HETATM    5  C2  UNL     1      16.896  35.634  14.302  1.00  0.00     0.048 A 
HETATM    6  C3  UNL     1      17.497  35.910  13.074  1.00  0.00     0.030 A 
HETATM    7  C4  UNL     1      18.785  35.441  12.797  1.00  0.00     0.002 A 
HETATM    8  C5  UNL     1      19.480  34.691  13.748  1.00  0.00     0.001 A 
HETATM    9  C6  UNL     1      18.891  34.406  14.980  1.00  0.00     0.017 A 
HETATM   10  C7  UNL     1      17.605  34.877  15.252  1.00  0.00     0.037 A 
HETATM   11  C8  UNL     1      16.924  34.626  16.504  1.00  0.00     0.159 A 
HETATM   12  N2  UNL     1      17.309  33.968  17.571  1.00  0.00    -0.269 N 
ATOM     13  H2  UNL     1      18.204  33.496  17.701  1.00  0.00     0.189 HD
HETATM   14  N3  UNL     1      16.281  34.032  18.479  1.00  0.00    -0.130 N 
ATOM     15  H3  UNL     1      16.285  33.611  19.408  1.00  0.00     0.205 HD
HETATM   16  C9  UNL     1      15.282  34.728  17.957  1.00  0.00     0.707 A 
HETATM   17  N5  UNL     1      15.659  35.126  16.690  1.00  0.00    -0.103 N 
ENDROOT
BRANCH  16  18
HETATM   18  N4  UNL     1      14.073  35.047  18.482  1.00  0.00    -0.200 N 
HETATM   19  C10 UNL     1      13.212  34.083  18.519  1.00  0.00     0.106 C 
ATOM     20  H4  UNL     1      13.858  35.983  18.825  1.00  0.00     0.183 HD
BRANCH  19  21
HETATM   21  C11 UNL     1      11.857  34.304  19.066  1.00  0.00     0.018 C 
HETATM   22  C12 UNL     1      11.064  35.229  18.510  1.00  0.00     0.013 C 
BRANCH  22  23
HETATM   23  C13 UNL     1       9.707  35.532  18.986  1.00  0.00    -0.036 A 
HETATM   24  C14 UNL     1       9.165  34.941  20.135  1.00  0.00     0.011 A 
HETATM   25  C15 UNL     1       7.858  35.233  20.537  1.00  0.00     0.001 A 
HETATM   26  C16 UNL     1       7.077  36.110  19.789  1.00  0.00     0.000 A 
HETATM   27  C17 UNL     1       7.597  36.691  18.636  1.00  0.00     0.001 A 
HETATM   28  C18 UNL     1       8.904  36.399  18.233  1.00  0.00     0.011 A 
ENDBRANCH  22  23
ENDBRANCH  19  21
ENDBRANCH  16  18
TORSDOF 3
ENDMDL
MODEL 2
REMARK minimizedAffinity -7.68422318
REMARK  3 active torsions:
REMARK  status: ('A' for Active; 'I' for Inactive)
REMARK    1  A    between atoms: C9_16  and  N4_17 
REMARK    2  A    between atoms: C10_19  and  C11_20 
REMARK    3  A    between atoms: C12_21  and  C13_22 
ROOT
HETATM    1 CL1  UNL     1      13.225  34.255  20.047  1.00  0.00    -0.044 Cl
HETATM    2  C1  UNL     1      11.589  34.767  19.995  1.00  0.00     0.203 A 
HETATM    3  N1  UNL     1      10.938  34.708  21.125  1.00  0.00    -0.331 N 
ATOM      4  H1  UNL     1      11.402  34.373  21.969  1.00  0.00     0.168 HD
HETATM    5  C2  UNL     1       9.582  35.113  21.171  1.00  0.00     0.048 A 
HETATM    6  C3  UNL     1       8.896  35.046  22.384  1.00  0.00     0.030 A 
HETATM    7  C4  UNL     1       7.557  35.439  22.459  1.00  0.00     0.002 A 
HETATM    8  C5  UNL     1       6.894  35.902  21.321  1.00  0.00     0.001 A 
HETATM    9  C6  UNL     1       7.567  35.975  20.101  1.00  0.00     0.017 A 
HETATM   10  C7  UNL     1       8.904  35.581  20.030  1.00  0.00     0.037 A 
HETATM   11  C8  UNL     1       9.674  35.626  18.806  1.00  0.00     0.159 A 
HETATM   12  N2  UNL     1       9.337  36.006  17.597  1.00  0.00    -0.269 N 
ATOM     13  H2  UNL     1       8.424  36.354  17.303  1.00  0.00     0.189 HD
HETATM   14  N3  UNL     1      10.444  35.849  16.800  1.00  0.00    -0.130 N 
ATOM     15  H3  UNL     1      10.490  36.063  15.803  1.00  0.00     0.205 HD
HETATM   16  C9  UNL     1      11.443  35.375  17.530  1.00  0.00     0.707 A 
HETATM   17  N5  UNL     1      10.986  35.220  18.824  1.00  0.00    -0.103 N 
ENDROOT
BRANCH  16  18
HETATM   18  N4  UNL     1      12.714  35.066  17.173  1.00  0.00    -0.200 N 
HETATM   19  C10 UNL     1      13.495  36.076  16.972  1.00  0.00     0.106 C 
ATOM     20  H4  UNL     1      13.032  34.102  17.071  1.00  0.00     0.183 HD
BRANCH  19  21
HETATM   21  C11 UNL     1      14.904  35.871  16.577  1.00  0.00     0.018 C 
HETATM   22  C12 UNL     1      15.203  35.653  15.290  1.00  0.00     0.013 C 
BRANCH  22  23
HETATM   23  C13 UNL     1      16.570  35.428  14.797  1.00  0.00    -0.036 A 
HETATM   24  C14 UNL     1      17.025  35.953  13.580  1.00  0.00     0.011 A 
HETATM   25  C15 UNL     1      18.323  35.690  13.133  1.00  0.00     0.001 A 
HETATM   26  C16 UNL     1      19.175  34.892  13.892  1.00  0.00     0.000 A 
HETATM   27  C17 UNL     1      18.730  34.351  15.095  1.00  0.00     0.001 A 
HETATM   28  C18 UNL     1      17.431  34.612  15.542  1.00  0.00     0.011 A 
ENDBRANCH  22  23
ENDBRANCH  19  21
ENDBRANCH  16  18
TORSDOF 3
ENDMDL
MODEL 3
REMARK minimizedAffinity -7.55980873
REMARK  3 active torsions:
REMARK  status: ('A' for Active; 'I' for Inactive)
REMARK    1  A    between atoms: C9_16  and  N4_17 
REMARK    2  A    between atoms: C10_19  and  C11_20 
REMARK    3  A    between atoms: C12_21  and  C13_22 
ROOT
HETATM    1 CL1  UNL     1      14.539  34.394  19.483  1.00  0.00    -0.044 Cl
HETATM    2  C1  UNL     1      15.100  34.802  17.914  1.00  0.00     0.203 A 
HETATM    3  N1  UNL     1      16.344  34.503  17.658  1.00  0.00    -0.331 N 
ATOM      4  H1  UNL     1      16.922  34.055  18.369  1.00  0.00     0.168 HD
HETATM    5  C2  UNL     1      16.886  34.804  16.385  1.00  0.00     0.048 A 
HETATM    6  C3  UNL     1      18.218  34.480  16.123  1.00  0.00     0.030 A 
HETATM    7  C4  UNL     1      18.780  34.766  14.875  1.00  0.00     0.002 A 
HETATM    8  C5  UNL     1      18.014  35.378  13.881  1.00  0.00     0.001 A 
HETATM    9  C6  UNL     1      16.682  35.709  14.129  1.00  0.00     0.017 A 
HETATM   10  C7  UNL     1      16.124  35.422  15.377  1.00  0.00     0.037 A 
HETATM   11  C8  UNL     1      14.752  35.730  15.715  1.00  0.00     0.159 A 
HETATM   12  N2  UNL     1      13.802  36.294  15.007  1.00  0.00    -0.269 N 
ATOM     13  H2  UNL     1      13.879  36.626  14.046  1.00  0.00     0.189 HD
HETATM   14  N3  UNL     1      12.685  36.352  15.803  1.00  0.00    -0.130 N 
ATOM     15  H3  UNL     1      11.782  36.741  15.528  1.00  0.00     0.205 HD
HETATM   16  C9  UNL     1      12.964  35.825  16.986  1.00  0.00     0.707 A 
HETATM   17  N5  UNL     1      14.282  35.414  16.966  1.00  0.00    -0.103 N 
ENDROOT
BRANCH  16  18
HETATM   18  N4  UNL     1      12.178  35.669  18.079  1.00  0.00    -0.200 N 
HETATM   19  C10 UNL     1      10.907  35.604  17.845  1.00  0.00     0.106 C 
ATOM     20  H4  UNL     1      12.561  35.607  19.022  1.00  0.00     0.183 HD
BRANCH  19  21
HETATM   21  C11 UNL     1       9.945  35.437  18.954  1.00  0.00     0.018 C 
HETATM   22  C12 UNL     1      10.398  35.182  20.188  1.00  0.00     0.013 C 
BRANCH  22  23
HETATM   23  C13 UNL     1       9.524  34.990  21.354  1.00  0.00    -0.036 A 
HETATM   24  C14 UNL     1       8.330  35.703  21.523  1.00  0.00     0.011 A 
HETATM   25  C15 UNL     1       7.542  35.513  22.661  1.00  0.00     0.001 A 
HETATM   26  C16 UNL     1       7.944  34.615  23.647  1.00  0.00     0.000 A 
HETATM   27  C17 UNL     1       9.137  33.911  23.499  1.00  0.00     0.001 A 
HETATM   28  C18 UNL     1       9.926  34.102  22.361  1.00  0.00     0.011 A 
ENDBRANCH  22  23
ENDBRANCH  19  21
ENDBRANCH  16  18
TORSDOF 3
ENDMDL
MODEL 4
REMARK minimizedAffinity -7.46826029
REMARK  3 active torsions:
REMARK  status: ('A' for Active; 'I' for Inactive)
REMARK    1  A    between atoms: C9_16  and  N4_17 
REMARK    2  A    between atoms: C10_19  and  C11_20 
REMARK    3  A    between atoms: C12_21  and  C13_22 
ROOT
HETATM    1 CL1  UNL     1      15.309  33.862  19.171  1.00  0.00    -0.044 Cl
HETATM    2  C1  UNL     1      16.255  34.616  17.955  1.00  0.00     0.203 A 
HETATM    3  N1  UNL     1      17.539  34.667  18.182  1.00  0.00    -0.331 N 
ATOM      4  H1  UNL     1      17.925  34.276  19.042  1.00  0.00     0.168 HD
HETATM    5  C2  UNL     1      18.394  35.271  17.229  1.00  0.00     0.048 A 
HETATM    6  C3  UNL     1      19.765  35.321  17.484  1.00  0.00     0.030 A 
HETATM    7  C4  UNL     1      20.632  35.912  16.560  1.00  0.00     0.002 A 
HETATM    8  C5  UNL     1      20.134  36.457  15.375  1.00  0.00     0.001 A 
HETATM    9  C6  UNL     1      18.766  36.415  15.107  1.00  0.00     0.017 A 
HETATM   10  C7  UNL     1      17.903  35.824  16.032  1.00  0.00     0.037 A 
HETATM   11  C8  UNL     1      16.473  35.739  15.831  1.00  0.00     0.159 A 
HETATM   12  N2  UNL     1      15.722  36.151  14.837  1.00  0.00    -0.269 N 
ATOM     13  H2  UNL     1      16.042  36.627  13.994  1.00  0.00     0.189 HD
HETATM   14  N3  UNL     1      14.425  35.821  15.146  1.00  0.00    -0.130 N 
ATOM     15  H3  UNL     1      13.611  36.014  14.562  1.00  0.00     0.205 HD
HETATM   16  C9  UNL     1      14.399  35.212  16.322  1.00  0.00     0.707 A 
HETATM   17  N5  UNL     1      15.695  35.141  16.792  1.00  0.00    -0.103 N 
ENDROOT
BRANCH  16  18
HETATM   18  N4  UNL     1      13.350  34.714  17.023  1.00  0.00    -0.200 N 
HETATM   19  C10 UNL     1      12.525  35.595  17.488  1.00  0.00     0.106 C 
ATOM     20  H4  UNL     1      13.221  33.713  17.174  1.00  0.00     0.183 HD
BRANCH  19  21
HETATM   21  C11 UNL     1      11.343  35.178  18.272  1.00  0.00     0.018 C 
HETATM   22  C12 UNL     1      10.274  35.983  18.330  1.00  0.00     0.013 C 
BRANCH  22  23
HETATM   23  C13 UNL     1       9.055  35.665  19.088  1.00  0.00    -0.036 A 
HETATM   24  C14 UNL     1       9.043  34.730  20.132  1.00  0.00     0.011 A 
HETATM   25  C15 UNL     1       7.857  34.435  20.809  1.00  0.00     0.001 A 
HETATM   26  C16 UNL     1       6.669  35.063  20.443  1.00  0.00     0.000 A 
HETATM   27  C17 UNL     1       6.664  35.982  19.397  1.00  0.00     0.001 A 
HETATM   28  C18 UNL     1       7.850  36.277  18.719  1.00  0.00     0.011 A 
ENDBRANCH  22  23
ENDBRANCH  19  21
ENDBRANCH  16  18
TORSDOF 3
ENDMDL
MODEL 5
REMARK minimizedAffinity -7.18515825
REMARK  3 active torsions:
REMARK  status: ('A' for Active; 'I' for Inactive)
REMARK    1  A    between atoms: C9_16  and  N4_17 
REMARK    2  A    between atoms: C10_19  and  C11_20 
REMARK    3  A    between atoms: C12_21  and  C13_22 
ROOT
HETATM    1 CL1  UNL     1      13.183  36.770  20.381  1.00  0.00    -0.044 Cl
HETATM    2  C1  UNL     1      11.563  36.304  20.063  1.00  0.00     0.203 A 
HETATM    3  N1  UNL     1      10.787  36.196  21.107  1.00  0.00    -0.331 N 
ATOM      4  H1  UNL     1      11.152  36.384  22.041  1.00  0.00     0.168 HD
HETATM    5  C2  UNL     1       9.434  35.818  20.934  1.00  0.00     0.048 A 
HETATM    6  C3  UNL     1       8.613  35.705  22.057  1.00  0.00     0.030 A 
HETATM    7  C4  UNL     1       7.273  35.333  21.916  1.00  0.00     0.002 A 
HETATM    8  C5  UNL     1       6.745  35.070  20.651  1.00  0.00     0.001 A 
HETATM    9  C6  UNL     1       7.553  35.177  19.519  1.00  0.00     0.017 A 
HETATM   10  C7  UNL     1       8.891  35.550  19.664  1.00  0.00     0.037 A 
HETATM   11  C8  UNL     1       9.796  35.685  18.543  1.00  0.00     0.159 A 
HETATM   12  N2  UNL     1       9.599  35.509  17.258  1.00  0.00    -0.269 N 
ATOM     13  H2  UNL     1       8.725  35.233  16.812  1.00  0.00     0.189 HD
HETATM   14  N3  UNL     1      10.791  35.768  16.627  1.00  0.00    -0.130 N 
ATOM     15  H3  UNL     1      10.951  35.714  15.621  1.00  0.00     0.205 HD
HETATM   16  C9  UNL     1      11.700  36.097  17.532  1.00  0.00     0.707 A 
HETATM   17  N5  UNL     1      11.098  36.055  18.774  1.00  0.00    -0.103 N 
ENDROOT
BRANCH  16  18
HETATM   18  N4  UNL     1      13.005  36.430  17.376  1.00  0.00    -0.200 N 
HETATM   19  C10 UNL     1      13.802  35.446  17.113  1.00  0.00     0.106 C 
ATOM     20  H4  UNL     1      13.337  37.392  17.461  1.00  0.00     0.183 HD
BRANCH  19  21
HETATM   21  C11 UNL     1      15.249  35.679  16.923  1.00  0.00     0.018 C 
HETATM   22  C12 UNL     1      16.131  34.863  17.514  1.00  0.00     0.013 C 
BRANCH  22  23
HETATM   23  C13 UNL     1      17.588  35.015  17.396  1.00  0.00    -0.036 A 
HETATM   24  C14 UNL     1      18.423  35.149  18.514  1.00  0.00     0.011 A 
HETATM   25  C15 UNL     1      19.801  35.322  18.358  1.00  0.00     0.001 A 
HETATM   26  C16 UNL     1      20.357  35.374  17.082  1.00  0.00     0.000 A 
HETATM   27  C17 UNL     1      19.538  35.259  15.962  1.00  0.00     0.001 A 
HETATM   28  C18 UNL     1      18.159  35.087  16.118  1.00  0.00     0.011 A 
ENDBRANCH  22  23
ENDBRANCH  19  21
ENDBRANCH  16  18
TORSDOF 3
ENDMDL
MODEL 6
REMARK minimizedAffinity -7.17900991
REMARK  3 active torsions:
REMARK  status: ('A' for Active; 'I' for Inactive)
REMARK    1  A    between atoms: C9_16  and  N4_17 
REMARK    2  A    between atoms: C10_19  and  C11_20 
REMARK    3  A    between atoms: C12_21  and  C13_22 
ROOT
HETATM    1 CL1  UNL     1      19.037  52.399   7.441  1.00  0.00    -0.044 Cl
HETATM    2  C1  UNL     1      18.856  50.715   7.172  1.00  0.00     0.203 A 
HETATM    3  N1  UNL     1      19.494  49.934   8.000  1.00  0.00    -0.331 N 
ATOM      4  H1  UNL     1      20.058  50.332   8.750  1.00  0.00     0.168 HD
HETATM    5  C2  UNL     1      19.397  48.530   7.851  1.00  0.00     0.048 A 
HETATM    6  C3  UNL     1      20.083  47.704   8.742  1.00  0.00     0.030 A 
HETATM    7  C4  UNL     1      20.006  46.314   8.618  1.00  0.00     0.002 A 
HETATM    8  C5  UNL     1      19.241  45.739   7.601  1.00  0.00     0.001 A 
HETATM    9  C6  UNL     1      18.550  46.551   6.702  1.00  0.00     0.017 A 
HETATM   10  C7  UNL     1      18.629  47.939   6.829  1.00  0.00     0.037 A 
HETATM   11  C8  UNL     1      17.944  48.851   5.941  1.00  0.00     0.159 A 
HETATM   12  N2  UNL     1      17.164  48.620   4.911  1.00  0.00    -0.269 N 
ATOM     13  H2  UNL     1      16.898  47.705   4.547  1.00  0.00     0.189 HD
HETATM   14  N3  UNL     1      16.774  49.840   4.416  1.00  0.00    -0.130 N 
ATOM     15  H3  UNL     1      16.163  49.983   3.613  1.00  0.00     0.205 HD
HETATM   16  C9  UNL     1      17.319  50.801   5.147  1.00  0.00     0.707 A 
HETATM   17  N5  UNL     1      18.076  50.204   6.136  1.00  0.00    -0.103 N 
ENDROOT
BRANCH  16  18
HETATM   18  N4  UNL     1      17.217  52.148   5.032  1.00  0.00    -0.200 N 
HETATM   19  C10 UNL     1      16.028  52.631   5.194  1.00  0.00     0.106 C 
ATOM     20  H4  UNL     1      18.023  52.741   4.832  1.00  0.00     0.183 HD
BRANCH  19  21
HETATM   21  C11 UNL     1      15.786  54.085   5.091  1.00  0.00     0.018 C 
HETATM   22  C12 UNL     1      14.566  54.529   4.763  1.00  0.00     0.013 C 
BRANCH  22  23
HETATM   23  C13 UNL     1      14.226  55.953   4.626  1.00  0.00    -0.036 A 
HETATM   24  C14 UNL     1      14.592  56.908   5.584  1.00  0.00     0.011 A 
HETATM   25  C15 UNL     1      14.223  58.247   5.430  1.00  0.00     0.001 A 
HETATM   26  C16 UNL     1      13.476  58.643   4.323  1.00  0.00     0.000 A 
HETATM   27  C17 UNL     1      13.092  57.701   3.372  1.00  0.00     0.001 A 
HETATM   28  C18 UNL     1      13.460  56.361   3.526  1.00  0.00     0.011 A 
ENDBRANCH  22  23
ENDBRANCH  19  21
ENDBRANCH  16  18
TORSDOF 3
ENDMDL
MODEL 7
REMARK minimizedAffinity -7.03094292
REMARK  3 active torsions:
REMARK  status: ('A' for Active; 'I' for Inactive)
REMARK    1  A    between atoms: C9_16  and  N4_17 
REMARK    2  A    between atoms: C10_19  and  C11_20 
REMARK    3  A    between atoms: C12_21  and  C13_22 
ROOT
HETATM    1 CL1  UNL     1      14.642  37.936  18.373  1.00  0.00    -0.044 Cl
HETATM    2  C1  UNL     1      15.763  37.583  17.123  1.00  0.00     0.203 A 
HETATM    3  N1  UNL     1      16.942  38.132  17.245  1.00  0.00    -0.331 N 
ATOM      4  H1  UNL     1      17.151  38.729  18.044  1.00  0.00     0.168 HD
HETATM    5  C2  UNL     1      17.928  37.891  16.258  1.00  0.00     0.048 A 
HETATM    6  C3  UNL     1      19.184  38.483  16.398  1.00  0.00     0.030 A 
HETATM    7  C4  UNL     1      20.177  38.264  15.439  1.00  0.00     0.002 A 
HETATM    8  C5  UNL     1      19.921  37.451  14.333  1.00  0.00     0.001 A 
HETATM    9  C6  UNL     1      18.670  36.853  14.180  1.00  0.00     0.017 A 
HETATM   10  C7  UNL     1      17.681  37.074  15.139  1.00  0.00     0.037 A 
HETATM   11  C8  UNL     1      16.359  36.493  15.056  1.00  0.00     0.159 A 
HETATM   12  N2  UNL     1      15.828  35.701  14.155  1.00  0.00    -0.269 N 
ATOM     13  H2  UNL     1      16.286  35.344  13.317  1.00  0.00     0.189 HD
HETATM   14  N3  UNL     1      14.539  35.442  14.553  1.00  0.00    -0.130 N 
ATOM     15  H3  UNL     1      13.873  34.854  14.053  1.00  0.00     0.205 HD
HETATM   16  C9  UNL     1      14.298  36.077  15.690  1.00  0.00     0.707 A 
HETATM   17  N5  UNL     1      15.444  36.762  16.044  1.00  0.00    -0.103 N 
ENDROOT
BRANCH  16  18
HETATM   18  N4  UNL     1      13.174  36.116  16.447  1.00  0.00    -0.200 N 
HETATM   19  C10 UNL     1      12.961  35.072  17.179  1.00  0.00     0.106 C 
ATOM     20  H4  UNL     1      12.539  36.915  16.439  1.00  0.00     0.183 HD
BRANCH  19  21
HETATM   21  C11 UNL     1      11.768  34.991  18.047  1.00  0.00     0.018 C 
HETATM   22  C12 UNL     1      10.711  35.773  17.790  1.00  0.00     0.013 C 
BRANCH  22  23
HETATM   23  C13 UNL     1       9.483  35.775  18.598  1.00  0.00    -0.036 A 
HETATM   24  C14 UNL     1       8.341  36.497  18.226  1.00  0.00     0.011 A 
HETATM   25  C15 UNL     1       7.204  36.497  19.038  1.00  0.00     0.001 A 
HETATM   26  C16 UNL     1       7.199  35.784  20.234  1.00  0.00     0.000 A 
HETATM   27  C17 UNL     1       8.333  35.075  20.623  1.00  0.00     0.001 A 
HETATM   28  C18 UNL     1       9.472  35.076  19.812  1.00  0.00     0.011 A 
ENDBRANCH  22  23
ENDBRANCH  19  21
ENDBRANCH  16  18
TORSDOF 3
ENDMDL
MODEL 8
REMARK minimizedAffinity -6.99398613
REMARK  3 active torsions:
REMARK  status: ('A' for Active; 'I' for Inactive)
REMARK    1  A    between atoms: C9_16  and  N4_17 
REMARK    2  A    between atoms: C10_19  and  C11_20 
REMARK    3  A    between atoms: C12_21  and  C13_22 
ROOT
HETATM    1 CL1  UNL     1      15.995  34.156  17.907  1.00  0.00    -0.044 Cl
HETATM    2  C1  UNL     1      14.326  34.526  18.058  1.00  0.00     0.203 A 
HETATM    3  N1  UNL     1      13.742  34.091  19.141  1.00  0.00    -0.331 N 
ATOM      4  H1  UNL     1      14.273  33.564  19.835  1.00  0.00     0.168 HD
HETATM    5  C2  UNL     1      12.367  34.354  19.346  1.00  0.00     0.048 A 
HETATM    6  C3  UNL     1      11.753  33.884  20.507  1.00  0.00     0.030 A 
HETATM    7  C4  UNL     1      10.396  34.129  20.736  1.00  0.00     0.002 A 
HETATM    8  C5  UNL     1       9.643  34.846  19.804  1.00  0.00     0.001 A 
HETATM    9  C6  UNL     1      10.243  35.322  18.638  1.00  0.00     0.017 A 
HETATM   10  C7  UNL     1      11.598  35.076  18.413  1.00  0.00     0.037 A 
HETATM   11  C8  UNL     1      12.296  35.534  17.232  1.00  0.00     0.159 A 
HETATM   12  N2  UNL     1      11.871  36.220  16.198  1.00  0.00    -0.269 N 
ATOM     13  H2  UNL     1      10.922  36.562  16.048  1.00  0.00     0.189 HD
HETATM   14  N3  UNL     1      12.942  36.390  15.356  1.00  0.00    -0.130 N 
ATOM     15  H3  UNL     1      12.920  36.885  14.465  1.00  0.00     0.205 HD
HETATM   16  C9  UNL     1      14.008  35.807  15.884  1.00  0.00     0.707 A 
HETATM   17  N5  UNL     1      13.632  35.248  17.089  1.00  0.00    -0.103 N 
ENDROOT
BRANCH  16  18
HETATM   18  N4  UNL     1      15.276  35.718  15.413  1.00  0.00    -0.200 N 
HETATM   19  C10 UNL     1      15.398  35.173  14.247  1.00  0.00     0.106 C 
ATOM     20  H4  UNL     1      16.080  36.057  15.943  1.00  0.00     0.183 HD
BRANCH  19  21
HETATM   21  C11 UNL     1      16.729  35.016  13.625  1.00  0.00     0.018 C 
HETATM   22  C12 UNL     1      16.899  34.115  12.648  1.00  0.00     0.013 C 
BRANCH  22  23
HETATM   23  C13 UNL     1      18.183  33.876  11.974  1.00  0.00    -0.036 A 
HETATM   24  C14 UNL     1      18.327  32.937  10.943  1.00  0.00     0.011 A 
HETATM   25  C15 UNL     1      19.572  32.718  10.349  1.00  0.00     0.001 A 
HETATM   26  C16 UNL     1      20.689  33.428  10.785  1.00  0.00     0.000 A 
HETATM   27  C17 UNL     1      20.563  34.352  11.819  1.00  0.00     0.001 A 
HETATM   28  C18 UNL     1      19.318  34.570  12.415  1.00  0.00     0.011 A 
ENDBRANCH  22  23
ENDBRANCH  19  21
ENDBRANCH  16  18
TORSDOF 3
ENDMDL
MODEL 9
REMARK minimizedAffinity -6.9449234
REMARK  3 active torsions:
REMARK  status: ('A' for Active; 'I' for Inactive)
REMARK    1  A    between atoms: C9_16  and  N4_17 
REMARK    2  A    between atoms: C10_19  and  C11_20 
REMARK    3  A    between atoms: C12_21  and  C13_22 
ROOT
HETATM    1 CL1  UNL     1      16.222  36.403  17.866  1.00  0.00    -0.044 Cl
HETATM    2  C1  UNL     1      14.595  35.946  18.159  1.00  0.00     0.203 A 
HETATM    3  N1  UNL     1      14.352  35.427  19.332  1.00  0.00    -0.331 N 
ATOM      4  H1  UNL     1      15.105  35.312  20.009  1.00  0.00     0.168 HD
HETATM    5  C2  UNL     1      13.034  35.024  19.656  1.00  0.00     0.048 A 
HETATM    6  C3  UNL     1      12.786  34.469  20.912  1.00  0.00     0.030 A 
HETATM    7  C4  UNL     1      11.495  34.062  21.260  1.00  0.00     0.002 A 
HETATM    8  C5  UNL     1      10.443  34.206  20.354  1.00  0.00     0.001 A 
HETATM    9  C6  UNL     1      10.676  34.758  19.094  1.00  0.00     0.017 A 
HETATM   10  C7  UNL     1      11.967  35.164  18.750  1.00  0.00     0.037 A 
HETATM   11  C8  UNL     1      12.293  35.746  17.467  1.00  0.00     0.159 A 
HETATM   12  N2  UNL     1      11.536  36.005  16.428  1.00  0.00    -0.269 N 
ATOM     13  H2  UNL     1      10.535  35.830  16.349  1.00  0.00     0.189 HD
HETATM   14  N3  UNL     1      12.345  36.558  15.466  1.00  0.00    -0.130 N 
ATOM     15  H3  UNL     1      12.041  36.865  14.542  1.00  0.00     0.205 HD
HETATM   16  C9  UNL     1      13.585  36.630  15.927  1.00  0.00     0.707 A 
HETATM   17  N5  UNL     1      13.590  36.118  17.210  1.00  0.00    -0.103 N 
ENDROOT
BRANCH  16  18
HETATM   18  N4  UNL     1      14.711  37.099  15.335  1.00  0.00    -0.200 N 
HETATM   19  C10 UNL     1      14.860  38.383  15.367  1.00  0.00     0.106 C 
ATOM     20  H4  UNL     1      15.393  36.481  14.895  1.00  0.00     0.183 HD
BRANCH  19  21
HETATM   21  C11 UNL     1      16.046  39.018  14.754  1.00  0.00     0.018 C 
HETATM   22  C12 UNL     1      16.199  40.346  14.835  1.00  0.00     0.013 C 
BRANCH  22  23
HETATM   23  C13 UNL     1      17.335  41.072  14.250  1.00  0.00    -0.036 A 
HETATM   24  C14 UNL     1      17.181  42.294  13.581  1.00  0.00     0.011 A 
HETATM   25  C15 UNL     1      18.284  42.939  13.013  1.00  0.00     0.001 A 
HETATM   26  C16 UNL     1      19.549  42.364  13.099  1.00  0.00     0.000 A 
HETATM   27  C17 UNL     1      19.714  41.142  13.747  1.00  0.00     0.001 A 
HETATM   28  C18 UNL     1      18.611  40.496  14.314  1.00  0.00     0.011 A 
ENDBRANCH  22  23
ENDBRANCH  19  21
ENDBRANCH  16  18
TORSDOF 3
ENDMDL
