MODEL 1
REMARK minimizedAffinity -8.08955288
REMARK  5 active torsions:
REMARK  status: ('A' for Active; 'I' for Inactive)
REMARK    1  A    between atoms: C5_6  and  C6_7 
REMARK    2  A    between atoms: C6_7  and  O1_8 
REMARK    3  A    between atoms: O1_8  and  C7_9 
REMARK    4  A    between atoms: C10_12  and  N1_13 
REMARK    5  A    between atoms: N1_13  and  C11_14 
ROOT
HETATM    1  N1  UNL     1      11.833  34.454  18.974  1.00  0.00    -0.342 N 
HETATM    2  H8  UNL     1      11.811  33.815  19.754  1.00  0.00     0.167 HD
ENDROOT
BRANCH   1   3
HETATM    3  C10 UNL     1      13.132  34.835  18.586  1.00  0.00     0.035 A 
HETATM    4  C9  UNL     1      14.179  33.930  18.373  1.00  0.00     0.032 A 
HETATM    5  C8  UNL     1      15.460  34.368  18.020  1.00  0.00     0.041 A 
HETATM    6  C7  UNL     1      15.721  35.730  17.907  1.00  0.00     0.091 A 
HETATM    7  C21 UNL     1      14.696  36.652  18.112  1.00  0.00     0.069 A 
HETATM    8  C20 UNL     1      13.416  36.205  18.461  1.00  0.00     0.056 A 
HETATM    9 CL1  UNL     1      14.966  38.350  17.960  1.00  0.00    -0.081 Cl
BRANCH   6  10
HETATM   10  O1  UNL     1      16.980  36.119  17.534  1.00  0.00    -0.345 OA
BRANCH  10  11
HETATM   11  C6  UNL     1      16.973  36.733  16.237  1.00  0.00     0.214 C 
BRANCH  11  12
HETATM   12  C5  UNL     1      17.250  35.697  15.174  1.00  0.00    -0.031 A 
HETATM   13  C4  UNL     1      18.422  34.924  15.222  1.00  0.00     0.009 A 
HETATM   14  C3  UNL     1      18.685  33.964  14.242  1.00  0.00     0.004 A 
HETATM   15  C2  UNL     1      17.778  33.768  13.202  1.00  0.00     0.042 A 
HETATM   16  C1  UNL     1      16.620  34.535  13.150  1.00  0.00     0.117 A 
HETATM   17  F1  UNL     1      15.750  34.347  12.150  1.00  0.00    -0.206 F 
HETATM   18  C22 UNL     1      16.348  35.493  14.121  1.00  0.00     0.051 A 
ENDBRANCH  11  12
ENDBRANCH  10  11
ENDBRANCH   6  10
ENDBRANCH   1   3
BRANCH   1  19
HETATM   19  C11 UNL     1      10.576  35.010  18.707  1.00  0.00     0.123 A 
HETATM   20  N2  UNL     1      10.230  35.489  17.474  1.00  0.00    -0.338 N 
HETATM   21  C12 UNL     1       9.016  36.088  17.275  1.00  0.00     0.183 A 
ATOM     22  H2  UNL     1      10.883  35.399  16.696  1.00  0.00     0.168 HD
HETATM   23  N3  UNL     1       8.008  36.312  18.145  1.00  0.00    -0.337 N 
HETATM   24  C13 UNL     1       8.311  35.832  19.371  1.00  0.00     0.137 A 
ATOM     25  H3  UNL     1       7.133  36.782  17.908  1.00  0.00     0.168 HD
HETATM   26  N4  UNL     1       7.524  35.896  20.441  1.00  0.00    -0.278 N 
HETATM   27  C19 UNL     1       9.549  35.193  19.651  1.00  0.00     0.082 A 
HETATM   28  N5  UNL     1       8.223  35.278  21.421  1.00  0.00    -0.265 N 
ATOM     29  H4  UNL     1       6.598  36.318  20.507  1.00  0.00     0.189 HD
HETATM   30  C14 UNL     1       7.800  35.106  22.742  1.00  0.00     0.116 A 
HETATM   31  C18 UNL     1       9.468  34.798  20.968  1.00  0.00     0.073 A 
HETATM   32  C15 UNL     1       8.571  34.453  23.623  1.00  0.00     0.019 A 
HETATM   33  C16 UNL     1       9.836  33.909  23.171  1.00  0.00     0.004 A 
HETATM   34  C17 UNL     1      10.264  34.067  21.904  1.00  0.00     0.032 A 
ENDBRANCH   1  19
TORSDOF 5
ENDMDL
MODEL 2
REMARK minimizedAffinity -8.06112385
REMARK  5 active torsions:
REMARK  status: ('A' for Active; 'I' for Inactive)
REMARK    1  A    between atoms: C5_6  and  C6_7 
REMARK    2  A    between atoms: C6_7  and  O1_8 
REMARK    3  A    between atoms: O1_8  and  C7_9 
REMARK    4  A    between atoms: C10_12  and  N1_13 
REMARK    5  A    between atoms: N1_13  and  C11_14 
ROOT
HETATM    1  N1  UNL     1      12.187  35.539  17.559  1.00  0.00    -0.342 N 
HETATM    2  H8  UNL     1      11.703  35.130  16.774  1.00  0.00     0.167 HD
ENDROOT
BRANCH   1   3
HETATM    3  C10 UNL     1      13.189  36.458  17.194  1.00  0.00     0.035 A 
HETATM    4  C9  UNL     1      13.469  36.822  15.871  1.00  0.00     0.032 A 
HETATM    5  C8  UNL     1      14.500  37.717  15.565  1.00  0.00     0.041 A 
HETATM    6  C7  UNL     1      15.292  38.238  16.582  1.00  0.00     0.091 A 
HETATM    7  C21 UNL     1      15.034  37.893  17.908  1.00  0.00     0.069 A 
HETATM    8  C20 UNL     1      13.998  37.000  18.207  1.00  0.00     0.056 A 
HETATM    9 CL1  UNL     1      15.974  38.532  19.207  1.00  0.00    -0.081 Cl
BRANCH   6  10
HETATM   10  O1  UNL     1      16.274  39.131  16.245  1.00  0.00    -0.345 OA
BRANCH  10  11
HETATM   11  C6  UNL     1      16.092  39.627  14.911  1.00  0.00     0.214 C 
BRANCH  11  12
HETATM   12  C5  UNL     1      16.545  41.064  14.828  1.00  0.00    -0.031 A 
HETATM   13  C4  UNL     1      16.513  41.887  15.967  1.00  0.00     0.009 A 
HETATM   14  C3  UNL     1      16.930  43.218  15.897  1.00  0.00     0.004 A 
HETATM   15  C2  UNL     1      17.383  43.741  14.687  1.00  0.00     0.042 A 
HETATM   16  C1  UNL     1      17.413  42.930  13.559  1.00  0.00     0.117 A 
HETATM   17  F1  UNL     1      17.847  43.433  12.397  1.00  0.00    -0.206 F 
HETATM   18  C22 UNL     1      17.000  41.603  13.617  1.00  0.00     0.051 A 
ENDBRANCH  11  12
ENDBRANCH  10  11
ENDBRANCH   6  10
ENDBRANCH   1   3
BRANCH   1  19
HETATM   19  C11 UNL     1      11.936  34.852  18.753  1.00  0.00     0.123 A 
HETATM   20  N2  UNL     1      12.886  34.092  19.377  1.00  0.00    -0.338 N 
HETATM   21  C12 UNL     1      12.579  33.382  20.506  1.00  0.00     0.183 A 
ATOM     22  H2  UNL     1      13.832  34.053  18.998  1.00  0.00     0.168 HD
HETATM   23  N3  UNL     1      11.411  33.285  21.177  1.00  0.00    -0.337 N 
HETATM   24  C13 UNL     1      10.455  34.043  20.595  1.00  0.00     0.137 A 
ATOM     25  H3  UNL     1      11.269  32.715  22.012  1.00  0.00     0.168 HD
HETATM   26  N4  UNL     1       9.201  34.161  21.020  1.00  0.00    -0.278 N 
HETATM   27  C19 UNL     1      10.701  34.811  19.427  1.00  0.00     0.082 A 
HETATM   28  N5  UNL     1       8.623  35.026  20.154  1.00  0.00    -0.265 N 
ATOM     29  H4  UNL     1       8.769  33.701  21.822  1.00  0.00     0.189 HD
HETATM   30  C14 UNL     1       7.293  35.454  20.192  1.00  0.00     0.116 A 
HETATM   31  C18 UNL     1       9.525  35.479  19.171  1.00  0.00     0.073 A 
HETATM   32  C15 UNL     1       6.837  36.336  19.291  1.00  0.00     0.019 A 
HETATM   33  C16 UNL     1       7.757  36.853  18.297  1.00  0.00     0.004 A 
HETATM   34  C17 UNL     1       9.040  36.451  18.241  1.00  0.00     0.032 A 
ENDBRANCH   1  19
TORSDOF 5
ENDMDL
MODEL 3
REMARK minimizedAffinity -8.05543709
REMARK  5 active torsions:
REMARK  status: ('A' for Active; 'I' for Inactive)
REMARK    1  A    between atoms: C5_6  and  C6_7 
REMARK    2  A    between atoms: C6_7  and  O1_8 
REMARK    3  A    between atoms: O1_8  and  C7_9 
REMARK    4  A    between atoms: C10_12  and  N1_13 
REMARK    5  A    between atoms: N1_13  and  C11_14 
ROOT
HETATM    1  N1  UNL     1      11.698  34.592  19.137  1.00  0.00    -0.342 N 
HETATM    2  H8  UNL     1      11.752  34.158  20.045  1.00  0.00     0.167 HD
ENDROOT
BRANCH   1   3
HETATM    3  C10 UNL     1      12.951  34.826  18.541  1.00  0.00     0.035 A 
HETATM    4  C9  UNL     1      13.124  35.148  17.189  1.00  0.00     0.032 A 
HETATM    5  C8  UNL     1      14.398  35.339  16.643  1.00  0.00     0.041 A 
HETATM    6  C7  UNL     1      15.527  35.177  17.440  1.00  0.00     0.091 A 
HETATM    7  C21 UNL     1      15.382  34.858  18.790  1.00  0.00     0.069 A 
HETATM    8  C20 UNL     1      14.104  34.673  19.329  1.00  0.00     0.056 A 
HETATM    9 CL1  UNL     1      16.751  34.670  19.824  1.00  0.00    -0.081 Cl
BRANCH   6  10
HETATM   10  O1  UNL     1      16.755  35.398  16.876  1.00  0.00    -0.345 OA
BRANCH  10  11
HETATM   11  C6  UNL     1      16.633  36.035  15.596  1.00  0.00     0.214 C 
BRANCH  11  12
HETATM   12  C5  UNL     1      17.119  35.108  14.509  1.00  0.00    -0.031 A 
HETATM   13  C4  UNL     1      16.348  34.902  13.352  1.00  0.00     0.009 A 
HETATM   14  C3  UNL     1      16.792  34.045  12.343  1.00  0.00     0.004 A 
HETATM   15  C2  UNL     1      18.010  33.383  12.479  1.00  0.00     0.042 A 
HETATM   16  C1  UNL     1      18.773  33.583  13.624  1.00  0.00     0.117 A 
HETATM   17  F1  UNL     1      19.943  32.946  13.755  1.00  0.00    -0.206 F 
HETATM   18  C22 UNL     1      18.341  34.434  14.636  1.00  0.00     0.051 A 
ENDBRANCH  11  12
ENDBRANCH  10  11
ENDBRANCH   6  10
ENDBRANCH   1   3
BRANCH   1  19
HETATM   19  C11 UNL     1      10.424  35.110  18.873  1.00  0.00     0.123 A 
HETATM   20  N2  UNL     1      10.045  35.532  17.628  1.00  0.00    -0.338 N 
HETATM   21  C12 UNL     1       8.815  36.096  17.429  1.00  0.00     0.183 A 
ATOM     22  H2  UNL     1      10.686  35.425  16.841  1.00  0.00     0.168 HD
HETATM   23  N3  UNL     1       7.818  36.334  18.308  1.00  0.00    -0.337 N 
HETATM   24  C13 UNL     1       8.154  35.910  19.546  1.00  0.00     0.137 A 
ATOM     25  H3  UNL     1       6.929  36.776  18.070  1.00  0.00     0.168 HD
HETATM   26  N4  UNL     1       7.385  36.000  20.627  1.00  0.00    -0.278 N 
HETATM   27  C19 UNL     1       9.410  35.309  19.828  1.00  0.00     0.082 A 
HETATM   28  N5  UNL     1       8.115  35.436  21.618  1.00  0.00    -0.265 N 
ATOM     29  H4  UNL     1       6.451  36.404  20.695  1.00  0.00     0.189 HD
HETATM   30  C14 UNL     1       7.721  35.309  22.952  1.00  0.00     0.116 A 
HETATM   31  C18 UNL     1       9.362  34.965  21.160  1.00  0.00     0.073 A 
HETATM   32  C15 UNL     1       8.522  34.708  23.844  1.00  0.00     0.019 A 
HETATM   33  C16 UNL     1       9.790  34.173  23.389  1.00  0.00     0.004 A 
HETATM   34  C17 UNL     1      10.191  34.289  22.110  1.00  0.00     0.032 A 
ENDBRANCH   1  19
TORSDOF 5
ENDMDL
MODEL 4
REMARK minimizedAffinity -7.99641562
REMARK  5 active torsions:
REMARK  status: ('A' for Active; 'I' for Inactive)
REMARK    1  A    between atoms: C5_6  and  C6_7 
REMARK    2  A    between atoms: C6_7  and  O1_8 
REMARK    3  A    between atoms: O1_8  and  C7_9 
REMARK    4  A    between atoms: C10_12  and  N1_13 
REMARK    5  A    between atoms: N1_13  and  C11_14 
ROOT
HETATM    1  N1  UNL     1      12.458  36.027  18.015  1.00  0.00    -0.342 N 
HETATM    2  H8  UNL     1      11.641  36.349  17.520  1.00  0.00     0.167 HD
ENDROOT
BRANCH   1   3
HETATM    3  C10 UNL     1      13.664  36.227  17.316  1.00  0.00     0.035 A 
HETATM    4  C9  UNL     1      13.886  37.291  16.434  1.00  0.00     0.032 A 
HETATM    5  C8  UNL     1      15.093  37.422  15.740  1.00  0.00     0.041 A 
HETATM    6  C7  UNL     1      16.091  36.465  15.896  1.00  0.00     0.091 A 
HETATM    7  C21 UNL     1      15.896  35.397  16.770  1.00  0.00     0.069 A 
HETATM    8  C20 UNL     1      14.686  35.275  17.463  1.00  0.00     0.056 A 
HETATM    9 CL1  UNL     1      17.113  34.197  17.014  1.00  0.00    -0.081 Cl
BRANCH   6  10
HETATM   10  O1  UNL     1      17.269  36.642  15.220  1.00  0.00    -0.345 OA
BRANCH  10  11
HETATM   11  C6  UNL     1      17.036  37.062  13.868  1.00  0.00     0.214 C 
BRANCH  11  12
HETATM   12  C5  UNL     1      17.406  35.953  12.913  1.00  0.00    -0.031 A 
HETATM   13  C4  UNL     1      18.497  36.100  12.039  1.00  0.00     0.009 A 
HETATM   14  C3  UNL     1      18.844  35.078  11.153  1.00  0.00     0.004 A 
HETATM   15  C2  UNL     1      18.103  33.898  11.129  1.00  0.00     0.042 A 
HETATM   16  C1  UNL     1      17.022  33.751  11.990  1.00  0.00     0.117 A 
HETATM   17  F1  UNL     1      16.310  32.618  11.967  1.00  0.00    -0.206 F 
HETATM   18  C22 UNL     1      16.667  34.762  12.878  1.00  0.00     0.051 A 
ENDBRANCH  11  12
ENDBRANCH  10  11
ENDBRANCH   6  10
ENDBRANCH   1   3
BRANCH   1  19
HETATM   19  C11 UNL     1      12.132  35.206  19.101  1.00  0.00     0.123 A 
HETATM   20  N2  UNL     1      13.067  34.469  19.774  1.00  0.00    -0.338 N 
HETATM   21  C12 UNL     1      12.694  33.626  20.785  1.00  0.00     0.183 A 
ATOM     22  H2  UNL     1      14.052  34.548  19.519  1.00  0.00     0.168 HD
HETATM   23  N3  UNL     1      11.468  33.365  21.288  1.00  0.00    -0.337 N 
HETATM   24  C13 UNL     1      10.522  34.094  20.656  1.00  0.00     0.137 A 
ATOM     25  H3  UNL     1      11.281  32.704  22.043  1.00  0.00     0.168 HD
HETATM   26  N4  UNL     1       9.220  34.063  20.923  1.00  0.00    -0.278 N 
HETATM   27  C19 UNL     1      10.834  34.993  19.602  1.00  0.00     0.082 A 
HETATM   28  N5  UNL     1       8.671  34.959  20.069  1.00  0.00    -0.265 N 
ATOM     29  H4  UNL     1       8.740  33.491  21.618  1.00  0.00     0.189 HD
HETATM   30  C14 UNL     1       7.312  35.268  19.972  1.00  0.00     0.116 A 
HETATM   31  C18 UNL     1       9.638  35.582  19.256  1.00  0.00     0.073 A 
HETATM   32  C15 UNL     1       6.886  36.194  19.101  1.00  0.00     0.019 A 
HETATM   33  C16 UNL     1       7.865  36.884  18.285  1.00  0.00     0.004 A 
HETATM   34  C17 UNL     1       9.179  36.599  18.361  1.00  0.00     0.032 A 
ENDBRANCH   1  19
TORSDOF 5
ENDMDL
MODEL 5
REMARK minimizedAffinity -7.95732498
REMARK  5 active torsions:
REMARK  status: ('A' for Active; 'I' for Inactive)
REMARK    1  A    between atoms: C5_6  and  C6_7 
REMARK    2  A    between atoms: C6_7  and  O1_8 
REMARK    3  A    between atoms: O1_8  and  C7_9 
REMARK    4  A    between atoms: C10_12  and  N1_13 
REMARK    5  A    between atoms: N1_13  and  C11_14 
ROOT
HETATM    1  N1  UNL     1      16.220  35.328  15.226  1.00  0.00    -0.342 N 
HETATM    2  H8  UNL     1      16.485  34.363  15.097  1.00  0.00     0.167 HD
ENDROOT
BRANCH   1   3
HETATM    3  C10 UNL     1      15.184  35.514  16.162  1.00  0.00     0.035 A 
HETATM    4  C9  UNL     1      13.935  36.061  15.844  1.00  0.00     0.032 A 
HETATM    5  C8  UNL     1      12.954  36.253  16.822  1.00  0.00     0.041 A 
HETATM    6  C7  UNL     1      13.222  35.928  18.148  1.00  0.00     0.091 A 
HETATM    7  C21 UNL     1      14.457  35.380  18.491  1.00  0.00     0.069 A 
HETATM    8  C20 UNL     1      15.432  35.187  17.506  1.00  0.00     0.056 A 
HETATM    9 CL1  UNL     1      14.827  34.939  20.118  1.00  0.00    -0.081 Cl
BRANCH   6  10
HETATM   10  O1  UNL     1      12.227  36.106  19.072  1.00  0.00    -0.345 OA
BRANCH  10  11
HETATM   11  C6  UNL     1      11.383  34.948  19.158  1.00  0.00     0.214 C 
BRANCH  11  12
HETATM   12  C5  UNL     1       9.935  35.368  19.223  1.00  0.00    -0.031 A 
HETATM   13  C4  UNL     1       9.439  36.350  18.347  1.00  0.00     0.009 A 
HETATM   14  C3  UNL     1       8.100  36.743  18.402  1.00  0.00     0.004 A 
HETATM   15  C2  UNL     1       7.242  36.161  19.333  1.00  0.00     0.042 A 
HETATM   16  C1  UNL     1       7.732  35.193  20.202  1.00  0.00     0.117 A 
HETATM   17  F1  UNL     1       6.908  34.635  21.098  1.00  0.00    -0.206 F 
HETATM   18  C22 UNL     1       9.063  34.793  20.157  1.00  0.00     0.051 A 
ENDBRANCH  11  12
ENDBRANCH  10  11
ENDBRANCH   6  10
ENDBRANCH   1   3
BRANCH   1  19
HETATM   19  C11 UNL     1      16.738  36.159  14.226  1.00  0.00     0.123 A 
HETATM   20  N2  UNL     1      16.677  37.523  14.298  1.00  0.00    -0.338 N 
HETATM   21  C12 UNL     1      17.133  38.297  13.266  1.00  0.00     0.183 A 
ATOM     22  H2  UNL     1      16.288  37.968  15.129  1.00  0.00     0.168 HD
HETATM   23  N3  UNL     1      17.681  37.932  12.086  1.00  0.00    -0.337 N 
HETATM   24  C13 UNL     1      17.774  36.587  11.992  1.00  0.00     0.137 A 
ATOM     25  H3  UNL     1      17.985  38.585  11.363  1.00  0.00     0.168 HD
HETATM   26  N4  UNL     1      18.271  35.920  10.955  1.00  0.00    -0.278 N 
HETATM   27  C19 UNL     1      17.327  35.721  13.025  1.00  0.00     0.082 A 
HETATM   28  N5  UNL     1      18.181  34.616  11.309  1.00  0.00    -0.265 N 
ATOM     29  H4  UNL     1      18.639  36.305  10.085  1.00  0.00     0.189 HD
HETATM   30  C14 UNL     1      18.577  33.529  10.526  1.00  0.00     0.116 A 
HETATM   31  C18 UNL     1      17.633  34.449  12.596  1.00  0.00     0.073 A 
HETATM   32  C15 UNL     1      18.462  32.277  10.993  1.00  0.00     0.019 A 
HETATM   33  C16 UNL     1      17.945  32.080  12.332  1.00  0.00     0.004 A 
HETATM   34  C17 UNL     1      17.554  33.113  13.101  1.00  0.00     0.032 A 
ENDBRANCH   1  19
TORSDOF 5
ENDMDL
MODEL 6
REMARK minimizedAffinity -7.95401192
REMARK  5 active torsions:
REMARK  status: ('A' for Active; 'I' for Inactive)
REMARK    1  A    between atoms: C5_6  and  C6_7 
REMARK    2  A    between atoms: C6_7  and  O1_8 
REMARK    3  A    between atoms: O1_8  and  C7_9 
REMARK    4  A    between atoms: C10_12  and  N1_13 
REMARK    5  A    between atoms: N1_13  and  C11_14 
ROOT
HETATM    1  N1  UNL     1      17.077  34.976  16.755  1.00  0.00    -0.342 N 
HETATM    2  H8  UNL     1      17.819  34.912  17.435  1.00  0.00     0.167 HD
ENDROOT
BRANCH   1   3
HETATM    3  C10 UNL     1      15.787  34.859  17.305  1.00  0.00     0.035 A 
HETATM    4  C9  UNL     1      14.612  35.169  16.610  1.00  0.00     0.032 A 
HETATM    5  C8  UNL     1      13.357  35.065  17.218  1.00  0.00     0.041 A 
HETATM    6  C7  UNL     1      13.261  34.676  18.551  1.00  0.00     0.091 A 
HETATM    7  C21 UNL     1      14.415  34.360  19.265  1.00  0.00     0.069 A 
HETATM    8  C20 UNL     1      15.667  34.463  18.648  1.00  0.00     0.056 A 
HETATM    9 CL1  UNL     1      14.346  33.850  20.912  1.00  0.00    -0.081 Cl
BRANCH   6  10
HETATM   10  O1  UNL     1      12.013  34.560  19.103  1.00  0.00    -0.345 OA
BRANCH  10  11
HETATM   11  C6  UNL     1      11.013  35.150  18.260  1.00  0.00     0.214 C 
BRANCH  11  12
HETATM   12  C5  UNL     1       9.726  35.324  19.029  1.00  0.00    -0.031 A 
HETATM   13  C4  UNL     1       9.524  34.641  20.241  1.00  0.00     0.009 A 
HETATM   14  C3  UNL     1       8.336  34.797  20.958  1.00  0.00     0.004 A 
HETATM   15  C2  UNL     1       7.336  35.637  20.471  1.00  0.00     0.042 A 
HETATM   16  C1  UNL     1       7.532  36.311  19.271  1.00  0.00     0.117 A 
HETATM   17  F1  UNL     1       6.571  37.116  18.803  1.00  0.00    -0.206 F 
HETATM   18  C22 UNL     1       8.712  36.163  18.549  1.00  0.00     0.051 A 
ENDBRANCH  11  12
ENDBRANCH  10  11
ENDBRANCH   6  10
ENDBRANCH   1   3
BRANCH   1  19
HETATM   19  C11 UNL     1      17.550  34.854  15.442  1.00  0.00     0.123 A 
HETATM   20  N2  UNL     1      18.115  33.702  14.969  1.00  0.00    -0.338 N 
HETATM   21  C12 UNL     1      18.627  33.647  13.701  1.00  0.00     0.183 A 
ATOM     22  H2  UNL     1      18.154  32.875  15.566  1.00  0.00     0.168 HD
HETATM   23  N3  UNL     1      18.683  34.601  12.747  1.00  0.00    -0.337 N 
HETATM   24  C13 UNL     1      18.114  35.749  13.178  1.00  0.00     0.137 A 
ATOM     25  H3  UNL     1      19.099  34.473  11.825  1.00  0.00     0.168 HD
HETATM   26  N4  UNL     1      18.010  36.870  12.472  1.00  0.00    -0.278 N 
HETATM   27  C19 UNL     1      17.556  35.879  14.478  1.00  0.00     0.082 A 
HETATM   28  N5  UNL     1      17.361  37.733  13.287  1.00  0.00    -0.265 N 
ATOM     29  H4  UNL     1      18.345  37.042  11.524  1.00  0.00     0.189 HD
HETATM   30  C14 UNL     1      17.029  39.055  12.980  1.00  0.00     0.116 A 
HETATM   31  C18 UNL     1      17.032  37.150  14.527  1.00  0.00     0.073 A 
HETATM   32  C15 UNL     1      16.361  39.812  13.862  1.00  0.00     0.019 A 
HETATM   33  C16 UNL     1      15.969  39.222  15.127  1.00  0.00     0.004 A 
HETATM   34  C17 UNL     1      16.282  37.952  15.445  1.00  0.00     0.032 A 
ENDBRANCH   1  19
TORSDOF 5
ENDMDL
MODEL 7
REMARK minimizedAffinity -7.89041042
REMARK  5 active torsions:
REMARK  status: ('A' for Active; 'I' for Inactive)
REMARK    1  A    between atoms: C5_6  and  C6_7 
REMARK    2  A    between atoms: C6_7  and  O1_8 
REMARK    3  A    between atoms: O1_8  and  C7_9 
REMARK    4  A    between atoms: C10_12  and  N1_13 
REMARK    5  A    between atoms: N1_13  and  C11_14 
ROOT
HETATM    1  N1  UNL     1      12.362  36.873  19.528  1.00  0.00    -0.342 N 
HETATM    2  H8  UNL     1      11.734  37.432  18.971  1.00  0.00     0.167 HD
ENDROOT
BRANCH   1   3
HETATM    3  C10 UNL     1      13.431  36.320  18.798  1.00  0.00     0.035 A 
HETATM    4  C9  UNL     1      13.347  35.952  17.450  1.00  0.00     0.032 A 
HETATM    5  C8  UNL     1      14.434  35.376  16.784  1.00  0.00     0.041 A 
HETATM    6  C7  UNL     1      15.619  35.129  17.470  1.00  0.00     0.091 A 
HETATM    7  C21 UNL     1      15.729  35.488  18.813  1.00  0.00     0.069 A 
HETATM    8  C20 UNL     1      14.638  36.068  19.471  1.00  0.00     0.056 A 
HETATM    9 CL1  UNL     1      17.185  35.224  19.700  1.00  0.00    -0.081 Cl
BRANCH   6  10
HETATM   10  O1  UNL     1      16.668  34.588  16.777  1.00  0.00    -0.345 OA
BRANCH  10  11
HETATM   11  C6  UNL     1      17.129  35.479  15.751  1.00  0.00     0.214 C 
BRANCH  11  12
HETATM   12  C5  UNL     1      17.171  34.761  14.424  1.00  0.00    -0.031 A 
HETATM   13  C4  UNL     1      16.192  35.014  13.447  1.00  0.00     0.009 A 
HETATM   14  C3  UNL     1      16.224  34.353  12.217  1.00  0.00     0.004 A 
HETATM   15  C2  UNL     1      17.235  33.431  11.950  1.00  0.00     0.042 A 
HETATM   16  C1  UNL     1      18.202  33.177  12.916  1.00  0.00     0.117 A 
HETATM   17  F1  UNL     1      19.172  32.291  12.660  1.00  0.00    -0.206 F 
HETATM   18  C22 UNL     1      18.180  33.830  14.145  1.00  0.00     0.051 A 
ENDBRANCH  11  12
ENDBRANCH  10  11
ENDBRANCH   6  10
ENDBRANCH   1   3
BRANCH   1  19
HETATM   19  C11 UNL     1      11.823  36.559  20.781  1.00  0.00     0.123 A 
HETATM   20  N2  UNL     1      12.589  36.476  21.911  1.00  0.00    -0.338 N 
HETATM   21  C12 UNL     1      12.034  36.099  23.103  1.00  0.00     0.183 A 
ATOM     22  H2  UNL     1      13.584  36.697  21.865  1.00  0.00     0.168 HD
HETATM   23  N3  UNL     1      10.758  35.765  23.398  1.00  0.00    -0.337 N 
HETATM   24  C13 UNL     1       9.970  35.857  22.304  1.00  0.00     0.137 A 
ATOM     25  H3  UNL     1      10.434  35.482  24.323  1.00  0.00     0.168 HD
HETATM   26  N4  UNL     1       8.667  35.597  22.269  1.00  0.00    -0.278 N 
HETATM   27  C19 UNL     1      10.474  36.248  21.035  1.00  0.00     0.082 A 
HETATM   28  N5  UNL     1       8.300  35.841  20.990  1.00  0.00    -0.265 N 
ATOM     29  H4  UNL     1       8.074  35.283  23.038  1.00  0.00     0.189 HD
HETATM   30  C14 UNL     1       7.012  35.697  20.467  1.00  0.00     0.116 A 
HETATM   31  C18 UNL     1       9.381  36.278  20.199  1.00  0.00     0.073 A 
HETATM   32  C15 UNL     1       6.761  35.992  19.184  1.00  0.00     0.019 A 
HETATM   33  C16 UNL     1       7.846  36.488  18.360  1.00  0.00     0.004 A 
HETATM   34  C17 UNL     1       9.095  36.631  18.843  1.00  0.00     0.032 A 
ENDBRANCH   1  19
TORSDOF 5
ENDMDL
MODEL 8
REMARK minimizedAffinity -7.77869415
REMARK  5 active torsions:
REMARK  status: ('A' for Active; 'I' for Inactive)
REMARK    1  A    between atoms: C5_6  and  C6_7 
REMARK    2  A    between atoms: C6_7  and  O1_8 
REMARK    3  A    between atoms: O1_8  and  C7_9 
REMARK    4  A    between atoms: C10_12  and  N1_13 
REMARK    5  A    between atoms: N1_13  and  C11_14 
ROOT
HETATM    1  N1  UNL     1      12.713  36.391  18.068  1.00  0.00    -0.342 N 
HETATM    2  H8  UNL     1      11.856  36.243  17.558  1.00  0.00     0.167 HD
ENDROOT
BRANCH   1   3
HETATM    3  C10 UNL     1      13.863  36.408  17.256  1.00  0.00     0.035 A 
HETATM    4  C9  UNL     1      14.659  35.284  17.009  1.00  0.00     0.032 A 
HETATM    5  C8  UNL     1      15.812  35.367  16.220  1.00  0.00     0.041 A 
HETATM    6  C7  UNL     1      16.204  36.592  15.690  1.00  0.00     0.091 A 
HETATM    7  C21 UNL     1      15.428  37.727  15.920  1.00  0.00     0.069 A 
HETATM    8  C20 UNL     1      14.274  37.635  16.707  1.00  0.00     0.056 A 
HETATM    9 CL1  UNL     1      15.861  39.264  15.265  1.00  0.00    -0.081 Cl
BRANCH   6  10
HETATM   10  O1  UNL     1      17.323  36.628  14.901  1.00  0.00    -0.345 OA
BRANCH  10  11
HETATM   11  C6  UNL     1      16.996  36.399  13.523  1.00  0.00     0.214 C 
BRANCH  11  12
HETATM   12  C5  UNL     1      17.377  34.993  13.128  1.00  0.00    -0.031 A 
HETATM   13  C4  UNL     1      16.496  34.205  12.367  1.00  0.00     0.009 A 
HETATM   14  C3  UNL     1      16.842  32.903  11.998  1.00  0.00     0.004 A 
HETATM   15  C2  UNL     1      18.071  32.374  12.388  1.00  0.00     0.042 A 
HETATM   16  C1  UNL     1      18.942  33.150  13.144  1.00  0.00     0.117 A 
HETATM   17  F1  UNL     1      20.122  32.641  13.519  1.00  0.00    -0.206 F 
HETATM   18  C22 UNL     1      18.608  34.449  13.516  1.00  0.00     0.051 A 
ENDBRANCH  11  12
ENDBRANCH  10  11
ENDBRANCH   6  10
ENDBRANCH   1   3
BRANCH   1  19
HETATM   19  C11 UNL     1      12.543  36.229  19.448  1.00  0.00     0.123 A 
HETATM   20  N2  UNL     1      13.598  36.129  20.312  1.00  0.00    -0.338 N 
HETATM   21  C12 UNL     1      13.389  35.902  21.645  1.00  0.00     0.183 A 
ATOM     22  H2  UNL     1      14.551  36.226  19.960  1.00  0.00     0.168 HD
HETATM   23  N3  UNL     1      12.233  35.745  22.325  1.00  0.00    -0.337 N 
HETATM   24  C13 UNL     1      11.168  35.858  21.501  1.00  0.00     0.137 A 
ATOM     25  H3  UNL     1      12.171  35.565  23.328  1.00  0.00     0.168 HD
HETATM   26  N4  UNL     1       9.894  35.755  21.869  1.00  0.00    -0.278 N 
HETATM   27  C19 UNL     1      11.307  36.100  20.108  1.00  0.00     0.082 A 
HETATM   28  N5  UNL     1       9.189  35.956  20.731  1.00  0.00    -0.265 N 
ATOM     29  H4  UNL     1       9.529  35.567  22.803  1.00  0.00     0.189 HD
HETATM   30  C14 UNL     1       7.797  35.932  20.618  1.00  0.00     0.116 A 
HETATM   31  C18 UNL     1      10.023  36.205  19.623  1.00  0.00     0.073 A 
HETATM   32  C15 UNL     1       7.205  36.170  19.439  1.00  0.00     0.019 A 
HETATM   33  C16 UNL     1       8.039  36.475  18.293  1.00  0.00     0.004 A 
HETATM   34  C17 UNL     1       9.382  36.499  18.379  1.00  0.00     0.032 A 
ENDBRANCH   1  19
TORSDOF 5
ENDMDL
MODEL 9
REMARK minimizedAffinity -7.62368917
REMARK  5 active torsions:
REMARK  status: ('A' for Active; 'I' for Inactive)
REMARK    1  A    between atoms: C5_6  and  C6_7 
REMARK    2  A    between atoms: C6_7  and  O1_8 
REMARK    3  A    between atoms: O1_8  and  C7_9 
REMARK    4  A    between atoms: C10_12  and  N1_13 
REMARK    5  A    between atoms: N1_13  and  C11_14 
ROOT
HETATM    1  N1  UNL     1      16.459  51.479   5.328  1.00  0.00    -0.342 N 
HETATM    2  H8  UNL     1      16.133  50.889   4.577  1.00  0.00     0.167 HD
ENDROOT
BRANCH   1   3
HETATM    3  C10 UNL     1      16.134  52.839   5.165  1.00  0.00     0.035 A 
HETATM    4  C9  UNL     1      14.841  53.355   5.312  1.00  0.00     0.032 A 
HETATM    5  C8  UNL     1      14.571  54.712   5.106  1.00  0.00     0.041 A 
HETATM    6  C7  UNL     1      15.593  55.573   4.717  1.00  0.00     0.091 A 
HETATM    7  C21 UNL     1      16.890  55.084   4.565  1.00  0.00     0.069 A 
HETATM    8  C20 UNL     1      17.152  53.726   4.777  1.00  0.00     0.056 A 
HETATM    9 CL1  UNL     1      18.194  56.117   4.105  1.00  0.00    -0.081 Cl
BRANCH   6  10
HETATM   10  O1  UNL     1      15.294  56.899   4.551  1.00  0.00    -0.345 OA
BRANCH  10  11
HETATM   11  C6  UNL     1      13.888  57.095   4.346  1.00  0.00     0.214 C 
BRANCH  11  12
HETATM   12  C5  UNL     1      13.615  57.406   2.895  1.00  0.00    -0.031 A 
HETATM   13  C4  UNL     1      13.679  56.391   1.925  1.00  0.00     0.009 A 
HETATM   14  C3  UNL     1      13.428  56.673   0.580  1.00  0.00     0.004 A 
HETATM   15  C2  UNL     1      13.113  57.973   0.190  1.00  0.00     0.042 A 
HETATM   16  C1  UNL     1      13.053  58.979   1.147  1.00  0.00     0.117 A 
HETATM   17  F1  UNL     1      12.751  60.228   0.771  1.00  0.00    -0.206 F 
HETATM   18  C22 UNL     1      13.300  58.710   2.489  1.00  0.00     0.051 A 
ENDBRANCH  11  12
ENDBRANCH  10  11
ENDBRANCH   6  10
ENDBRANCH   1   3
BRANCH   1  19
HETATM   19  C11 UNL     1      17.393  50.831   6.145  1.00  0.00     0.123 A 
HETATM   20  N2  UNL     1      18.163  51.499   7.056  1.00  0.00    -0.338 N 
HETATM   21  C12 UNL     1      19.113  50.837   7.785  1.00  0.00     0.183 A 
ATOM     22  H2  UNL     1      18.028  52.501   7.193  1.00  0.00     0.168 HD
HETATM   23  N3  UNL     1      19.461  49.532   7.772  1.00  0.00    -0.337 N 
HETATM   24  C13 UNL     1      18.703  48.839   6.894  1.00  0.00     0.137 A 
ATOM     25  H3  UNL     1      20.198  49.125   8.348  1.00  0.00     0.168 HD
HETATM   26  N4  UNL     1      18.800  47.535   6.654  1.00  0.00    -0.278 N 
HETATM   27  C19 UNL     1      17.694  49.456   6.108  1.00  0.00     0.082 A 
HETATM   28  N5  UNL     1      17.842  47.281   5.732  1.00  0.00    -0.265 N 
ATOM     29  H4  UNL     1      19.454  46.872   7.072  1.00  0.00     0.189 HD
HETATM   30  C14 UNL     1      17.568  46.036   5.161  1.00  0.00     0.116 A 
HETATM   31  C18 UNL     1      17.112  48.436   5.390  1.00  0.00     0.073 A 
HETATM   32  C15 UNL     1      16.574  45.899   4.271  1.00  0.00     0.019 A 
HETATM   33  C16 UNL     1      15.777  47.063   3.937  1.00  0.00     0.004 A 
HETATM   34  C17 UNL     1      16.027  48.272   4.473  1.00  0.00     0.032 A 
ENDBRANCH   1  19
TORSDOF 5
ENDMDL
