MODEL 1
REMARK minimizedAffinity -7.95956278
REMARK  3 active torsions:
REMARK  status: ('A' for Active; 'I' for Inactive)
REMARK    1  A    between atoms: O1_1  and  C1_2 
REMARK    2  A    between atoms: C5_6  and  N1_7 
REMARK    3  A    between atoms: N1_7  and  C6_8 
ROOT
HETATM    1  C6  UNL     1      12.241  35.474  17.265  1.00  0.00     0.135 A 
HETATM    2  N2  UNL     1      11.746  36.018  16.119  1.00  0.00    -0.270 N 
ATOM      3  H2  UNL     1      10.734  36.038  15.991  1.00  0.00     0.190 HD
HETATM    4  N3  UNL     1      12.513  36.522  15.161  1.00  0.00    -0.240 N 
ATOM      5  H3  UNL     1      12.066  36.914  14.333  1.00  0.00     0.208 HD
HETATM    6  N4  UNL     1      13.770  36.536  15.230  1.00  0.00    -0.279 N 
ATOM      7  H4  UNL     1      14.336  36.926  14.476  1.00  0.00     0.189 HD
HETATM    8  C7  UNL     1      14.335  36.021  16.326  1.00  0.00     0.105 A 
HETATM    9  S1  UNL     1      16.041  35.988  16.520  1.00  0.00    -0.074 SA
HETATM   10  C8  UNL     1      15.870  35.255  18.011  1.00  0.00    -0.008 A 
HETATM   11  C9  UNL     1      14.570  35.030  18.381  1.00  0.00    -0.028 A 
HETATM   12  C10 UNL     1      13.641  35.470  17.395  1.00  0.00     0.052 A 
HETATM   13  C11 UNL     1      14.511  34.380  19.716  1.00  0.00     0.041 C 
HETATM   14  C12 UNL     1      15.968  34.560  20.245  1.00  0.00     0.010 C 
HETATM   15  C13 UNL     1      16.874  34.804  19.001  1.00  0.00     0.047 C 
ENDROOT
BRANCH   1  16
HETATM   16  N1  UNL     1      11.411  34.938  18.263  1.00  0.00    -0.341 N 
HETATM   17  H5  UNL     1      11.799  34.117  18.705  1.00  0.00     0.167 HD
BRANCH  16  18
HETATM   18  C5  UNL     1      10.144  35.307  18.750  1.00  0.00     0.036 A 
HETATM   19  C4  UNL     1       9.380  36.216  17.993  1.00  0.00     0.029 A 
HETATM   20  C3  UNL     1       8.113  36.632  18.413  1.00  0.00     0.005 A 
HETATM   21  C2  UNL     1       7.584  36.145  19.603  1.00  0.00     0.036 A 
HETATM   22  C1  UNL     1       8.327  35.249  20.358  1.00  0.00     0.067 A 
HETATM   23  C14 UNL     1       9.593  34.830  19.944  1.00  0.00     0.066 A 
BRANCH  22  24
HETATM   24  O1  UNL     1       7.776  34.792  21.520  1.00  0.00    -0.361 OA
HETATM   25  H1  UNL     1       8.408  34.184  21.941  1.00  0.00     0.217 HD
ENDBRANCH  22  24
ENDBRANCH  16  18
ENDBRANCH   1  16
TORSDOF 3
ENDMDL
MODEL 2
REMARK minimizedAffinity -7.73339939
REMARK  3 active torsions:
REMARK  status: ('A' for Active; 'I' for Inactive)
REMARK    1  A    between atoms: O1_1  and  C1_2 
REMARK    2  A    between atoms: C5_6  and  N1_7 
REMARK    3  A    between atoms: N1_7  and  C6_8 
ROOT
HETATM    1  C6  UNL     1      11.251  34.789  18.662  1.00  0.00     0.135 A 
HETATM    2  N2  UNL     1      11.482  35.120  17.362  1.00  0.00    -0.270 N 
ATOM      3  H2  UNL     1      12.385  34.876  16.953  1.00  0.00     0.190 HD
HETATM    4  N3  UNL     1      10.592  35.743  16.600  1.00  0.00    -0.240 N 
ATOM      5  H3  UNL     1      10.840  35.953  15.633  1.00  0.00     0.208 HD
HETATM    6  N4  UNL     1       9.456  36.085  17.018  1.00  0.00    -0.279 N 
ATOM      7  H4  UNL     1       8.792  36.567  16.412  1.00  0.00     0.189 HD
HETATM    8  C7  UNL     1       9.151  35.794  18.287  1.00  0.00     0.105 A 
HETATM    9  S1  UNL     1       7.629  36.219  18.960  1.00  0.00    -0.074 SA
HETATM   10  C8  UNL     1       8.073  35.544  20.422  1.00  0.00    -0.008 A 
HETATM   11  C9  UNL     1       9.331  35.003  20.432  1.00  0.00    -0.028 A 
HETATM   12  C10 UNL     1       9.993  35.144  19.178  1.00  0.00     0.052 A 
HETATM   13  C11 UNL     1       9.641  34.425  21.765  1.00  0.00     0.041 C 
HETATM   14  C12 UNL     1       8.242  34.397  22.456  1.00  0.00     0.010 C 
HETATM   15  C13 UNL     1       7.347  35.430  21.708  1.00  0.00     0.047 C 
ENDROOT
BRANCH   1  16
HETATM   16  N1  UNL     1      12.211  34.137  19.454  1.00  0.00    -0.341 N 
HETATM   17  H5  UNL     1      11.820  33.411  20.035  1.00  0.00     0.167 HD
BRANCH  16  18
HETATM   18  C5  UNL     1      13.598  34.312  19.608  1.00  0.00     0.036 A 
HETATM   19  C4  UNL     1      14.072  34.818  20.834  1.00  0.00     0.029 A 
HETATM   20  C3  UNL     1      15.437  35.021  21.062  1.00  0.00     0.005 A 
HETATM   21  C2  UNL     1      16.357  34.720  20.065  1.00  0.00     0.036 A 
HETATM   22  C1  UNL     1      15.903  34.220  18.853  1.00  0.00     0.067 A 
HETATM   23  C14 UNL     1      14.542  34.016  18.619  1.00  0.00     0.066 A 
BRANCH  22  24
HETATM   24  O1  UNL     1      16.835  33.937  17.896  1.00  0.00    -0.361 OA
HETATM   25  H1  UNL     1      16.374  33.606  17.107  1.00  0.00     0.217 HD
ENDBRANCH  22  24
ENDBRANCH  16  18
ENDBRANCH   1  16
TORSDOF 3
ENDMDL
MODEL 3
REMARK minimizedAffinity -7.65445137
REMARK  3 active torsions:
REMARK  status: ('A' for Active; 'I' for Inactive)
REMARK    1  A    between atoms: O1_1  and  C1_2 
REMARK    2  A    between atoms: C5_6  and  N1_7 
REMARK    3  A    between atoms: N1_7  and  C6_8 
ROOT
HETATM    1  C6  UNL     1      11.143  34.980  18.564  1.00  0.00     0.135 A 
HETATM    2  N2  UNL     1      10.526  35.436  17.440  1.00  0.00    -0.270 N 
ATOM      3  H2  UNL     1       9.507  35.399  17.398  1.00  0.00     0.190 HD
HETATM    4  N3  UNL     1      11.182  35.927  16.397  1.00  0.00    -0.240 N 
ATOM      5  H3  UNL     1      10.647  36.252  15.592  1.00  0.00     0.208 HD
HETATM    6  N4  UNL     1      12.438  36.009  16.357  1.00  0.00    -0.279 N 
ATOM      7  H4  UNL     1      12.918  36.387  15.540  1.00  0.00     0.189 HD
HETATM    8  C7  UNL     1      13.119  35.582  17.426  1.00  0.00     0.105 A 
HETATM    9  S1  UNL     1      14.834  35.645  17.475  1.00  0.00    -0.074 SA
HETATM   10  C8  UNL     1      14.827  34.984  19.009  1.00  0.00    -0.008 A 
HETATM   11  C9  UNL     1      13.577  34.714  19.498  1.00  0.00    -0.028 A 
HETATM   12  C10 UNL     1      12.547  35.054  18.575  1.00  0.00     0.052 A 
HETATM   13  C11 UNL     1      13.664  34.133  20.863  1.00  0.00     0.041 C 
HETATM   14  C12 UNL     1      15.147  34.414  21.258  1.00  0.00     0.010 C 
HETATM   15  C13 UNL     1      15.933  34.638  19.931  1.00  0.00     0.047 C 
ENDROOT
BRANCH   1  16
HETATM   16  N1  UNL     1      10.429  34.456  19.654  1.00  0.00    -0.341 N 
HETATM   17  H5  UNL     1      10.821  33.597  20.011  1.00  0.00     0.167 HD
BRANCH  16  18
HETATM   18  C5  UNL     1       9.270  34.881  20.329  1.00  0.00     0.036 A 
HETATM   19  C4  UNL     1       8.305  35.605  19.602  1.00  0.00     0.029 A 
HETATM   20  C3  UNL     1       7.129  36.063  20.203  1.00  0.00     0.005 A 
HETATM   21  C2  UNL     1       6.895  35.805  21.549  1.00  0.00     0.036 A 
HETATM   22  C1  UNL     1       7.837  35.094  22.277  1.00  0.00     0.067 A 
HETATM   23  C14 UNL     1       9.014  34.633  21.682  1.00  0.00     0.066 A 
BRANCH  22  24
HETATM   24  O1  UNL     1       7.574  34.859  23.595  1.00  0.00    -0.361 OA
HETATM   25  H1  UNL     1       8.319  34.362  23.974  1.00  0.00     0.217 HD
ENDBRANCH  22  24
ENDBRANCH  16  18
ENDBRANCH   1  16
TORSDOF 3
ENDMDL
MODEL 4
REMARK minimizedAffinity -7.10524225
REMARK  3 active torsions:
REMARK  status: ('A' for Active; 'I' for Inactive)
REMARK    1  A    between atoms: O1_1  and  C1_2 
REMARK    2  A    between atoms: C5_6  and  N1_7 
REMARK    3  A    between atoms: N1_7  and  C6_8 
ROOT
HETATM    1  C6  UNL     1      13.194  36.292  17.213  1.00  0.00     0.135 A 
HETATM    2  N2  UNL     1      12.621  36.417  15.984  1.00  0.00    -0.270 N 
ATOM      3  H2  UNL     1      11.639  36.686  15.933  1.00  0.00     0.190 HD
HETATM    4  N3  UNL     1      13.277  36.205  14.850  1.00  0.00    -0.240 N 
ATOM      5  H3  UNL     1      12.778  36.322  13.969  1.00  0.00     0.208 HD
HETATM    6  N4  UNL     1      14.489  35.867  14.816  1.00  0.00    -0.279 N 
ATOM      7  H4  UNL     1      14.969  35.707  13.929  1.00  0.00     0.189 HD
HETATM    8  C7  UNL     1      15.125  35.724  15.983  1.00  0.00     0.105 A 
HETATM    9  S1  UNL     1      16.778  35.263  16.049  1.00  0.00    -0.074 SA
HETATM   10  C8  UNL     1      16.741  35.326  17.718  1.00  0.00    -0.008 A 
HETATM   11  C9  UNL     1      15.527  35.685  18.240  1.00  0.00    -0.028 A 
HETATM   12  C10 UNL     1      14.550  35.921  17.231  1.00  0.00     0.052 A 
HETATM   13  C11 UNL     1      15.585  35.718  19.725  1.00  0.00     0.041 C 
HETATM   14  C12 UNL     1      17.119  35.657  20.005  1.00  0.00     0.010 C 
HETATM   15  C13 UNL     1      17.789  35.060  18.730  1.00  0.00     0.047 C 
ENDROOT
BRANCH   1  16
HETATM   16  N1  UNL     1      12.479  36.512  18.402  1.00  0.00    -0.341 N 
HETATM   17  H5  UNL     1      12.629  37.430  18.792  1.00  0.00     0.167 HD
BRANCH  16  18
HETATM   18  C5  UNL     1      11.616  35.700  19.160  1.00  0.00     0.036 A 
HETATM   19  C4  UNL     1      10.240  36.000  19.148  1.00  0.00     0.029 A 
HETATM   20  C3  UNL     1       9.321  35.239  19.877  1.00  0.00     0.005 A 
HETATM   21  C2  UNL     1       9.761  34.161  20.635  1.00  0.00     0.036 A 
HETATM   22  C1  UNL     1      11.114  33.855  20.655  1.00  0.00     0.067 A 
HETATM   23  C14 UNL     1      12.037  34.610  19.929  1.00  0.00     0.066 A 
BRANCH  22  24
HETATM   24  O1  UNL     1      11.511  32.789  21.410  1.00  0.00    -0.361 OA
HETATM   25  H1  UNL     1      12.477  32.702  21.335  1.00  0.00     0.217 HD
ENDBRANCH  22  24
ENDBRANCH  16  18
ENDBRANCH   1  16
TORSDOF 3
ENDMDL
MODEL 5
REMARK minimizedAffinity -6.88653851
REMARK  3 active torsions:
REMARK  status: ('A' for Active; 'I' for Inactive)
REMARK    1  A    between atoms: O1_1  and  C1_2 
REMARK    2  A    between atoms: C5_6  and  N1_7 
REMARK    3  A    between atoms: N1_7  and  C6_8 
ROOT
HETATM    1  C6  UNL     1       4.040  65.405  -4.369  1.00  0.00     0.135 A 
HETATM    2  N2  UNL     1       4.898  64.363  -4.193  1.00  0.00    -0.270 N 
ATOM      3  H2  UNL     1       4.896  63.881  -3.294  1.00  0.00     0.190 HD
HETATM    4  N3  UNL     1       5.737  63.945  -5.131  1.00  0.00    -0.240 N 
ATOM      5  H3  UNL     1       6.348  63.155  -4.924  1.00  0.00     0.208 HD
HETATM    6  N4  UNL     1       5.813  64.481  -6.268  1.00  0.00    -0.279 N 
ATOM      7  H4  UNL     1       6.471  64.142  -6.970  1.00  0.00     0.189 HD
HETATM    8  C7  UNL     1       5.000  65.513  -6.520  1.00  0.00     0.105 A 
HETATM    9  S1  UNL     1       5.024  66.318  -8.036  1.00  0.00    -0.074 SA
HETATM   10  C8  UNL     1       3.821  67.354  -7.519  1.00  0.00    -0.008 A 
HETATM   11  C9  UNL     1       3.390  67.121  -6.239  1.00  0.00    -0.028 A 
HETATM   12  C10 UNL     1       4.079  66.037  -5.623  1.00  0.00     0.052 A 
HETATM   13  C11 UNL     1       2.322  68.083  -5.863  1.00  0.00     0.041 C 
HETATM   14  C12 UNL     1       1.934  68.713  -7.237  1.00  0.00     0.010 C 
HETATM   15  C13 UNL     1       3.139  68.480  -8.198  1.00  0.00     0.047 C 
ENDROOT
BRANCH   1  16
HETATM   16  N1  UNL     1       3.166  65.838  -3.358  1.00  0.00    -0.341 N 
HETATM   17  H5  UNL     1       3.421  66.733  -2.967  1.00  0.00     0.167 HD
BRANCH  16  18
HETATM   18  C5  UNL     1       2.022  65.263  -2.775  1.00  0.00     0.036 A 
HETATM   19  C4  UNL     1       1.323  66.008  -1.806  1.00  0.00     0.029 A 
HETATM   20  C3  UNL     1       0.178  65.503  -1.182  1.00  0.00     0.005 A 
HETATM   21  C2  UNL     1      -0.289  64.238  -1.514  1.00  0.00     0.036 A 
HETATM   22  C1  UNL     1       0.390  63.493  -2.466  1.00  0.00     0.067 A 
HETATM   23  C14 UNL     1       1.533  63.991  -3.094  1.00  0.00     0.066 A 
BRANCH  22  24
HETATM   24  O1  UNL     1      -0.098  62.254  -2.767  1.00  0.00    -0.361 OA
HETATM   25  H1  UNL     1       0.480  61.851  -3.438  1.00  0.00     0.217 HD
ENDBRANCH  22  24
ENDBRANCH  16  18
ENDBRANCH   1  16
TORSDOF 3
ENDMDL
MODEL 6
REMARK minimizedAffinity -6.7408061
REMARK  3 active torsions:
REMARK  status: ('A' for Active; 'I' for Inactive)
REMARK    1  A    between atoms: O1_1  and  C1_2 
REMARK    2  A    between atoms: C5_6  and  N1_7 
REMARK    3  A    between atoms: N1_7  and  C6_8 
ROOT
HETATM    1  C6  UNL     1      14.579  36.138  15.464  1.00  0.00     0.135 A 
HETATM    2  N2  UNL     1      13.342  36.315  14.924  1.00  0.00    -0.270 N 
ATOM      3  H2  UNL     1      13.271  36.469  13.918  1.00  0.00     0.190 HD
HETATM    4  N3  UNL     1      12.225  36.296  15.640  1.00  0.00    -0.240 N 
ATOM      5  H3  UNL     1      11.336  36.433  15.161  1.00  0.00     0.208 HD
HETATM    6  N4  UNL     1      12.216  36.115  16.886  1.00  0.00    -0.279 N 
ATOM      7  H4  UNL     1      11.343  36.109  17.413  1.00  0.00     0.189 HD
HETATM    8  C7  UNL     1      13.393  35.932  17.493  1.00  0.00     0.105 A 
HETATM    9  S1  UNL     1      13.494  35.681  19.188  1.00  0.00    -0.074 SA
HETATM   10  C8  UNL     1      15.157  35.560  19.084  1.00  0.00    -0.008 A 
HETATM   11  C9  UNL     1      15.652  35.699  17.814  1.00  0.00    -0.028 A 
HETATM   12  C10 UNL     1      14.626  35.927  16.853  1.00  0.00     0.052 A 
HETATM   13  C11 UNL     1      17.132  35.574  17.814  1.00  0.00     0.041 C 
HETATM   14  C12 UNL     1      17.425  34.996  19.233  1.00  0.00     0.010 C 
HETATM   15  C13 UNL     1      16.188  35.330  20.121  1.00  0.00     0.047 C 
ENDROOT
BRANCH   1  16
HETATM   16  N1  UNL     1      15.750  36.171  14.689  1.00  0.00    -0.341 N 
HETATM   17  H5  UNL     1      16.151  37.094  14.612  1.00  0.00     0.167 HD
BRANCH  16  18
HETATM   18  C5  UNL     1      16.458  35.178  13.988  1.00  0.00     0.036 A 
HETATM   19  C4  UNL     1      15.889  34.665  12.806  1.00  0.00     0.029 A 
HETATM   20  C3  UNL     1      16.531  33.676  12.055  1.00  0.00     0.005 A 
HETATM   21  C2  UNL     1      17.759  33.179  12.474  1.00  0.00     0.036 A 
HETATM   22  C1  UNL     1      18.331  33.675  13.636  1.00  0.00     0.067 A 
HETATM   23  C14 UNL     1      17.695  34.663  14.390  1.00  0.00     0.066 A 
BRANCH  22  24
HETATM   24  O1  UNL     1      19.538  33.163  14.017  1.00  0.00    -0.361 OA
HETATM   25  H1  UNL     1      19.807  33.595  14.845  1.00  0.00     0.217 HD
ENDBRANCH  22  24
ENDBRANCH  16  18
ENDBRANCH   1  16
TORSDOF 3
ENDMDL
MODEL 7
REMARK minimizedAffinity -6.68568516
REMARK  3 active torsions:
REMARK  status: ('A' for Active; 'I' for Inactive)
REMARK    1  A    between atoms: O1_1  and  C1_2 
REMARK    2  A    between atoms: C5_6  and  N1_7 
REMARK    3  A    between atoms: N1_7  and  C6_8 
ROOT
HETATM    1  C6  UNL     1      17.181  51.342   5.619  1.00  0.00     0.135 A 
HETATM    2  N2  UNL     1      16.550  50.693   4.602  1.00  0.00    -0.270 N 
ATOM      3  H2  UNL     1      15.901  51.221   4.019  1.00  0.00     0.190 HD
HETATM    4  N3  UNL     1      16.738  49.407   4.331  1.00  0.00    -0.240 N 
ATOM      5  H3  UNL     1      16.230  48.994   3.550  1.00  0.00     0.208 HD
HETATM    6  N4  UNL     1      17.515  48.676   4.998  1.00  0.00    -0.279 N 
ATOM      7  H4  UNL     1      17.638  47.688   4.771  1.00  0.00     0.189 HD
HETATM    8  C7  UNL     1      18.175  49.240   6.015  1.00  0.00     0.105 A 
HETATM    9  S1  UNL     1      19.257  48.331   6.991  1.00  0.00    -0.074 SA
HETATM   10  C8  UNL     1      19.589  49.688   7.907  1.00  0.00    -0.008 A 
HETATM   11  C9  UNL     1      18.916  50.813   7.509  1.00  0.00    -0.028 A 
HETATM   12  C10 UNL     1      18.066  50.571   6.392  1.00  0.00     0.052 A 
HETATM   13  C11 UNL     1      19.272  51.968   8.374  1.00  0.00     0.041 C 
HETATM   14  C12 UNL     1      20.526  51.444   9.141  1.00  0.00     0.010 C 
HETATM   15  C13 UNL     1      20.480  49.888   9.073  1.00  0.00     0.047 C 
ENDROOT
BRANCH   1  16
HETATM   16  N1  UNL     1      16.961  52.701   5.894  1.00  0.00    -0.341 N 
HETATM   17  H5  UNL     1      17.335  52.993   6.785  1.00  0.00     0.167 HD
BRANCH  16  18
HETATM   18  C5  UNL     1      16.310  53.725   5.183  1.00  0.00     0.036 A 
HETATM   19  C4  UNL     1      17.102  54.694   4.537  1.00  0.00     0.029 A 
HETATM   20  C3  UNL     1      16.527  55.743   3.812  1.00  0.00     0.005 A 
HETATM   21  C2  UNL     1      15.144  55.843   3.719  1.00  0.00     0.036 A 
HETATM   22  C1  UNL     1      14.352  54.895   4.351  1.00  0.00     0.067 A 
HETATM   23  C14 UNL     1      14.920  53.846   5.076  1.00  0.00     0.066 A 
BRANCH  22  24
HETATM   24  O1  UNL     1      12.998  55.026   4.239  1.00  0.00    -0.361 OA
HETATM   25  H1  UNL     1      12.578  54.302   4.735  1.00  0.00     0.217 HD
ENDBRANCH  22  24
ENDBRANCH  16  18
ENDBRANCH   1  16
TORSDOF 3
ENDMDL
MODEL 8
REMARK minimizedAffinity -6.66058969
REMARK  3 active torsions:
REMARK  status: ('A' for Active; 'I' for Inactive)
REMARK    1  A    between atoms: O1_1  and  C1_2 
REMARK    2  A    between atoms: C5_6  and  N1_7 
REMARK    3  A    between atoms: N1_7  and  C6_8 
ROOT
HETATM    1  C6  UNL     1       7.668  48.004  -4.128  1.00  0.00     0.135 A 
HETATM    2  N2  UNL     1       6.311  48.107  -4.088  1.00  0.00    -0.270 N 
ATOM      3  H2  UNL     1       5.781  47.347  -3.661  1.00  0.00     0.190 HD
HETATM    4  N3  UNL     1       5.645  49.145  -4.576  1.00  0.00    -0.240 N 
ATOM      5  H3  UNL     1       4.627  49.149  -4.505  1.00  0.00     0.208 HD
HETATM    6  N4  UNL     1       6.214  50.125  -5.123  1.00  0.00    -0.279 N 
ATOM      7  H4  UNL     1       5.676  50.910  -5.494  1.00  0.00     0.189 HD
HETATM    8  C7  UNL     1       7.548  50.101  -5.200  1.00  0.00     0.105 A 
HETATM    9  S1  UNL     1       8.424  51.387  -5.929  1.00  0.00    -0.074 SA
HETATM   10  C8  UNL     1       9.863  50.600  -5.615  1.00  0.00    -0.008 A 
HETATM   11  C9  UNL     1       9.719  49.397  -4.975  1.00  0.00    -0.028 A 
HETATM   12  C10 UNL     1       8.354  49.077  -4.724  1.00  0.00     0.052 A 
HETATM   13  C11 UNL     1      11.045  48.771  -4.734  1.00  0.00     0.041 C 
HETATM   14  C12 UNL     1      12.032  49.945  -5.021  1.00  0.00     0.010 C 
HETATM   15  C13 UNL     1      11.266  50.973  -5.907  1.00  0.00     0.047 C 
ENDROOT
BRANCH   1  16
HETATM   16  N1  UNL     1       8.354  46.892  -3.613  1.00  0.00    -0.341 N 
HETATM   17  H5  UNL     1       8.423  46.128  -4.270  1.00  0.00     0.167 HD
BRANCH  16  18
HETATM   18  C5  UNL     1       8.942  46.629  -2.362  1.00  0.00     0.036 A 
HETATM   19  C4  UNL     1       8.868  47.625  -1.370  1.00  0.00     0.029 A 
HETATM   20  C3  UNL     1       9.430  47.437  -0.103  1.00  0.00     0.005 A 
HETATM   21  C2  UNL     1      10.079  46.246   0.196  1.00  0.00     0.036 A 
HETATM   22  C1  UNL     1      10.159  45.256  -0.773  1.00  0.00     0.067 A 
HETATM   23  C14 UNL     1       9.600  45.437  -2.040  1.00  0.00     0.066 A 
BRANCH  22  24
HETATM   24  O1  UNL     1      10.805  44.099  -0.444  1.00  0.00    -0.361 OA
HETATM   25  H1  UNL     1      10.789  43.509  -1.217  1.00  0.00     0.217 HD
ENDBRANCH  22  24
ENDBRANCH  16  18
ENDBRANCH   1  16
TORSDOF 3
ENDMDL
MODEL 9
REMARK minimizedAffinity -6.65761471
REMARK  3 active torsions:
REMARK  status: ('A' for Active; 'I' for Inactive)
REMARK    1  A    between atoms: O1_1  and  C1_2 
REMARK    2  A    between atoms: C5_6  and  N1_7 
REMARK    3  A    between atoms: N1_7  and  C6_8 
ROOT
HETATM    1  C6  UNL     1      12.133  36.469  20.403  1.00  0.00     0.135 A 
HETATM    2  N2  UNL     1      12.976  36.276  21.454  1.00  0.00    -0.270 N 
ATOM      3  H2  UNL     1      13.971  36.456  21.317  1.00  0.00     0.190 HD
HETATM    4  N3  UNL     1      12.569  35.864  22.648  1.00  0.00    -0.240 N 
ATOM      5  H3  UNL     1      13.262  35.745  23.386  1.00  0.00     0.208 HD
HETATM    6  N4  UNL     1      11.364  35.613  22.908  1.00  0.00    -0.279 N 
ATOM      7  H4  UNL     1      11.078  35.293  23.835  1.00  0.00     0.189 HD
HETATM    8  C7  UNL     1      10.471  35.780  21.927  1.00  0.00     0.105 A 
HETATM    9  S1  UNL     1       8.801  35.462  22.175  1.00  0.00    -0.074 SA
HETATM   10  C8  UNL     1       8.472  35.893  20.595  1.00  0.00    -0.008 A 
HETATM   11  C9  UNL     1       9.574  36.273  19.875  1.00  0.00    -0.028 A 
HETATM   12  C10 UNL     1      10.773  36.209  20.642  1.00  0.00     0.052 A 
HETATM   13  C11 UNL     1       9.191  36.641  18.488  1.00  0.00     0.041 C 
HETATM   14  C12 UNL     1       7.637  36.752  18.583  1.00  0.00     0.010 C 
HETATM   15  C13 UNL     1       7.201  35.935  19.837  1.00  0.00     0.047 C 
ENDROOT
BRANCH   1  16
HETATM   16  N1  UNL     1      12.586  36.897  19.144  1.00  0.00    -0.341 N 
HETATM   17  H5  UNL     1      12.119  37.729  18.814  1.00  0.00     0.167 HD
BRANCH  16  18
HETATM   18  C5  UNL     1      13.545  36.386  18.251  1.00  0.00     0.036 A 
HETATM   19  C4  UNL     1      14.771  35.936  18.778  1.00  0.00     0.029 A 
HETATM   20  C3  UNL     1      15.774  35.415  17.954  1.00  0.00     0.005 A 
HETATM   21  C2  UNL     1      15.569  35.336  16.582  1.00  0.00     0.036 A 
HETATM   22  C1  UNL     1      14.366  35.776  16.049  1.00  0.00     0.067 A 
HETATM   23  C14 UNL     1      13.360  36.296  16.867  1.00  0.00     0.066 A 
BRANCH  22  24
HETATM   24  O1  UNL     1      14.200  35.683  14.698  1.00  0.00    -0.361 OA
HETATM   25  H1  UNL     1      13.321  36.033  14.472  1.00  0.00     0.217 HD
ENDBRANCH  22  24
ENDBRANCH  16  18
ENDBRANCH   1  16
TORSDOF 3
ENDMDL
