MODEL 1
REMARK minimizedAffinity -8.36865234
REMARK  8 active torsions:
REMARK  status: ('A' for Active; 'I' for Inactive)
REMARK       I    between atoms: N1_1  and  C1_2 
REMARK    1  A    between atoms: C1_2  and  C2_4 
REMARK    2  A    between atoms: C2_4  and  O2_5 
REMARK    3  A    between atoms: O2_5  and  C3_6 
REMARK    4  A    between atoms: C3_6  and  C4_7 
REMARK    5  A    between atoms: C8_16  and  N5_17 
REMARK    6  A    between atoms: N5_17  and  C9_18 
REMARK    7  A    between atoms: N7_26  and  C15_27 
REMARK    8  A    between atoms: C15_27  and  C16_28 
ROOT
HETATM    1  N5  UNL     1      10.649  34.596  19.617  1.00  0.00    -0.341 N 
HETATM    2  H10 UNL     1      10.161  33.724  19.419  1.00  0.00     0.167 HD
ENDROOT
BRANCH   1   3
HETATM    3  C8  UNL     1      10.481  35.073  20.902  1.00  0.00     0.136 A 
HETATM    4  N4  UNL     1      11.467  35.206  21.741  1.00  0.00    -0.336 N 
HETATM    5  C7  UNL     1      11.230  35.612  23.028  1.00  0.00     0.199 A 
ATOM      6  H4  UNL     1      12.421  35.006  21.439  1.00  0.00     0.168 HD
HETATM    7  N3  UNL     1      10.084  35.898  23.558  1.00  0.00    -0.289 N 
HETATM    8  N2  UNL     1       9.061  35.793  22.701  1.00  0.00    -0.262 N 
ATOM      9  H3  UNL     1       9.972  36.177  24.533  1.00  0.00     0.188 HD
HETATM   10  C6  UNL     1       7.751  36.048  23.000  1.00  0.00     0.117 A 
HETATM   11  C23 UNL     1       9.168  35.428  21.392  1.00  0.00     0.108 A 
HETATM   12  C5  UNL     1       7.012  35.908  21.847  1.00  0.00     0.031 A 
HETATM   13  C4  UNL     1       7.909  35.520  20.805  1.00  0.00    -0.001 A 
BRANCH  13  14
HETATM   14  C3  UNL     1       7.535  35.300  19.374  1.00  0.00     0.209 C 
BRANCH  14  15
HETATM   15  O2  UNL     1       6.171  34.898  19.201  1.00  0.00    -0.377 OA
BRANCH  15  16
HETATM   16  C2  UNL     1       5.900  33.590  19.708  1.00  0.00     0.270 C 
BRANCH  16  17
HETATM   17  C1  UNL     1       4.975  32.818  18.771  1.00  0.00     0.239 C 
HETATM   18  N1  UNL     1       4.793  31.494  19.061  1.00  0.00    -0.368 N 
HETATM   19  H1  UNL     1       5.533  30.975  19.521  1.00  0.00     0.159 HD
HETATM   20  H2  UNL     1       4.299  30.983  18.338  1.00  0.00     0.159 HD
HETATM   21  O1  UNL     1       4.437  33.322  17.787  1.00  0.00    -0.271 OA
ENDBRANCH  16  17
ENDBRANCH  15  16
ENDBRANCH  14  15
ENDBRANCH  13  14
ENDBRANCH   1   3
BRANCH   1  22
HETATM   22  C9  UNL     1      11.705  34.852  18.721  1.00  0.00     0.034 A 
HETATM   23  C10 UNL     1      12.889  34.107  18.856  1.00  0.00     0.032 A 
HETATM   24  C11 UNL     1      13.992  34.289  18.008  1.00  0.00     0.034 A 
HETATM   25  C12 UNL     1      13.875  35.253  17.001  1.00  0.00     0.062 A 
HETATM   26  C13 UNL     1      12.720  36.009  16.833  1.00  0.00     0.011 A 
HETATM   27  N7  UNL     1      14.735  35.685  16.016  1.00  0.00    -0.288 N 
HETATM   28  C14 UNL     1      12.998  36.848  15.730  1.00  0.00     0.121 A 
HETATM   29  C22 UNL     1      11.627  35.809  17.699  1.00  0.00     0.044 A 
HETATM   30  N6  UNL     1      14.220  36.657  15.228  1.00  0.00    -0.308 N 
ATOM     31  H6  UNL     1      14.660  37.130  14.439  1.00  0.00     0.186 HD
BRANCH  27  32
HETATM   32  C15 UNL     1      16.107  35.242  15.795  1.00  0.00     0.187 C 
BRANCH  32  33
HETATM   33  C16 UNL     1      16.606  35.578  14.408  1.00  0.00    -0.035 A 
HETATM   34  C17 UNL     1      16.355  34.724  13.320  1.00  0.00     0.009 A 
HETATM   35  C18 UNL     1      16.800  35.051  12.035  1.00  0.00     0.004 A 
HETATM   36  C19 UNL     1      17.496  36.240  11.823  1.00  0.00     0.042 A 
HETATM   37  C20 UNL     1      17.735  37.092  12.894  1.00  0.00     0.117 A 
HETATM   38  F1  UNL     1      18.407  38.230  12.691  1.00  0.00    -0.206 F 
HETATM   39  C21 UNL     1      17.295  36.778  14.176  1.00  0.00     0.051 A 
ENDBRANCH  32  33
ENDBRANCH  27  32
ENDBRANCH   1  22
TORSDOF 8
ENDMDL
MODEL 2
REMARK minimizedAffinity -8.135952
REMARK  8 active torsions:
REMARK  status: ('A' for Active; 'I' for Inactive)
REMARK       I    between atoms: N1_1  and  C1_2 
REMARK    1  A    between atoms: C1_2  and  C2_4 
REMARK    2  A    between atoms: C2_4  and  O2_5 
REMARK    3  A    between atoms: O2_5  and  C3_6 
REMARK    4  A    between atoms: C3_6  and  C4_7 
REMARK    5  A    between atoms: C8_16  and  N5_17 
REMARK    6  A    between atoms: N5_17  and  C9_18 
REMARK    7  A    between atoms: N7_26  and  C15_27 
REMARK    8  A    between atoms: C15_27  and  C16_28 
ROOT
HETATM    1  N5  UNL     1      10.484  34.793  19.427  1.00  0.00    -0.341 N 
HETATM    2  H10 UNL     1       9.863  34.088  19.036  1.00  0.00     0.167 HD
ENDROOT
BRANCH   1   3
HETATM    3  C8  UNL     1      10.292  35.052  20.770  1.00  0.00     0.136 A 
HETATM    4  N4  UNL     1      11.243  34.949  21.652  1.00  0.00    -0.336 N 
HETATM    5  C7  UNL     1      10.977  35.145  22.982  1.00  0.00     0.199 A 
ATOM      6  H4  UNL     1      12.191  34.722  21.353  1.00  0.00     0.168 HD
HETATM    7  N3  UNL     1       9.833  35.434  23.515  1.00  0.00    -0.289 N 
HETATM    8  N2  UNL     1       8.848  35.570  22.619  1.00  0.00    -0.262 N 
ATOM      9  H3  UNL     1       9.695  35.548  24.520  1.00  0.00     0.188 HD
HETATM   10  C6  UNL     1       7.550  35.885  22.912  1.00  0.00     0.117 A 
HETATM   11  C23 UNL     1       8.990  35.431  21.270  1.00  0.00     0.108 A 
HETATM   12  C5  UNL     1       6.860  36.013  21.728  1.00  0.00     0.031 A 
HETATM   13  C4  UNL     1       7.773  35.735  20.666  1.00  0.00    -0.001 A 
BRANCH  13  14
HETATM   14  C3  UNL     1       7.454  35.802  19.206  1.00  0.00     0.209 C 
BRANCH  14  15
HETATM   15  O2  UNL     1       6.941  34.571  18.682  1.00  0.00    -0.377 OA
BRANCH  15  16
HETATM   16  C2  UNL     1       5.563  34.358  18.988  1.00  0.00     0.270 C 
BRANCH  16  17
HETATM   17  C1  UNL     1       5.072  33.030  18.418  1.00  0.00     0.239 C 
HETATM   18  N1  UNL     1       4.638  33.054  17.120  1.00  0.00    -0.368 N 
HETATM   19  H1  UNL     1       4.234  33.904  16.743  1.00  0.00     0.159 HD
HETATM   20  H2  UNL     1       4.183  32.197  16.827  1.00  0.00     0.159 HD
HETATM   21  O1  UNL     1       5.026  31.991  19.072  1.00  0.00    -0.271 OA
ENDBRANCH  16  17
ENDBRANCH  15  16
ENDBRANCH  14  15
ENDBRANCH  13  14
ENDBRANCH   1   3
BRANCH   1  22
HETATM   22  C9  UNL     1      11.647  34.990  18.656  1.00  0.00     0.034 A 
HETATM   23  C10 UNL     1      11.588  35.890  17.578  1.00  0.00     0.032 A 
HETATM   24  C11 UNL     1      12.694  36.153  16.758  1.00  0.00     0.034 A 
HETATM   25  C12 UNL     1      13.885  35.480  17.051  1.00  0.00     0.062 A 
HETATM   26  C13 UNL     1      13.986  34.584  18.109  1.00  0.00     0.011 A 
HETATM   27  N7  UNL     1      15.134  35.495  16.471  1.00  0.00    -0.288 N 
HETATM   28  C14 UNL     1      15.323  34.131  18.070  1.00  0.00     0.121 A 
HETATM   29  C22 UNL     1      12.859  34.335  18.917  1.00  0.00     0.044 A 
HETATM   30  N6  UNL     1      16.028  34.680  17.078  1.00  0.00    -0.308 N 
ATOM     31  H6  UNL     1      17.006  34.523  16.836  1.00  0.00     0.186 HD
BRANCH  27  32
HETATM   32  C15 UNL     1      15.541  36.239  15.284  1.00  0.00     0.187 C 
BRANCH  32  33
HETATM   33  C16 UNL     1      16.555  35.489  14.452  1.00  0.00    -0.035 A 
HETATM   34  C17 UNL     1      17.932  35.600  14.713  1.00  0.00     0.009 A 
HETATM   35  C18 UNL     1      18.864  34.886  13.953  1.00  0.00     0.004 A 
HETATM   36  C19 UNL     1      18.430  34.048  12.927  1.00  0.00     0.042 A 
HETATM   37  C20 UNL     1      17.069  33.928  12.675  1.00  0.00     0.117 A 
HETATM   38  F1  UNL     1      16.652  33.127  11.688  1.00  0.00    -0.206 F 
HETATM   39  C21 UNL     1      16.132  34.631  13.426  1.00  0.00     0.051 A 
ENDBRANCH  32  33
ENDBRANCH  27  32
ENDBRANCH   1  22
TORSDOF 8
ENDMDL
MODEL 3
REMARK minimizedAffinity -8.09373188
REMARK  8 active torsions:
REMARK  status: ('A' for Active; 'I' for Inactive)
REMARK       I    between atoms: N1_1  and  C1_2 
REMARK    1  A    between atoms: C1_2  and  C2_4 
REMARK    2  A    between atoms: C2_4  and  O2_5 
REMARK    3  A    between atoms: O2_5  and  C3_6 
REMARK    4  A    between atoms: C3_6  and  C4_7 
REMARK    5  A    between atoms: C8_16  and  N5_17 
REMARK    6  A    between atoms: N5_17  and  C9_18 
REMARK    7  A    between atoms: N7_26  and  C15_27 
REMARK    8  A    between atoms: C15_27  and  C16_28 
ROOT
HETATM    1  N5  UNL     1      10.247  34.359  20.036  1.00  0.00    -0.341 N 
HETATM    2  H10 UNL     1       9.818  33.449  19.878  1.00  0.00     0.167 HD
ENDROOT
BRANCH   1   3
HETATM    3  C8  UNL     1       9.987  34.915  21.273  1.00  0.00     0.136 A 
HETATM    4  N4  UNL     1      10.882  34.998  22.213  1.00  0.00    -0.336 N 
HETATM    5  C7  UNL     1      10.547  35.490  23.447  1.00  0.00     0.199 A 
ATOM      6  H4  UNL     1      11.839  34.695  22.030  1.00  0.00     0.168 HD
HETATM    7  N3  UNL     1       9.383  35.908  23.831  1.00  0.00    -0.289 N 
HETATM    8  N2  UNL     1       8.455  35.855  22.868  1.00  0.00    -0.262 N 
ATOM      9  H3  UNL     1       9.192  36.246  24.775  1.00  0.00     0.188 HD
HETATM   10  C6  UNL     1       7.152  36.246  23.004  1.00  0.00     0.117 A 
HETATM   11  C23 UNL     1       8.669  35.415  21.595  1.00  0.00     0.108 A 
HETATM   12  C5  UNL     1       6.534  36.117  21.780  1.00  0.00     0.031 A 
HETATM   13  C4  UNL     1       7.497  35.594  20.865  1.00  0.00    -0.001 A 
BRANCH  13  14
HETATM   14  C3  UNL     1       7.263  35.338  19.410  1.00  0.00     0.209 C 
BRANCH  14  15
HETATM   15  O2  UNL     1       5.898  35.028  19.103  1.00  0.00    -0.377 OA
BRANCH  15  16
HETATM   16  C2  UNL     1       5.583  33.644  19.266  1.00  0.00     0.270 C 
BRANCH  16  17
HETATM   17  C1  UNL     1       4.928  33.078  18.010  1.00  0.00     0.239 C 
HETATM   18  N1  UNL     1       3.639  32.639  18.148  1.00  0.00    -0.368 N 
HETATM   19  H1  UNL     1       3.325  32.281  19.043  1.00  0.00     0.159 HD
HETATM   20  H2  UNL     1       3.291  32.136  17.340  1.00  0.00     0.159 HD
HETATM   21  O1  UNL     1       5.509  32.978  16.932  1.00  0.00    -0.271 OA
ENDBRANCH  16  17
ENDBRANCH  15  16
ENDBRANCH  14  15
ENDBRANCH  13  14
ENDBRANCH   1   3
BRANCH   1  22
HETATM   22  C9  UNL     1      11.333  34.611  19.175  1.00  0.00     0.034 A 
HETATM   23  C10 UNL     1      11.125  35.448  18.065  1.00  0.00     0.032 A 
HETATM   24  C11 UNL     1      12.147  35.759  17.157  1.00  0.00     0.034 A 
HETATM   25  C12 UNL     1      13.408  35.200  17.393  1.00  0.00     0.062 A 
HETATM   26  C13 UNL     1      13.655  34.369  18.480  1.00  0.00     0.011 A 
HETATM   27  N7  UNL     1      14.609  35.288  16.725  1.00  0.00    -0.288 N 
HETATM   28  C14 UNL     1      15.021  34.025  18.365  1.00  0.00     0.121 A 
HETATM   29  C22 UNL     1      12.611  34.071  19.378  1.00  0.00     0.044 A 
HETATM   30  N6  UNL     1      15.608  34.579  17.302  1.00  0.00    -0.308 N 
ATOM     31  H6  UNL     1      16.577  34.490  16.997  1.00  0.00     0.186 HD
BRANCH  27  32
HETATM   32  C15 UNL     1      14.870  36.002  15.480  1.00  0.00     0.187 C 
BRANCH  32  33
HETATM   33  C16 UNL     1      15.485  37.363  15.714  1.00  0.00    -0.035 A 
HETATM   34  C17 UNL     1      16.579  37.805  14.950  1.00  0.00     0.009 A 
HETATM   35  C18 UNL     1      17.129  39.074  15.156  1.00  0.00     0.004 A 
HETATM   36  C19 UNL     1      16.588  39.918  16.124  1.00  0.00     0.042 A 
HETATM   37  C20 UNL     1      15.499  39.488  16.873  1.00  0.00     0.117 A 
HETATM   38  F1  UNL     1      14.983  40.296  17.805  1.00  0.00    -0.206 F 
HETATM   39  C21 UNL     1      14.941  38.228  16.675  1.00  0.00     0.051 A 
ENDBRANCH  32  33
ENDBRANCH  27  32
ENDBRANCH   1  22
TORSDOF 8
ENDMDL
MODEL 4
REMARK minimizedAffinity -7.88700676
REMARK  8 active torsions:
REMARK  status: ('A' for Active; 'I' for Inactive)
REMARK       I    between atoms: N1_1  and  C1_2 
REMARK    1  A    between atoms: C1_2  and  C2_4 
REMARK    2  A    between atoms: C2_4  and  O2_5 
REMARK    3  A    between atoms: O2_5  and  C3_6 
REMARK    4  A    between atoms: C3_6  and  C4_7 
REMARK    5  A    between atoms: C8_16  and  N5_17 
REMARK    6  A    between atoms: N5_17  and  C9_18 
REMARK    7  A    between atoms: N7_26  and  C15_27 
REMARK    8  A    between atoms: C15_27  and  C16_28 
ROOT
HETATM    1  N5  UNL     1      11.904  34.758  18.696  1.00  0.00    -0.341 N 
HETATM    2  H10 UNL     1      12.124  34.481  19.651  1.00  0.00     0.167 HD
ENDROOT
BRANCH   1   3
HETATM    3  C8  UNL     1      10.601  35.169  18.498  1.00  0.00     0.136 A 
HETATM    4  N4  UNL     1      10.142  35.531  17.336  1.00  0.00    -0.336 N 
HETATM    5  C7  UNL     1       8.862  36.001  17.213  1.00  0.00     0.199 A 
ATOM      6  H4  UNL     1      10.740  35.464  16.511  1.00  0.00     0.168 HD
HETATM    7  N3  UNL     1       7.989  36.146  18.158  1.00  0.00    -0.289 N 
HETATM    8  N2  UNL     1       8.435  35.754  19.357  1.00  0.00    -0.262 N 
ATOM      9  H3  UNL     1       7.053  36.523  18.004  1.00  0.00     0.188 HD
HETATM   10  C6  UNL     1       7.714  35.789  20.519  1.00  0.00     0.117 A 
HETATM   11  C23 UNL     1       9.674  35.242  19.606  1.00  0.00     0.108 A 
HETATM   12  C5  UNL     1       8.480  35.232  21.518  1.00  0.00     0.031 A 
HETATM   13  C4  UNL     1       9.736  34.867  20.945  1.00  0.00    -0.001 A 
BRANCH  13  14
HETATM   14  C3  UNL     1      10.855  34.187  21.667  1.00  0.00     0.209 C 
BRANCH  14  15
HETATM   15  O2  UNL     1      11.398  34.972  22.735  1.00  0.00    -0.377 OA
BRANCH  15  16
HETATM   16  C2  UNL     1      11.667  36.324  22.362  1.00  0.00     0.270 C 
BRANCH  16  17
HETATM   17  C1  UNL     1      12.971  36.430  21.578  1.00  0.00     0.239 C 
HETATM   18  N1  UNL     1      14.030  35.718  22.071  1.00  0.00    -0.368 N 
HETATM   19  H1  UNL     1      14.096  35.541  23.068  1.00  0.00     0.159 HD
HETATM   20  H2  UNL     1      14.911  35.929  21.616  1.00  0.00     0.159 HD
HETATM   21  O1  UNL     1      13.103  37.132  20.578  1.00  0.00    -0.271 OA
ENDBRANCH  16  17
ENDBRANCH  15  16
ENDBRANCH  14  15
ENDBRANCH  13  14
ENDBRANCH   1   3
BRANCH   1  22
HETATM   22  C9  UNL     1      13.048  35.086  17.942  1.00  0.00     0.034 A 
HETATM   23  C10 UNL     1      12.936  36.083  16.958  1.00  0.00     0.032 A 
HETATM   24  C11 UNL     1      14.020  36.478  16.161  1.00  0.00     0.034 A 
HETATM   25  C12 UNL     1      15.244  35.838  16.381  1.00  0.00     0.062 A 
HETATM   26  C13 UNL     1      15.398  34.850  17.347  1.00  0.00     0.011 A 
HETATM   27  N7  UNL     1      16.486  35.971  15.800  1.00  0.00    -0.288 N 
HETATM   28  C14 UNL     1      16.756  34.468  17.257  1.00  0.00     0.121 A 
HETATM   29  C22 UNL     1      14.293  34.468  18.132  1.00  0.00     0.044 A 
HETATM   30  N6  UNL     1      17.424  35.146  16.319  1.00  0.00    -0.308 N 
ATOM     31  H6  UNL     1      18.406  35.061  16.058  1.00  0.00     0.186 HD
BRANCH  27  32
HETATM   32  C15 UNL     1      16.845  36.846  14.689  1.00  0.00     0.187 C 
BRANCH  32  33
HETATM   33  C16 UNL     1      17.189  36.076  13.435  1.00  0.00    -0.035 A 
HETATM   34  C17 UNL     1      18.136  36.567  12.519  1.00  0.00     0.009 A 
HETATM   35  C18 UNL     1      18.465  35.839  11.371  1.00  0.00     0.004 A 
HETATM   36  C19 UNL     1      17.856  34.609  11.130  1.00  0.00     0.042 A 
HETATM   37  C20 UNL     1      16.929  34.116  12.039  1.00  0.00     0.117 A 
HETATM   38  F1  UNL     1      16.341  32.938  11.804  1.00  0.00    -0.206 F 
HETATM   39  C21 UNL     1      16.595  34.830  13.186  1.00  0.00     0.051 A 
ENDBRANCH  32  33
ENDBRANCH  27  32
ENDBRANCH   1  22
TORSDOF 8
ENDMDL
MODEL 5
REMARK minimizedAffinity -7.7975893
REMARK  8 active torsions:
REMARK  status: ('A' for Active; 'I' for Inactive)
REMARK       I    between atoms: N1_1  and  C1_2 
REMARK    1  A    between atoms: C1_2  and  C2_4 
REMARK    2  A    between atoms: C2_4  and  O2_5 
REMARK    3  A    between atoms: O2_5  and  C3_6 
REMARK    4  A    between atoms: C3_6  and  C4_7 
REMARK    5  A    between atoms: C8_16  and  N5_17 
REMARK    6  A    between atoms: N5_17  and  C9_18 
REMARK    7  A    between atoms: N7_26  and  C15_27 
REMARK    8  A    between atoms: C15_27  and  C16_28 
ROOT
HETATM    1  N5  UNL     1      16.852  51.642   5.625  1.00  0.00    -0.341 N 
HETATM    2  H10 UNL     1      16.692  50.918   4.926  1.00  0.00     0.167 HD
ENDROOT
BRANCH   1   3
HETATM    3  C8  UNL     1      17.797  51.324   6.580  1.00  0.00     0.136 A 
HETATM    4  N4  UNL     1      18.282  52.199   7.412  1.00  0.00    -0.336 N 
HETATM    5  C7  UNL     1      19.273  51.844   8.289  1.00  0.00     0.199 A 
ATOM      6  H4  UNL     1      17.923  53.154   7.412  1.00  0.00     0.168 HD
HETATM    7  N3  UNL     1      19.831  50.681   8.408  1.00  0.00    -0.289 N 
HETATM    8  N2  UNL     1      19.325  49.762   7.577  1.00  0.00    -0.262 N 
ATOM      9  H3  UNL     1      20.582  50.486   9.070  1.00  0.00     0.188 HD
HETATM   10  C6  UNL     1      19.725  48.456   7.506  1.00  0.00     0.117 A 
HETATM   11  C23 UNL     1      18.321  49.981   6.681  1.00  0.00     0.108 A 
HETATM   12  C5  UNL     1      18.921  47.809   6.595  1.00  0.00     0.031 A 
HETATM   13  C4  UNL     1      18.009  48.772   6.066  1.00  0.00    -0.001 A 
BRANCH  13  14
HETATM   14  C3  UNL     1      16.926  48.489   5.074  1.00  0.00     0.209 C 
BRANCH  14  15
HETATM   15  O2  UNL     1      16.844  47.107   4.705  1.00  0.00    -0.377 OA
BRANCH  15  16
HETATM   16  C2  UNL     1      15.541  46.551   4.883  1.00  0.00     0.270 C 
BRANCH  16  17
HETATM   17  C1  UNL     1      15.167  46.485   6.361  1.00  0.00     0.239 C 
HETATM   18  N1  UNL     1      15.893  45.614   7.127  1.00  0.00    -0.368 N 
HETATM   19  H1  UNL     1      16.283  44.779   6.704  1.00  0.00     0.159 HD
HETATM   20  H2  UNL     1      15.521  45.486   8.061  1.00  0.00     0.159 HD
HETATM   21  O1  UNL     1      14.252  47.138   6.856  1.00  0.00    -0.271 OA
ENDBRANCH  16  17
ENDBRANCH  15  16
ENDBRANCH  14  15
ENDBRANCH  13  14
ENDBRANCH   1   3
BRANCH   1  22
HETATM   22  C9  UNL     1      16.433  52.918   5.200  1.00  0.00     0.034 A 
HETATM   23  C10 UNL     1      15.063  53.227   5.267  1.00  0.00     0.032 A 
HETATM   24  C11 UNL     1      14.553  54.471   4.870  1.00  0.00     0.034 A 
HETATM   25  C12 UNL     1      15.468  55.418   4.396  1.00  0.00     0.062 A 
HETATM   26  C13 UNL     1      16.830  55.153   4.316  1.00  0.00     0.011 A 
HETATM   27  N7  UNL     1      15.323  56.707   3.934  1.00  0.00    -0.288 N 
HETATM   28  C14 UNL     1      17.398  56.340   3.802  1.00  0.00     0.121 A 
HETATM   29  C22 UNL     1      17.317  53.894   4.719  1.00  0.00     0.044 A 
HETATM   30  N6  UNL     1      16.489  57.290   3.567  1.00  0.00    -0.308 N 
ATOM     31  H6  UNL     1      16.637  58.230   3.200  1.00  0.00     0.186 HD
BRANCH  27  32
HETATM   32  C15 UNL     1      14.076  57.444   3.766  1.00  0.00     0.187 C 
BRANCH  32  33
HETATM   33  C16 UNL     1      13.648  57.532   2.319  1.00  0.00    -0.035 A 
HETATM   34  C17 UNL     1      13.332  58.769   1.730  1.00  0.00     0.009 A 
HETATM   35  C18 UNL     1      12.957  58.847   0.385  1.00  0.00     0.004 A 
HETATM   36  C19 UNL     1      12.902  57.689  -0.389  1.00  0.00     0.042 A 
HETATM   37  C20 UNL     1      13.225  56.467   0.187  1.00  0.00     0.117 A 
HETATM   38  F1  UNL     1      13.167  55.355  -0.554  1.00  0.00    -0.206 F 
HETATM   39  C21 UNL     1      13.601  56.377   1.524  1.00  0.00     0.051 A 
ENDBRANCH  32  33
ENDBRANCH  27  32
ENDBRANCH   1  22
TORSDOF 8
ENDMDL
MODEL 6
REMARK minimizedAffinity -7.64706469
REMARK  8 active torsions:
REMARK  status: ('A' for Active; 'I' for Inactive)
REMARK       I    between atoms: N1_1  and  C1_2 
REMARK    1  A    between atoms: C1_2  and  C2_4 
REMARK    2  A    between atoms: C2_4  and  O2_5 
REMARK    3  A    between atoms: O2_5  and  C3_6 
REMARK    4  A    between atoms: C3_6  and  C4_7 
REMARK    5  A    between atoms: C8_16  and  N5_17 
REMARK    6  A    between atoms: N5_17  and  C9_18 
REMARK    7  A    between atoms: N7_26  and  C15_27 
REMARK    8  A    between atoms: C15_27  and  C16_28 
ROOT
HETATM    1  N5  UNL     1      16.069  36.241  16.475  1.00  0.00    -0.341 N 
HETATM    2  H10 UNL     1      16.879  36.325  17.086  1.00  0.00     0.167 HD
ENDROOT
BRANCH   1   3
HETATM    3  C8  UNL     1      16.368  36.138  15.131  1.00  0.00     0.136 A 
HETATM    4  N4  UNL     1      16.357  35.006  14.489  1.00  0.00    -0.336 N 
HETATM    5  C7  UNL     1      16.735  34.954  13.173  1.00  0.00     0.199 A 
ATOM      6  H4  UNL     1      16.066  34.154  14.968  1.00  0.00     0.168 HD
HETATM    7  N3  UNL     1      17.131  35.941  12.434  1.00  0.00    -0.289 N 
HETATM    8  N2  UNL     1      17.122  37.118  13.071  1.00  0.00    -0.262 N 
ATOM      9  H3  UNL     1      17.420  35.832  11.462  1.00  0.00     0.188 HD
HETATM   10  C6  UNL     1      17.480  38.317  12.520  1.00  0.00     0.117 A 
HETATM   11  C23 UNL     1      16.741  37.307  14.366  1.00  0.00     0.108 A 
HETATM   12  C5  UNL     1      17.264  39.303  13.457  1.00  0.00     0.031 A 
HETATM   13  C4  UNL     1      16.780  38.671  14.642  1.00  0.00    -0.001 A 
BRANCH  13  14
HETATM   14  C3  UNL     1      16.374  39.375  15.898  1.00  0.00     0.209 C 
BRANCH  14  15
HETATM   15  O2  UNL     1      15.571  40.538  15.659  1.00  0.00    -0.377 OA
BRANCH  15  16
HETATM   16  C2  UNL     1      16.233  41.759  15.990  1.00  0.00     0.270 C 
BRANCH  16  17
HETATM   17  C1  UNL     1      15.720  42.322  17.312  1.00  0.00     0.239 C 
HETATM   18  N1  UNL     1      14.447  41.968  17.665  1.00  0.00    -0.368 N 
HETATM   19  H1  UNL     1      13.763  41.771  16.942  1.00  0.00     0.159 HD
HETATM   20  H2  UNL     1      14.089  42.477  18.465  1.00  0.00     0.159 HD
HETATM   21  O1  UNL     1      16.377  43.079  18.024  1.00  0.00    -0.271 OA
ENDBRANCH  16  17
ENDBRANCH  15  16
ENDBRANCH  14  15
ENDBRANCH  13  14
ENDBRANCH   1   3
BRANCH   1  22
HETATM   22  C9  UNL     1      14.914  35.800  17.150  1.00  0.00     0.034 A 
HETATM   23  C10 UNL     1      15.074  34.989  18.287  1.00  0.00     0.032 A 
HETATM   24  C11 UNL     1      13.984  34.506  19.025  1.00  0.00     0.034 A 
HETATM   25  C12 UNL     1      12.704  34.864  18.588  1.00  0.00     0.062 A 
HETATM   26  C13 UNL     1      12.503  35.666  17.470  1.00  0.00     0.011 A 
HETATM   27  N7  UNL     1      11.442  34.577  19.059  1.00  0.00    -0.288 N 
HETATM   28  C14 UNL     1      11.099  35.794  17.368  1.00  0.00     0.121 A 
HETATM   29  C22 UNL     1      13.614  36.136  16.744  1.00  0.00     0.044 A 
HETATM   30  N6  UNL     1      10.447  35.136  18.330  1.00  0.00    -0.308 N 
ATOM     31  H6  UNL     1       9.441  35.070  18.480  1.00  0.00     0.186 HD
BRANCH  27  32
HETATM   32  C15 UNL     1      11.101  33.721  20.189  1.00  0.00     0.187 C 
BRANCH  32  33
HETATM   33  C16 UNL     1       9.984  34.294  21.031  1.00  0.00    -0.035 A 
HETATM   34  C17 UNL     1       9.935  34.075  22.419  1.00  0.00     0.009 A 
HETATM   35  C18 UNL     1       8.910  34.625  23.194  1.00  0.00     0.004 A 
HETATM   36  C19 UNL     1       7.926  35.407  22.593  1.00  0.00     0.042 A 
HETATM   37  C20 UNL     1       7.977  35.634  21.223  1.00  0.00     0.117 A 
HETATM   38  F1  UNL     1       7.030  36.380  20.644  1.00  0.00    -0.206 F 
HETATM   39  C21 UNL     1       8.994  35.093  20.441  1.00  0.00     0.051 A 
ENDBRANCH  32  33
ENDBRANCH  27  32
ENDBRANCH   1  22
TORSDOF 8
ENDMDL
MODEL 7
REMARK minimizedAffinity -7.40428448
REMARK  8 active torsions:
REMARK  status: ('A' for Active; 'I' for Inactive)
REMARK       I    between atoms: N1_1  and  C1_2 
REMARK    1  A    between atoms: C1_2  and  C2_4 
REMARK    2  A    between atoms: C2_4  and  O2_5 
REMARK    3  A    between atoms: O2_5  and  C3_6 
REMARK    4  A    between atoms: C3_6  and  C4_7 
REMARK    5  A    between atoms: C8_16  and  N5_17 
REMARK    6  A    between atoms: N5_17  and  C9_18 
REMARK    7  A    between atoms: N7_26  and  C15_27 
REMARK    8  A    between atoms: C15_27  and  C16_28 
ROOT
HETATM    1  N5  UNL     1      15.409  37.854  16.546  1.00  0.00    -0.341 N 
HETATM    2  H10 UNL     1      15.670  37.309  15.726  1.00  0.00     0.167 HD
ENDROOT
BRANCH   1   3
HETATM    3  C8  UNL     1      15.642  39.211  16.436  1.00  0.00     0.136 A 
HETATM    4  N4  UNL     1      15.229  40.073  17.319  1.00  0.00    -0.336 N 
HETATM    5  C7  UNL     1      15.423  41.414  17.120  1.00  0.00     0.199 A 
ATOM      6  H4  UNL     1      14.759  39.748  18.164  1.00  0.00     0.168 HD
HETATM    7  N3  UNL     1      15.996  41.978  16.105  1.00  0.00    -0.289 N 
HETATM    8  N2  UNL     1      16.450  41.104  15.198  1.00  0.00    -0.262 N 
ATOM      9  H3  UNL     1      16.092  42.989  16.005  1.00  0.00     0.188 HD
HETATM   10  C6  UNL     1      17.103  41.433  14.042  1.00  0.00     0.117 A 
HETATM   11  C23 UNL     1      16.347  39.748  15.294  1.00  0.00     0.108 A 
HETATM   12  C5  UNL     1      17.482  40.267  13.416  1.00  0.00     0.031 A 
HETATM   13  C4  UNL     1      17.012  39.178  14.212  1.00  0.00    -0.001 A 
BRANCH  13  14
HETATM   14  C3  UNL     1      17.242  37.729  13.924  1.00  0.00     0.209 C 
BRANCH  14  15
HETATM   15  O2  UNL     1      18.587  37.438  13.526  1.00  0.00    -0.377 OA
BRANCH  15  16
HETATM   16  C2  UNL     1      18.704  36.235  12.766  1.00  0.00     0.270 C 
BRANCH  16  17
HETATM   17  C1  UNL     1      17.724  36.226  11.596  1.00  0.00     0.239 C 
HETATM   18  N1  UNL     1      18.010  37.077  10.564  1.00  0.00    -0.368 N 
HETATM   19  H1  UNL     1      18.511  37.939  10.749  1.00  0.00     0.159 HD
HETATM   20  H2  UNL     1      17.265  37.154   9.881  1.00  0.00     0.159 HD
HETATM   21  O1  UNL     1      16.711  35.530  11.569  1.00  0.00    -0.271 OA
ENDBRANCH  16  17
ENDBRANCH  15  16
ENDBRANCH  14  15
ENDBRANCH  13  14
ENDBRANCH   1   3
BRANCH   1  22
HETATM   22  C9  UNL     1      14.485  37.190  17.376  1.00  0.00     0.034 A 
HETATM   23  C10 UNL     1      13.572  36.302  16.782  1.00  0.00     0.032 A 
HETATM   24  C11 UNL     1      12.619  35.593  17.528  1.00  0.00     0.034 A 
HETATM   25  C12 UNL     1      12.604  35.800  18.911  1.00  0.00     0.062 A 
HETATM   26  C13 UNL     1      13.491  36.668  19.538  1.00  0.00     0.011 A 
HETATM   27  N7  UNL     1      11.825  35.286  19.925  1.00  0.00    -0.288 N 
HETATM   28  C14 UNL     1      13.158  36.594  20.909  1.00  0.00     0.121 A 
HETATM   29  C22 UNL     1      14.438  37.370  18.766  1.00  0.00     0.044 A 
HETATM   30  N6  UNL     1      12.147  35.756  21.153  1.00  0.00    -0.308 N 
ATOM     31  H6  UNL     1      11.720  35.525  22.050  1.00  0.00     0.186 HD
BRANCH  27  32
HETATM   32  C15 UNL     1      10.704  34.363  19.787  1.00  0.00     0.187 C 
BRANCH  32  33
HETATM   33  C16 UNL     1       9.385  35.080  19.611  1.00  0.00    -0.035 A 
HETATM   34  C17 UNL     1       9.252  36.141  18.698  1.00  0.00     0.009 A 
HETATM   35  C18 UNL     1       8.023  36.785  18.524  1.00  0.00     0.004 A 
HETATM   36  C19 UNL     1       6.911  36.372  19.255  1.00  0.00     0.042 A 
HETATM   37  C20 UNL     1       7.037  35.316  20.150  1.00  0.00     0.117 A 
HETATM   38  F1  UNL     1       5.971  34.922  20.856  1.00  0.00    -0.206 F 
HETATM   39  C21 UNL     1       8.254  34.665  20.330  1.00  0.00     0.051 A 
ENDBRANCH  32  33
ENDBRANCH  27  32
ENDBRANCH   1  22
TORSDOF 8
ENDMDL
MODEL 8
REMARK minimizedAffinity -7.39095354
REMARK  8 active torsions:
REMARK  status: ('A' for Active; 'I' for Inactive)
REMARK       I    between atoms: N1_1  and  C1_2 
REMARK    1  A    between atoms: C1_2  and  C2_4 
REMARK    2  A    between atoms: C2_4  and  O2_5 
REMARK    3  A    between atoms: O2_5  and  C3_6 
REMARK    4  A    between atoms: C3_6  and  C4_7 
REMARK    5  A    between atoms: C8_16  and  N5_17 
REMARK    6  A    between atoms: N5_17  and  C9_18 
REMARK    7  A    between atoms: N7_26  and  C15_27 
REMARK    8  A    between atoms: C15_27  and  C16_28 
ROOT
HETATM    1  N5  UNL     1      17.113  51.727   5.705  1.00  0.00    -0.341 N 
HETATM    2  H10 UNL     1      17.032  50.955   5.047  1.00  0.00     0.167 HD
ENDROOT
BRANCH   1   3
HETATM    3  C8  UNL     1      18.038  51.534   6.712  1.00  0.00     0.136 A 
HETATM    4  N4  UNL     1      18.532  52.511   7.415  1.00  0.00    -0.336 N 
HETATM    5  C7  UNL     1      19.502  52.269   8.351  1.00  0.00     0.199 A 
ATOM      6  H4  UNL     1      18.194  53.463   7.270  1.00  0.00     0.168 HD
HETATM    7  N3  UNL     1      20.032  51.125   8.648  1.00  0.00    -0.289 N 
HETATM    8  N2  UNL     1      19.518  50.105   7.952  1.00  0.00    -0.262 N 
ATOM      9  H3  UNL     1      20.770  51.013   9.344  1.00  0.00     0.188 HD
HETATM   10  C6  UNL     1      19.889  48.795   8.080  1.00  0.00     0.117 A 
HETATM   11  C23 UNL     1      18.531  50.210   7.018  1.00  0.00     0.108 A 
HETATM   12  C5  UNL     1      19.083  48.037   7.260  1.00  0.00     0.031 A 
HETATM   13  C4  UNL     1      18.200  48.930   6.580  1.00  0.00    -0.001 A 
BRANCH  13  14
HETATM   14  C3  UNL     1      17.124  48.527   5.623  1.00  0.00     0.209 C 
BRANCH  14  15
HETATM   15  O2  UNL     1      17.212  47.155   5.219  1.00  0.00    -0.377 OA
BRANCH  15  16
HETATM   16  C2  UNL     1      15.940  46.514   5.113  1.00  0.00     0.270 C 
BRANCH  16  17
HETATM   17  C1  UNL     1      15.236  46.463   6.465  1.00  0.00     0.239 C 
HETATM   18  N1  UNL     1      15.704  45.534   7.354  1.00  0.00    -0.368 N 
HETATM   19  H1  UNL     1      16.120  44.676   7.009  1.00  0.00     0.159 HD
HETATM   20  H2  UNL     1      15.121  45.426   8.176  1.00  0.00     0.159 HD
HETATM   21  O1  UNL     1      14.280  47.179   6.756  1.00  0.00    -0.271 OA
ENDBRANCH  16  17
ENDBRANCH  15  16
ENDBRANCH  14  15
ENDBRANCH  13  14
ENDBRANCH   1   3
BRANCH   1  22
HETATM   22  C9  UNL     1      16.624  52.943   5.189  1.00  0.00     0.034 A 
HETATM   23  C10 UNL     1      17.550  53.886   4.710  1.00  0.00     0.032 A 
HETATM   24  C11 UNL     1      17.157  55.121   4.175  1.00  0.00     0.034 A 
HETATM   25  C12 UNL     1      15.786  55.393   4.129  1.00  0.00     0.062 A 
HETATM   26  C13 UNL     1      14.837  54.487   4.590  1.00  0.00     0.011 A 
HETATM   27  N7  UNL     1      15.062  56.476   3.681  1.00  0.00    -0.288 N 
HETATM   28  C14 UNL     1      13.595  55.124   4.370  1.00  0.00     0.121 A 
HETATM   29  C22 UNL     1      15.258  53.254   5.125  1.00  0.00     0.044 A 
HETATM   30  N6  UNL     1      13.723  56.333   3.817  1.00  0.00    -0.308 N 
ATOM     31  H6  UNL     1      12.988  56.991   3.559  1.00  0.00     0.186 HD
BRANCH  27  32
HETATM   32  C15 UNL     1      15.594  57.725   3.147  1.00  0.00     0.187 C 
BRANCH  32  33
HETATM   33  C16 UNL     1      14.653  58.890   3.358  1.00  0.00    -0.035 A 
HETATM   34  C17 UNL     1      14.579  59.546   4.599  1.00  0.00     0.009 A 
HETATM   35  C18 UNL     1      13.722  60.637   4.781  1.00  0.00     0.004 A 
HETATM   36  C19 UNL     1      12.936  61.087   3.722  1.00  0.00     0.042 A 
HETATM   37  C20 UNL     1      13.015  60.447   2.492  1.00  0.00     0.117 A 
HETATM   38  F1  UNL     1      12.257  60.876   1.478  1.00  0.00    -0.206 F 
HETATM   39  C21 UNL     1      13.866  59.363   2.298  1.00  0.00     0.051 A 
ENDBRANCH  32  33
ENDBRANCH  27  32
ENDBRANCH   1  22
TORSDOF 8
ENDMDL
MODEL 9
REMARK minimizedAffinity -7.37257528
REMARK  8 active torsions:
REMARK  status: ('A' for Active; 'I' for Inactive)
REMARK       I    between atoms: N1_1  and  C1_2 
REMARK    1  A    between atoms: C1_2  and  C2_4 
REMARK    2  A    between atoms: C2_4  and  O2_5 
REMARK    3  A    between atoms: O2_5  and  C3_6 
REMARK    4  A    between atoms: C3_6  and  C4_7 
REMARK    5  A    between atoms: C8_16  and  N5_17 
REMARK    6  A    between atoms: N5_17  and  C9_18 
REMARK    7  A    between atoms: N7_26  and  C15_27 
REMARK    8  A    between atoms: C15_27  and  C16_28 
ROOT
HETATM    1  N5  UNL     1      13.944  56.936   4.541  1.00  0.00    -0.341 N 
HETATM    2  H10 UNL     1      13.947  57.539   5.362  1.00  0.00     0.167 HD
ENDROOT
BRANCH   1   3
HETATM    3  C8  UNL     1      13.533  57.550   3.375  1.00  0.00     0.136 A 
HETATM    4  N4  UNL     1      13.315  56.897   2.270  1.00  0.00    -0.336 N 
HETATM    5  C7  UNL     1      12.981  57.568   1.124  1.00  0.00     0.199 A 
ATOM      6  H4  UNL     1      13.394  55.880   2.259  1.00  0.00     0.168 HD
HETATM    7  N3  UNL     1      12.845  58.847   0.979  1.00  0.00    -0.289 N 
HETATM    8  N2  UNL     1      13.040  59.533   2.112  1.00  0.00    -0.262 N 
ATOM      9  H3  UNL     1      12.614  59.289   0.089  1.00  0.00     0.188 HD
HETATM   10  C6  UNL     1      12.946  60.892   2.239  1.00  0.00     0.117 A 
HETATM   11  C23 UNL     1      13.347  58.983   3.321  1.00  0.00     0.108 A 
HETATM   12  C5  UNL     1      13.132  61.214   3.564  1.00  0.00     0.031 A 
HETATM   13  C4  UNL     1      13.380  59.999   4.272  1.00  0.00    -0.001 A 
BRANCH  13  14
HETATM   14  C3  UNL     1      13.594  59.881   5.747  1.00  0.00     0.209 C 
BRANCH  14  15
HETATM   15  O2  UNL     1      12.666  58.994   6.383  1.00  0.00    -0.377 OA
BRANCH  15  16
HETATM   16  C2  UNL     1      12.390  59.343   7.740  1.00  0.00     0.270 C 
BRANCH  16  17
HETATM   17  C1  UNL     1      11.058  60.078   7.858  1.00  0.00     0.239 C 
HETATM   18  N1  UNL     1       9.933  59.301   7.803  1.00  0.00    -0.368 N 
HETATM   19  H1  UNL     1       9.946  58.437   7.272  1.00  0.00     0.159 HD
HETATM   20  H2  UNL     1       9.073  59.833   7.734  1.00  0.00     0.159 HD
HETATM   21  O1  UNL     1      10.967  61.299   7.965  1.00  0.00    -0.271 OA
ENDBRANCH  16  17
ENDBRANCH  15  16
ENDBRANCH  14  15
ENDBRANCH  13  14
ENDBRANCH   1   3
BRANCH   1  22
HETATM   22  C9  UNL     1      14.767  55.803   4.689  1.00  0.00     0.034 A 
HETATM   23  C10 UNL     1      14.183  54.608   5.144  1.00  0.00     0.032 A 
HETATM   24  C11 UNL     1      14.921  53.429   5.319  1.00  0.00     0.034 A 
HETATM   25  C12 UNL     1      16.287  53.476   5.018  1.00  0.00     0.062 A 
HETATM   26  C13 UNL     1      16.903  54.637   4.562  1.00  0.00     0.011 A 
HETATM   27  N7  UNL     1      17.288  52.533   5.071  1.00  0.00    -0.288 N 
HETATM   28  C14 UNL     1      18.256  54.275   4.376  1.00  0.00     0.121 A 
HETATM   29  C22 UNL     1      16.139  55.809   4.398  1.00  0.00     0.044 A 
HETATM   30  N6  UNL     1      18.498  52.998   4.682  1.00  0.00    -0.308 N 
ATOM     31  H6  UNL     1      19.384  52.494   4.633  1.00  0.00     0.186 HD
BRANCH  27  32
HETATM   32  C15 UNL     1      17.172  51.156   5.537  1.00  0.00     0.187 C 
BRANCH  32  33
HETATM   33  C16 UNL     1      18.230  50.801   6.557  1.00  0.00    -0.035 A 
HETATM   34  C17 UNL     1      18.642  51.729   7.528  1.00  0.00     0.009 A 
HETATM   35  C18 UNL     1      19.606  51.387   8.482  1.00  0.00     0.004 A 
HETATM   36  C19 UNL     1      20.163  50.110   8.480  1.00  0.00     0.042 A 
HETATM   37  C20 UNL     1      19.749  49.186   7.529  1.00  0.00     0.117 A 
HETATM   38  F1  UNL     1      20.287  47.961   7.524  1.00  0.00    -0.206 F 
HETATM   39  C21 UNL     1      18.789  49.514   6.576  1.00  0.00     0.051 A 
ENDBRANCH  32  33
ENDBRANCH  27  32
ENDBRANCH   1  22
TORSDOF 8
ENDMDL
