MODEL 1
REMARK minimizedAffinity -9.09777832
REMARK CNNscore 0.482738912
REMARK CNNaffinity 8.02557468
REMARK  8 active torsions:
REMARK  status: ('A' for Active; 'I' for Inactive)
REMARK    1  A    between atoms: N2_5  and  C4_6 
REMARK    2  A    between atoms: C7_9  and  N3_10 
REMARK    3  A    between atoms: N3_10  and  C8_11 
REMARK    4  A    between atoms: C11_18  and  N6_19 
REMARK    5  A    between atoms: N6_19  and  C12_20 
REMARK    6  A    between atoms: N7_26  and  C18_27 
REMARK    7  A    between atoms: N8_30  and  S1_31 
REMARK    8  A    between atoms: S1_31  and  C21_34 
ROOT
HETATM    1  C8  UNL     1       5.030  -5.997  28.873  1.00  0.00     0.684 A 
HETATM    2  N4  UNL     1       4.155  -5.275  29.603  1.00  0.00    -0.199 N 
ATOM      3  H4  UNL     1       3.151  -5.394  29.466  1.00  0.00     0.183 HD
HETATM    4  C9  UNL     1       4.616  -4.388  30.524  1.00  0.00     0.140 A 
HETATM    5  C10 UNL     1       5.983  -4.234  30.693  1.00  0.00     0.110 A 
HETATM    6  N5  UNL     1       6.740  -3.423  31.490  1.00  0.00    -0.186 N 
ATOM      7  H5  UNL     1       6.404  -2.767  32.195  1.00  0.00     0.184 HD
HETATM    8  C11 UNL     1       7.995  -3.661  31.160  1.00  0.00     0.687 A 
HETATM    9  N7  UNL     1       8.071  -4.715  30.257  1.00  0.00    -0.159 N 
HETATM   10  C25 UNL     1       6.783  -5.033  29.904  1.00  0.00     0.168 A 
HETATM   11  N9  UNL     1       6.370  -5.922  28.990  1.00  0.00    -0.173 N 
ATOM     12  H9  UNL     1       7.011  -6.488  28.434  1.00  0.00     0.186 HD
ENDROOT
BRANCH   1  13
HETATM   13  N3  UNL     1       4.601  -6.890  27.894  1.00  0.00    -0.192 N 
HETATM   14  H10 UNL     1       5.230  -6.837  27.106  1.00  0.00     0.184 HD
BRANCH  13  15
HETATM   15  C7  UNL     1       3.461  -7.681  27.723  1.00  0.00     0.049 A 
HETATM   16  C6  UNL     1       3.479  -9.016  27.332  1.00  0.00     0.032 A 
HETATM   17  C5  UNL     1       2.287  -9.750  27.190  1.00  0.00     0.031 A 
HETATM   18  C4  UNL     1       1.024  -9.190  27.434  1.00  0.00     0.030 A 
HETATM   19  C27 UNL     1       1.021  -7.844  27.821  1.00  0.00     0.031 A 
HETATM   20  C26 UNL     1       2.207  -7.104  27.959  1.00  0.00     0.032 A 
BRANCH  18  21
HETATM   21  N2  UNL     1      -0.144  -9.919  27.302  1.00  0.00    -0.378 N 
HETATM   22  C3  UNL     1      -0.223 -11.337  27.690  1.00  0.00     0.153 C 
HETATM   23  C2  UNL     1      -1.674 -11.751  28.035  1.00  0.00     0.291 C 
HETATM   24  N1  UNL     1      -2.686 -11.489  26.989  1.00  0.00     0.087 N 
HETATM   25  C1  UNL     1      -3.009 -12.692  26.227  1.00  0.00     0.310 C 
HETATM   26  C29 UNL     1      -2.254 -10.402  26.082  1.00  0.00     0.291 C 
HETATM   27  C28 UNL     1      -1.379  -9.323  26.760  1.00  0.00     0.153 C 
ENDBRANCH  18  21
ENDBRANCH  13  15
ENDBRANCH   1  13
BRANCH   9  28
HETATM   28  C18 UNL     1       9.287  -5.321  29.757  1.00  0.00     0.125 C 
HETATM   29  C19 UNL     1       9.563  -6.721  30.311  1.00  0.00     0.043 C 
HETATM   30  C20 UNL     1      10.715  -7.215  29.448  1.00  0.00     0.109 C 
HETATM   31  N8  UNL     1      10.530  -6.559  28.128  1.00  0.00    -0.208 NA
HETATM   32  C24 UNL     1       9.381  -5.608  28.252  1.00  0.00     0.133 C 
BRANCH  31  33
HETATM   33  S1  UNL     1      10.435  -7.583  26.769  1.00  0.00     0.215 S 
HETATM   34  O1  UNL     1      10.655  -6.758  25.600  1.00  0.00    -0.211 OA
HETATM   35  O2  UNL     1      11.268  -8.733  27.045  1.00  0.00    -0.211 OA
BRANCH  33  36
HETATM   36  C21 UNL     1       8.730  -8.201  26.726  1.00  0.00     0.124 A 
HETATM   37  C22 UNL     1       7.848  -7.632  25.646  1.00  0.00     0.023 A 
HETATM   38  C23 UNL     1       8.409  -9.025  25.507  1.00  0.00     0.023 A 
ENDBRANCH  33  36
ENDBRANCH  31  33
ENDBRANCH   9  28
BRANCH   8  39
HETATM   39  N6  UNL     1       9.108  -2.998  31.554  1.00  0.00    -0.191 N 
HETATM   40  H12 UNL     1       9.442  -2.200  31.025  1.00  0.00     0.184 HD
BRANCH  39  41
HETATM   41  C12 UNL     1       9.825  -3.169  32.757  1.00  0.00     0.049 A 
HETATM   42  C13 UNL     1      11.047  -2.535  33.021  1.00  0.00     0.030 A 
HETATM   43  C14 UNL     1      11.719  -2.739  34.231  1.00  0.00     0.002 A 
HETATM   44  C15 UNL     1      11.184  -3.595  35.190  1.00  0.00     0.000 A 
HETATM   45  C16 UNL     1       9.983  -4.252  34.939  1.00  0.00     0.002 A 
HETATM   46  C17 UNL     1       9.313  -4.041  33.730  1.00  0.00     0.030 A 
ENDBRANCH  39  41
ENDBRANCH   8  39
TORSDOF 8
ENDMDL
MODEL 2
REMARK minimizedAffinity -8.96317005
REMARK CNNscore 0.478333175
REMARK CNNaffinity 7.90114355
REMARK  8 active torsions:
REMARK  status: ('A' for Active; 'I' for Inactive)
REMARK    1  A    between atoms: N2_5  and  C4_6 
REMARK    2  A    between atoms: C7_9  and  N3_10 
REMARK    3  A    between atoms: N3_10  and  C8_11 
REMARK    4  A    between atoms: C11_18  and  N6_19 
REMARK    5  A    between atoms: N6_19  and  C12_20 
REMARK    6  A    between atoms: N7_26  and  C18_27 
REMARK    7  A    between atoms: N8_30  and  S1_31 
REMARK    8  A    between atoms: S1_31  and  C21_34 
ROOT
HETATM    1  C8  UNL     1       4.373  -5.491  29.105  1.00  0.00     0.684 A 
HETATM    2  N4  UNL     1       4.026  -4.585  30.043  1.00  0.00    -0.199 N 
ATOM      3  H4  UNL     1       3.052  -4.301  30.145  1.00  0.00     0.183 HD
HETATM    4  C9  UNL     1       4.980  -4.051  30.851  1.00  0.00     0.140 A 
HETATM    5  C10 UNL     1       6.300  -4.443  30.693  1.00  0.00     0.110 A 
HETATM    6  N5  UNL     1       7.463  -4.077  31.308  1.00  0.00    -0.186 N 
ATOM      7  H5  UNL     1       7.567  -3.431  32.091  1.00  0.00     0.184 HD
HETATM    8  C11 UNL     1       8.424  -4.728  30.682  1.00  0.00     0.687 A 
HETATM    9  N7  UNL     1       7.889  -5.619  29.759  1.00  0.00    -0.159 N 
HETATM   10  C25 UNL     1       6.537  -5.386  29.715  1.00  0.00     0.168 A 
HETATM   11  N9  UNL     1       5.627  -5.939  28.901  1.00  0.00    -0.173 N 
ATOM     12  H9  UNL     1       5.862  -6.635  28.194  1.00  0.00     0.186 HD
ENDROOT
BRANCH   1  13
HETATM   13  N3  UNL     1       3.433  -6.035  28.233  1.00  0.00    -0.192 N 
HETATM   14  H10 UNL     1       2.824  -5.298  27.908  1.00  0.00     0.184 HD
BRANCH  13  15
HETATM   15  C7  UNL     1       3.083  -7.336  27.860  1.00  0.00     0.049 A 
HETATM   16  C6  UNL     1       3.988  -8.306  27.441  1.00  0.00     0.032 A 
HETATM   17  C5  UNL     1       3.559  -9.600  27.090  1.00  0.00     0.031 A 
HETATM   18  C4  UNL     1       2.211  -9.986  27.142  1.00  0.00     0.030 A 
HETATM   19  C27 UNL     1       1.311  -8.997  27.559  1.00  0.00     0.031 A 
HETATM   20  C26 UNL     1       1.732  -7.703  27.906  1.00  0.00     0.032 A 
BRANCH  18  21
HETATM   21  N2  UNL     1       1.796 -11.262  26.805  1.00  0.00    -0.378 N 
HETATM   22  C3  UNL     1       0.733 -11.496  25.813  1.00  0.00     0.153 C 
HETATM   23  C2  UNL     1       0.860 -12.897  25.166  1.00  0.00     0.291 C 
HETATM   24  N1  UNL     1       0.893 -14.040  26.103  1.00  0.00     0.087 N 
HETATM   25  C1  UNL     1      -0.402 -14.705  26.201  1.00  0.00     0.310 C 
HETATM   26  C29 UNL     1       1.365 -13.624  27.443  1.00  0.00     0.291 C 
HETATM   27  C28 UNL     1       2.386 -12.463  27.422  1.00  0.00     0.153 C 
ENDBRANCH  18  21
ENDBRANCH  13  15
ENDBRANCH   1  13
BRANCH   9  28
HETATM   28  C18 UNL     1       8.635  -6.574  28.967  1.00  0.00     0.125 C 
HETATM   29  C19 UNL     1       9.495  -5.944  27.870  1.00  0.00     0.043 C 
HETATM   30  C20 UNL     1      10.347  -7.107  27.384  1.00  0.00     0.109 C 
HETATM   31  N8  UNL     1      10.526  -7.987  28.568  1.00  0.00    -0.208 NA
HETATM   32  C24 UNL     1       9.696  -7.425  29.679  1.00  0.00     0.133 C 
BRANCH  31  33
HETATM   33  S1  UNL     1      12.130  -8.349  29.018  1.00  0.00     0.215 S 
HETATM   34  O1  UNL     1      12.994  -7.766  28.013  1.00  0.00    -0.211 OA
HETATM   35  O2  UNL     1      12.266  -8.008  30.417  1.00  0.00    -0.211 OA
BRANCH  33  36
HETATM   36  C21 UNL     1      12.278 -10.155  28.929  1.00  0.00     0.124 A 
HETATM   37  C22 UNL     1      12.293 -10.883  30.248  1.00  0.00     0.023 A 
HETATM   38  C23 UNL     1      11.050 -10.894  29.394  1.00  0.00     0.023 A 
ENDBRANCH  33  36
ENDBRANCH  31  33
ENDBRANCH   9  28
BRANCH   8  39
HETATM   39  N6  UNL     1       9.764  -4.584  30.818  1.00  0.00    -0.191 N 
HETATM   40  H12 UNL     1      10.387  -4.873  30.072  1.00  0.00     0.184 HD
BRANCH  39  41
HETATM   41  C12 UNL     1      10.451  -3.902  31.843  1.00  0.00     0.049 A 
HETATM   42  C13 UNL     1      10.559  -4.390  33.153  1.00  0.00     0.030 A 
HETATM   43  C14 UNL     1      11.253  -3.675  34.134  1.00  0.00     0.002 A 
HETATM   44  C15 UNL     1      11.837  -2.449  33.823  1.00  0.00     0.000 A 
HETATM   45  C16 UNL     1      11.723  -1.936  32.534  1.00  0.00     0.002 A 
HETATM   46  C17 UNL     1      11.033  -2.657  31.555  1.00  0.00     0.030 A 
ENDBRANCH  39  41
ENDBRANCH   8  39
TORSDOF 8
ENDMDL
MODEL 3
REMARK minimizedAffinity -9.73155212
REMARK CNNscore 0.432927102
REMARK CNNaffinity 7.91466713
REMARK  8 active torsions:
REMARK  status: ('A' for Active; 'I' for Inactive)
REMARK    1  A    between atoms: N2_5  and  C4_6 
REMARK    2  A    between atoms: C7_9  and  N3_10 
REMARK    3  A    between atoms: N3_10  and  C8_11 
REMARK    4  A    between atoms: C11_18  and  N6_19 
REMARK    5  A    between atoms: N6_19  and  C12_20 
REMARK    6  A    between atoms: N7_26  and  C18_27 
REMARK    7  A    between atoms: N8_30  and  S1_31 
REMARK    8  A    between atoms: S1_31  and  C21_34 
ROOT
HETATM    1  C8  UNL     1       5.511  -5.679  29.151  1.00  0.00     0.684 A 
HETATM    2  N4  UNL     1       4.598  -4.925  29.797  1.00  0.00    -0.199 N 
ATOM      3  H4  UNL     1       3.604  -5.039  29.595  1.00  0.00     0.183 HD
HETATM    4  C9  UNL     1       5.006  -4.011  30.717  1.00  0.00     0.140 A 
HETATM    5  C10 UNL     1       6.360  -3.864  30.972  1.00  0.00     0.110 A 
HETATM    6  N5  UNL     1       7.070  -3.033  31.792  1.00  0.00    -0.186 N 
ATOM      7  H5  UNL     1       6.695  -2.351  32.451  1.00  0.00     0.184 HD
HETATM    8  C11 UNL     1       8.342  -3.293  31.556  1.00  0.00     0.687 A 
HETATM    9  N7  UNL     1       8.466  -4.378  30.696  1.00  0.00    -0.159 N 
HETATM   10  C25 UNL     1       7.202  -4.697  30.267  1.00  0.00     0.168 A 
HETATM   11  N9  UNL     1       6.842  -5.612  29.356  1.00  0.00    -0.173 N 
ATOM     12  H9  UNL     1       7.512  -6.202  28.865  1.00  0.00     0.186 HD
ENDROOT
BRANCH   1  13
HETATM   13  N3  UNL     1       5.140  -6.601  28.176  1.00  0.00    -0.192 N 
HETATM   14  H10 UNL     1       5.833  -6.596  27.441  1.00  0.00     0.184 HD
BRANCH  13  15
HETATM   15  C7  UNL     1       3.996  -7.370  27.942  1.00  0.00     0.049 A 
HETATM   16  C6  UNL     1       4.010  -8.682  27.480  1.00  0.00     0.032 A 
HETATM   17  C5  UNL     1       2.814  -9.396  27.278  1.00  0.00     0.031 A 
HETATM   18  C4  UNL     1       1.552  -8.837  27.527  1.00  0.00     0.030 A 
HETATM   19  C27 UNL     1       1.554  -7.513  27.986  1.00  0.00     0.031 A 
HETATM   20  C26 UNL     1       2.743  -6.793  28.185  1.00  0.00     0.032 A 
BRANCH  18  21
HETATM   21  N2  UNL     1       0.379  -9.545  27.335  1.00  0.00    -0.378 N 
HETATM   22  C3  UNL     1      -0.937  -8.886  27.341  1.00  0.00     0.153 C 
HETATM   23  C2  UNL     1      -1.981  -9.696  26.534  1.00  0.00     0.291 C 
HETATM   24  N1  UNL     1      -2.156 -11.107  26.939  1.00  0.00     0.087 N 
HETATM   25  C1  UNL     1      -3.336 -11.293  27.778  1.00  0.00     0.310 C 
HETATM   26  C29 UNL     1      -0.949 -11.626  27.619  1.00  0.00     0.291 C 
HETATM   27  C28 UNL     1       0.376 -11.004  27.120  1.00  0.00     0.153 C 
ENDBRANCH  18  21
ENDBRANCH  13  15
ENDBRANCH   1  13
BRANCH   9  28
HETATM   28  C18 UNL     1       9.707  -5.011  30.299  1.00  0.00     0.125 C 
HETATM   29  C19 UNL     1       9.701  -6.536  30.428  1.00  0.00     0.043 C 
HETATM   30  C20 UNL     1      10.982  -6.950  29.719  1.00  0.00     0.109 C 
HETATM   31  N8  UNL     1      11.199  -5.924  28.665  1.00  0.00    -0.208 NA
HETATM   32  C24 UNL     1      10.151  -4.870  28.837  1.00  0.00     0.133 C 
BRANCH  31  33
HETATM   33  S1  UNL     1      11.355  -6.490  27.065  1.00  0.00     0.215 S 
HETATM   34  O1  UNL     1      12.232  -5.568  26.374  1.00  0.00    -0.211 OA
HETATM   35  O2  UNL     1      11.658  -7.902  27.141  1.00  0.00    -0.211 OA
BRANCH  33  36
HETATM   36  C21 UNL     1       9.701  -6.373  26.330  1.00  0.00     0.124 A 
HETATM   37  C22 UNL     1       9.330  -7.465  25.361  1.00  0.00     0.023 A 
HETATM   38  C23 UNL     1       8.762  -7.472  26.757  1.00  0.00     0.023 A 
ENDBRANCH  33  36
ENDBRANCH  31  33
ENDBRANCH   9  28
BRANCH   8  39
HETATM   39  N6  UNL     1       9.433  -2.627  32.002  1.00  0.00    -0.191 N 
HETATM   40  H12 UNL     1       9.709  -1.752  31.572  1.00  0.00     0.184 HD
BRANCH  39  41
HETATM   41  C12 UNL     1      10.198  -2.912  33.153  1.00  0.00     0.049 A 
HETATM   42  C13 UNL     1       9.777  -3.795  34.158  1.00  0.00     0.030 A 
HETATM   43  C14 UNL     1      10.574  -4.043  35.280  1.00  0.00     0.002 A 
HETATM   44  C15 UNL     1      11.800  -3.397  35.422  1.00  0.00     0.000 A 
HETATM   45  C16 UNL     1      12.226  -2.499  34.447  1.00  0.00     0.002 A 
HETATM   46  C17 UNL     1      11.428  -2.258  33.324  1.00  0.00     0.030 A 
ENDBRANCH  39  41
ENDBRANCH   8  39
TORSDOF 8
ENDMDL
MODEL 4
REMARK minimizedAffinity -8.54749298
REMARK CNNscore 0.381165057
REMARK CNNaffinity 7.83290482
REMARK  8 active torsions:
REMARK  status: ('A' for Active; 'I' for Inactive)
REMARK    1  A    between atoms: N2_5  and  C4_6 
REMARK    2  A    between atoms: C7_9  and  N3_10 
REMARK    3  A    between atoms: N3_10  and  C8_11 
REMARK    4  A    between atoms: C11_18  and  N6_19 
REMARK    5  A    between atoms: N6_19  and  C12_20 
REMARK    6  A    between atoms: N7_26  and  C18_27 
REMARK    7  A    between atoms: N8_30  and  S1_31 
REMARK    8  A    between atoms: S1_31  and  C21_34 
ROOT
HETATM    1  C8  UNL     1       4.851  -6.198  28.606  1.00  0.00     0.684 A 
HETATM    2  N4  UNL     1       4.153  -5.415  29.454  1.00  0.00    -0.199 N 
ATOM      3  H4  UNL     1       3.136  -5.367  29.388  1.00  0.00     0.183 HD
HETATM    4  C9  UNL     1       4.808  -4.690  30.399  1.00  0.00     0.140 A 
HETATM    5  C10 UNL     1       6.190  -4.762  30.470  1.00  0.00     0.110 A 
HETATM    6  N5  UNL     1       7.118  -4.147  31.263  1.00  0.00    -0.186 N 
ATOM      7  H5  UNL     1       6.937  -3.510  32.039  1.00  0.00     0.184 HD
HETATM    8  C11 UNL     1       8.294  -4.545  30.819  1.00  0.00     0.687 A 
HETATM    9  N7  UNL     1       8.142  -5.518  29.838  1.00  0.00    -0.159 N 
HETATM   10  C25 UNL     1       6.799  -5.605  29.564  1.00  0.00     0.168 A 
HETATM   11  N9  UNL     1       6.191  -6.339  28.623  1.00  0.00    -0.173 N 
ATOM     12  H9  UNL     1       6.695  -6.947  27.979  1.00  0.00     0.186 HD
ENDROOT
BRANCH   1  13
HETATM   13  N3  UNL     1       4.222  -6.929  27.601  1.00  0.00    -0.192 N 
HETATM   14  H10 UNL     1       4.582  -6.630  26.707  1.00  0.00     0.184 HD
BRANCH  13  15
HETATM   15  C7  UNL     1       3.149  -7.824  27.568  1.00  0.00     0.049 A 
HETATM   16  C6  UNL     1       3.250  -9.162  27.203  1.00  0.00     0.032 A 
HETATM   17  C5  UNL     1       2.123 -10.005  27.203  1.00  0.00     0.031 A 
HETATM   18  C4  UNL     1       0.846  -9.554  27.569  1.00  0.00     0.030 A 
HETATM   19  C27 UNL     1       0.759  -8.203  27.929  1.00  0.00     0.031 A 
HETATM   20  C26 UNL     1       1.878  -7.356  27.925  1.00  0.00     0.032 A 
BRANCH  18  21
HETATM   21  N2  UNL     1      -0.257 -10.389  27.577  1.00  0.00    -0.378 N 
HETATM   22  C3  UNL     1      -1.374 -10.192  28.517  1.00  0.00     0.153 C 
HETATM   23  C2  UNL     1      -2.689 -10.798  27.970  1.00  0.00     0.291 C 
HETATM   24  N1  UNL     1      -2.634 -12.227  27.592  1.00  0.00     0.087 N 
HETATM   25  C1  UNL     1      -3.202 -13.088  28.625  1.00  0.00     0.310 C 
HETATM   26  C29 UNL     1      -1.251 -12.646  27.271  1.00  0.00     0.291 C 
HETATM   27  C28 UNL     1      -0.380 -11.529  26.651  1.00  0.00     0.153 C 
ENDBRANCH  18  21
ENDBRANCH  13  15
ENDBRANCH   1  13
BRANCH   9  28
HETATM   28  C18 UNL     1       9.211  -6.258  29.201  1.00  0.00     0.125 C 
HETATM   29  C19 UNL     1      10.231  -5.383  28.469  1.00  0.00     0.043 C 
HETATM   30  C20 UNL     1      11.348  -6.359  28.132  1.00  0.00     0.109 C 
HETATM   31  N8  UNL     1      11.330  -7.372  29.220  1.00  0.00    -0.208 NA
HETATM   32  C24 UNL     1      10.154  -7.073  30.097  1.00  0.00     0.133 C 
BRANCH  31  33
HETATM   33  S1  UNL     1      12.786  -7.606  30.074  1.00  0.00     0.215 S 
HETATM   34  O1  UNL     1      13.073  -6.369  30.770  1.00  0.00    -0.211 OA
HETATM   35  O2  UNL     1      12.664  -8.859  30.787  1.00  0.00    -0.211 OA
BRANCH  33  36
HETATM   36  C21 UNL     1      14.066  -7.871  28.816  1.00  0.00     0.124 A 
HETATM   37  C22 UNL     1      15.398  -8.359  29.321  1.00  0.00     0.023 A 
HETATM   38  C23 UNL     1      14.456  -9.315  28.634  1.00  0.00     0.023 A 
ENDBRANCH  33  36
ENDBRANCH  31  33
ENDBRANCH   9  28
BRANCH   8  39
HETATM   39  N6  UNL     1       9.522  -4.096  31.172  1.00  0.00    -0.191 N 
HETATM   40  H12 UNL     1      10.140  -3.697  30.475  1.00  0.00     0.184 HD
BRANCH  39  41
HETATM   41  C12 UNL     1      10.036  -3.949  32.477  1.00  0.00     0.049 A 
HETATM   42  C13 UNL     1       9.357  -4.381  33.625  1.00  0.00     0.030 A 
HETATM   43  C14 UNL     1       9.912  -4.211  34.898  1.00  0.00     0.002 A 
HETATM   44  C15 UNL     1      11.151  -3.591  35.042  1.00  0.00     0.000 A 
HETATM   45  C16 UNL     1      11.832  -3.135  33.917  1.00  0.00     0.002 A 
HETATM   46  C17 UNL     1      11.276  -3.311  32.646  1.00  0.00     0.030 A 
ENDBRANCH  39  41
ENDBRANCH   8  39
TORSDOF 8
ENDMDL
MODEL 5
REMARK minimizedAffinity -9.00987816
REMARK CNNscore 0.326728016
REMARK CNNaffinity 7.80342913
REMARK  8 active torsions:
REMARK  status: ('A' for Active; 'I' for Inactive)
REMARK    1  A    between atoms: N2_5  and  C4_6 
REMARK    2  A    between atoms: C7_9  and  N3_10 
REMARK    3  A    between atoms: N3_10  and  C8_11 
REMARK    4  A    between atoms: C11_18  and  N6_19 
REMARK    5  A    between atoms: N6_19  and  C12_20 
REMARK    6  A    between atoms: N7_26  and  C18_27 
REMARK    7  A    between atoms: N8_30  and  S1_31 
REMARK    8  A    between atoms: S1_31  and  C21_34 
ROOT
HETATM    1  C8  UNL     1       4.353  -5.556  29.131  1.00  0.00     0.684 A 
HETATM    2  N4  UNL     1       4.036  -4.598  30.026  1.00  0.00    -0.199 N 
ATOM      3  H4  UNL     1       3.071  -4.279  30.114  1.00  0.00     0.183 HD
HETATM    4  C9  UNL     1       5.006  -4.059  30.810  1.00  0.00     0.140 A 
HETATM    5  C10 UNL     1       6.313  -4.500  30.672  1.00  0.00     0.110 A 
HETATM    6  N5  UNL     1       7.487  -4.142  31.272  1.00  0.00    -0.186 N 
ATOM      7  H5  UNL     1       7.611  -3.466  32.025  1.00  0.00     0.184 HD
HETATM    8  C11 UNL     1       8.427  -4.852  30.678  1.00  0.00     0.687 A 
HETATM    9  N7  UNL     1       7.864  -5.766  29.796  1.00  0.00    -0.159 N 
HETATM   10  C25 UNL     1       6.520  -5.493  29.739  1.00  0.00     0.168 A 
HETATM   11  N9  UNL     1       5.593  -6.054  28.950  1.00  0.00    -0.173 N 
ATOM     12  H9  UNL     1       5.805  -6.788  28.275  1.00  0.00     0.186 HD
ENDROOT
BRANCH   1  13
HETATM   13  N3  UNL     1       3.397  -6.110  28.283  1.00  0.00    -0.192 N 
HETATM   14  H10 UNL     1       2.737  -5.391  28.023  1.00  0.00     0.184 HD
BRANCH  13  15
HETATM   15  C7  UNL     1       3.092  -7.409  27.869  1.00  0.00     0.049 A 
HETATM   16  C6  UNL     1       4.027  -8.328  27.405  1.00  0.00     0.032 A 
HETATM   17  C5  UNL     1       3.643  -9.625  27.014  1.00  0.00     0.031 A 
HETATM   18  C4  UNL     1       2.312 -10.065  27.069  1.00  0.00     0.030 A 
HETATM   19  C27 UNL     1       1.381  -9.126  27.533  1.00  0.00     0.031 A 
HETATM   20  C26 UNL     1       1.757  -7.829  27.919  1.00  0.00     0.032 A 
BRANCH  18  21
HETATM   21  N2  UNL     1       1.941 -11.343  26.692  1.00  0.00    -0.378 N 
HETATM   22  C3  UNL     1       1.241 -11.607  25.424  1.00  0.00     0.153 C 
HETATM   23  C2  UNL     1       1.473 -13.059  24.940  1.00  0.00     0.291 C 
HETATM   24  N1  UNL     1       1.124 -14.124  25.903  1.00  0.00     0.087 N 
HETATM   25  C1  UNL     1      -0.177 -14.720  25.613  1.00  0.00     0.310 C 
HETATM   26  C29 UNL     1       1.166 -13.625  27.296  1.00  0.00     0.291 C 
HETATM   27  C28 UNL     1       2.216 -12.517  27.540  1.00  0.00     0.153 C 
ENDBRANCH  18  21
ENDBRANCH  13  15
ENDBRANCH   1  13
BRANCH   9  28
HETATM   28  C18 UNL     1       8.579  -6.780  29.050  1.00  0.00     0.125 C 
HETATM   29  C19 UNL     1       7.995  -8.188  29.184  1.00  0.00     0.043 C 
HETATM   30  C20 UNL     1       8.747  -8.980  28.126  1.00  0.00     0.109 C 
HETATM   31  N8  UNL     1       9.058  -8.004  27.049  1.00  0.00    -0.208 NA
HETATM   32  C24 UNL     1       8.617  -6.654  27.520  1.00  0.00     0.133 C 
BRANCH  31  33
HETATM   33  S1  UNL     1       8.521  -8.398  25.480  1.00  0.00     0.215 S 
HETATM   34  O1  UNL     1       8.391  -9.839  25.426  1.00  0.00    -0.211 OA
HETATM   35  O2  UNL     1       7.402  -7.531  25.183  1.00  0.00    -0.211 OA
BRANCH  33  36
HETATM   36  C21 UNL     1       9.853  -7.896  24.355  1.00  0.00     0.124 A 
HETATM   37  C22 UNL     1      11.012  -8.851  24.235  1.00  0.00     0.023 A 
HETATM   38  C23 UNL     1       9.985  -8.770  23.134  1.00  0.00     0.023 A 
ENDBRANCH  33  36
ENDBRANCH  31  33
ENDBRANCH   9  28
BRANCH   8  39
HETATM   39  N6  UNL     1       9.770  -4.744  30.809  1.00  0.00    -0.191 N 
HETATM   40  H12 UNL     1      10.385  -5.120  30.096  1.00  0.00     0.184 HD
BRANCH  39  41
HETATM   41  C12 UNL     1      10.479  -4.002  31.777  1.00  0.00     0.049 A 
HETATM   42  C13 UNL     1      10.579  -4.387  33.121  1.00  0.00     0.030 A 
HETATM   43  C14 UNL     1      11.295  -3.614  34.041  1.00  0.00     0.002 A 
HETATM   44  C15 UNL     1      11.909  -2.433  33.632  1.00  0.00     0.000 A 
HETATM   45  C16 UNL     1      11.802  -2.020  32.307  1.00  0.00     0.002 A 
HETATM   46  C17 UNL     1      11.090  -2.799  31.389  1.00  0.00     0.030 A 
ENDBRANCH  39  41
ENDBRANCH   8  39
TORSDOF 8
ENDMDL
MODEL 6
REMARK minimizedAffinity -9.07612801
REMARK CNNscore 0.31401211
REMARK CNNaffinity 7.73174858
REMARK  8 active torsions:
REMARK  status: ('A' for Active; 'I' for Inactive)
REMARK    1  A    between atoms: N2_5  and  C4_6 
REMARK    2  A    between atoms: C7_9  and  N3_10 
REMARK    3  A    between atoms: N3_10  and  C8_11 
REMARK    4  A    between atoms: C11_18  and  N6_19 
REMARK    5  A    between atoms: N6_19  and  C12_20 
REMARK    6  A    between atoms: N7_26  and  C18_27 
REMARK    7  A    between atoms: N8_30  and  S1_31 
REMARK    8  A    between atoms: S1_31  and  C21_34 
ROOT
HETATM    1  C8  UNL     1       4.581  -5.493  29.110  1.00  0.00     0.684 A 
HETATM    2  N4  UNL     1       4.065  -4.518  29.886  1.00  0.00    -0.199 N 
ATOM      3  H4  UNL     1       3.074  -4.281  29.820  1.00  0.00     0.183 HD
HETATM    4  C9  UNL     1       4.869  -3.851  30.755  1.00  0.00     0.140 A 
HETATM    5  C10 UNL     1       6.213  -4.180  30.825  1.00  0.00     0.110 A 
HETATM    6  N5  UNL     1       7.259  -3.686  31.553  1.00  0.00    -0.186 N 
ATOM      7  H5  UNL     1       7.221  -2.959  32.267  1.00  0.00     0.184 HD
HETATM    8  C11 UNL     1       8.327  -4.342  31.141  1.00  0.00     0.687 A 
HETATM    9  N7  UNL     1       7.968  -5.352  30.256  1.00  0.00    -0.159 N 
HETATM   10  C25 UNL     1       6.628  -5.203  29.999  1.00  0.00     0.168 A 
HETATM   11  N9  UNL     1       5.869  -5.888  29.132  1.00  0.00    -0.173 N 
ATOM     12  H9  UNL     1       6.233  -6.637  28.545  1.00  0.00     0.186 HD
ENDROOT
BRANCH   1  13
HETATM   13  N3  UNL     1       3.800  -6.177  28.181  1.00  0.00    -0.192 N 
HETATM   14  H10 UNL     1       3.081  -5.556  27.839  1.00  0.00     0.184 HD
BRANCH  13  15
HETATM   15  C7  UNL     1       3.716  -7.509  27.766  1.00  0.00     0.049 A 
HETATM   16  C6  UNL     1       4.806  -8.288  27.391  1.00  0.00     0.032 A 
HETATM   17  C5  UNL     1       4.642  -9.628  26.993  1.00  0.00     0.031 A 
HETATM   18  C4  UNL     1       3.386 -10.253  26.951  1.00  0.00     0.030 A 
HETATM   19  C27 UNL     1       2.297  -9.453  27.325  1.00  0.00     0.031 A 
HETATM   20  C26 UNL     1       2.454  -8.114  27.718  1.00  0.00     0.032 A 
BRANCH  18  21
HETATM   21  N2  UNL     1       3.231 -11.573  26.568  1.00  0.00    -0.378 N 
HETATM   22  C3  UNL     1       3.899 -12.119  25.375  1.00  0.00     0.153 C 
HETATM   23  C2  UNL     1       4.088 -13.652  25.484  1.00  0.00     0.291 C 
HETATM   24  N1  UNL     1       2.862 -14.437  25.741  1.00  0.00     0.087 N 
HETATM   25  C1  UNL     1       2.338 -15.047  24.523  1.00  0.00     0.310 C 
HETATM   26  C29 UNL     1       1.823 -13.613  26.397  1.00  0.00     0.291 C 
HETATM   27  C28 UNL     1       2.382 -12.510  27.325  1.00  0.00     0.153 C 
ENDBRANCH  18  21
ENDBRANCH  13  15
ENDBRANCH   1  13
BRANCH   9  28
HETATM   28  C18 UNL     1       8.861  -6.338  29.684  1.00  0.00     0.125 C 
HETATM   29  C19 UNL     1       8.176  -7.648  29.287  1.00  0.00     0.043 C 
HETATM   30  C20 UNL     1       9.252  -8.377  28.496  1.00  0.00     0.109 C 
HETATM   31  N8  UNL     1      10.064  -7.310  27.856  1.00  0.00    -0.208 NA
HETATM   32  C24 UNL     1       9.561  -5.994  28.362  1.00  0.00     0.133 C 
BRANCH  31  33
HETATM   33  S1  UNL     1      10.227  -7.382  26.162  1.00  0.00     0.215 S 
HETATM   34  O1  UNL     1       9.633  -6.174  25.627  1.00  0.00    -0.211 OA
HETATM   35  O2  UNL     1      11.602  -7.731  25.881  1.00  0.00    -0.211 OA
BRANCH  33  36
HETATM   36  C21 UNL     1       9.233  -8.801  25.624  1.00  0.00     0.124 A 
HETATM   37  C22 UNL     1       7.853  -8.484  25.109  1.00  0.00     0.023 A 
HETATM   38  C23 UNL     1       8.958  -8.829  24.142  1.00  0.00     0.023 A 
ENDBRANCH  33  36
ENDBRANCH  31  33
ENDBRANCH   9  28
BRANCH   8  39
HETATM   39  N6  UNL     1       9.625  -4.108  31.444  1.00  0.00    -0.191 N 
HETATM   40  H12 UNL     1      10.299  -3.937  30.707  1.00  0.00     0.184 HD
BRANCH  39  41
HETATM   41  C12 UNL     1      10.181  -3.899  32.724  1.00  0.00     0.049 A 
HETATM   42  C13 UNL     1      11.401  -3.241  32.935  1.00  0.00     0.030 A 
HETATM   43  C14 UNL     1      11.908  -3.059  34.226  1.00  0.00     0.002 A 
HETATM   44  C15 UNL     1      11.208  -3.549  35.326  1.00  0.00     0.000 A 
HETATM   45  C16 UNL     1      10.007  -4.225  35.137  1.00  0.00     0.002 A 
HETATM   46  C17 UNL     1       9.501  -4.399  33.845  1.00  0.00     0.030 A 
ENDBRANCH  39  41
ENDBRANCH   8  39
TORSDOF 8
ENDMDL
MODEL 7
REMARK minimizedAffinity -8.68003464
REMARK CNNscore 0.23888877
REMARK CNNaffinity 7.59620094
REMARK  8 active torsions:
REMARK  status: ('A' for Active; 'I' for Inactive)
REMARK    1  A    between atoms: N2_5  and  C4_6 
REMARK    2  A    between atoms: C7_9  and  N3_10 
REMARK    3  A    between atoms: N3_10  and  C8_11 
REMARK    4  A    between atoms: C11_18  and  N6_19 
REMARK    5  A    between atoms: N6_19  and  C12_20 
REMARK    6  A    between atoms: N7_26  and  C18_27 
REMARK    7  A    between atoms: N8_30  and  S1_31 
REMARK    8  A    between atoms: S1_31  and  C21_34 
ROOT
HETATM    1  C8  UNL     1       6.137  -6.646  29.075  1.00  0.00     0.684 A 
HETATM    2  N4  UNL     1       5.070  -6.019  29.610  1.00  0.00    -0.199 N 
ATOM      3  H4  UNL     1       4.125  -6.319  29.369  1.00  0.00     0.183 HD
HETATM    4  C9  UNL     1       5.257  -4.985  30.472  1.00  0.00     0.140 A 
HETATM    5  C10 UNL     1       6.547  -4.585  30.782  1.00  0.00     0.110 A 
HETATM    6  N5  UNL     1       7.053  -3.587  31.566  1.00  0.00    -0.186 N 
ATOM      7  H5  UNL     1       6.525  -2.936  32.148  1.00  0.00     0.184 HD
HETATM    8  C11 UNL     1       8.362  -3.638  31.416  1.00  0.00     0.687 A 
HETATM    9  N7  UNL     1       8.724  -4.742  30.655  1.00  0.00    -0.159 N 
HETATM   10  C25 UNL     1       7.562  -5.307  30.190  1.00  0.00     0.168 A 
HETATM   11  N9  UNL     1       7.421  -6.333  29.340  1.00  0.00    -0.173 N 
ATOM     12  H9  UNL     1       8.212  -6.832  28.933  1.00  0.00     0.186 HD
ENDROOT
BRANCH   1  13
HETATM   13  N3  UNL     1       5.990  -7.686  28.160  1.00  0.00    -0.192 N 
HETATM   14  H10 UNL     1       6.871  -8.172  28.075  1.00  0.00     0.184 HD
BRANCH  13  15
HETATM   15  C7  UNL     1       4.981  -8.074  27.274  1.00  0.00     0.049 A 
HETATM   16  C6  UNL     1       3.627  -8.113  27.590  1.00  0.00     0.032 A 
HETATM   17  C5  UNL     1       2.667  -8.507  26.639  1.00  0.00     0.031 A 
HETATM   18  C4  UNL     1       3.012  -8.877  25.330  1.00  0.00     0.030 A 
HETATM   19  C27 UNL     1       4.380  -8.838  25.029  1.00  0.00     0.031 A 
HETATM   20  C26 UNL     1       5.343  -8.452  25.975  1.00  0.00     0.032 A 
BRANCH  18  21
HETATM   21  N2  UNL     1       2.065  -9.254  24.396  1.00  0.00    -0.378 N 
HETATM   22  C3  UNL     1       2.319  -9.157  22.949  1.00  0.00     0.153 C 
HETATM   23  C2  UNL     1       1.442 -10.153  22.151  1.00  0.00     0.291 C 
HETATM   24  N1  UNL     1      -0.015 -10.059  22.383  1.00  0.00     0.087 N 
HETATM   25  C1  UNL     1      -0.692  -9.319  21.322  1.00  0.00     0.310 C 
HETATM   26  C29 UNL     1      -0.313  -9.459  23.703  1.00  0.00     0.291 C 
HETATM   27  C28 UNL     1       0.741  -9.770  24.791  1.00  0.00     0.153 C 
ENDBRANCH  18  21
ENDBRANCH  13  15
ENDBRANCH   1  13
BRANCH   9  28
HETATM   28  C18 UNL     1      10.076  -5.177  30.374  1.00  0.00     0.125 C 
HETATM   29  C19 UNL     1      10.555  -6.341  31.245  1.00  0.00     0.043 C 
HETATM   30  C20 UNL     1      11.860  -6.757  30.583  1.00  0.00     0.109 C 
HETATM   31  N8  UNL     1      11.687  -6.447  29.140  1.00  0.00    -0.208 NA
HETATM   32  C24 UNL     1      10.373  -5.749  28.981  1.00  0.00     0.133 C 
BRANCH  31  33
HETATM   33  S1  UNL     1      11.925  -7.732  28.046  1.00  0.00     0.215 S 
HETATM   34  O1  UNL     1      12.996  -7.337  27.154  1.00  0.00    -0.211 OA
HETATM   35  O2  UNL     1      12.006  -8.946  28.827  1.00  0.00    -0.211 OA
BRANCH  33  36
HETATM   36  C21 UNL     1      10.392  -7.859  27.084  1.00  0.00     0.124 A 
HETATM   37  C22 UNL     1      10.478  -7.431  25.643  1.00  0.00     0.023 A 
HETATM   38  C23 UNL     1      10.439  -8.897  25.993  1.00  0.00     0.023 A 
ENDBRANCH  33  36
ENDBRANCH  31  33
ENDBRANCH   9  28
BRANCH   8  39
HETATM   39  N6  UNL     1       9.294  -2.761  31.862  1.00  0.00    -0.191 N 
HETATM   40  H12 UNL     1       9.349  -1.830  31.466  1.00  0.00     0.184 HD
BRANCH  39  41
HETATM   41  C12 UNL     1      10.149  -2.913  32.973  1.00  0.00     0.049 A 
HETATM   42  C13 UNL     1       9.881  -3.787  34.036  1.00  0.00     0.030 A 
HETATM   43  C14 UNL     1      10.763  -3.899  35.116  1.00  0.00     0.002 A 
HETATM   44  C15 UNL     1      11.920  -3.125  35.157  1.00  0.00     0.000 A 
HETATM   45  C16 UNL     1      12.193  -2.234  34.123  1.00  0.00     0.002 A 
HETATM   46  C17 UNL     1      11.311  -2.129  33.042  1.00  0.00     0.030 A 
ENDBRANCH  39  41
ENDBRANCH   8  39
TORSDOF 8
ENDMDL
MODEL 8
REMARK minimizedAffinity -8.29453945
REMARK CNNscore 0.197350666
REMARK CNNaffinity 7.28706598
REMARK  8 active torsions:
REMARK  status: ('A' for Active; 'I' for Inactive)
REMARK    1  A    between atoms: N2_5  and  C4_6 
REMARK    2  A    between atoms: C7_9  and  N3_10 
REMARK    3  A    between atoms: N3_10  and  C8_11 
REMARK    4  A    between atoms: C11_18  and  N6_19 
REMARK    5  A    between atoms: N6_19  and  C12_20 
REMARK    6  A    between atoms: N7_26  and  C18_27 
REMARK    7  A    between atoms: N8_30  and  S1_31 
REMARK    8  A    between atoms: S1_31  and  C21_34 
ROOT
HETATM    1  C8  UNL     1       5.533  -5.721  29.304  1.00  0.00     0.684 A 
HETATM    2  N4  UNL     1       4.598  -4.959  29.909  1.00  0.00    -0.199 N 
ATOM      3  H4  UNL     1       3.609  -5.109  29.711  1.00  0.00     0.183 HD
HETATM    4  C9  UNL     1       4.979  -3.991  30.784  1.00  0.00     0.140 A 
HETATM    5  C10 UNL     1       6.328  -3.798  31.035  1.00  0.00     0.110 A 
HETATM    6  N5  UNL     1       7.015  -2.910  31.814  1.00  0.00    -0.186 N 
ATOM      7  H5  UNL     1       6.620  -2.206  32.437  1.00  0.00     0.184 HD
HETATM    8  C11 UNL     1       8.293  -3.150  31.595  1.00  0.00     0.687 A 
HETATM    9  N7  UNL     1       8.448  -4.272  30.790  1.00  0.00    -0.159 N 
HETATM   10  C25 UNL     1       7.194  -4.643  30.374  1.00  0.00     0.168 A 
HETATM   11  N9  UNL     1       6.860  -5.611  29.509  1.00  0.00    -0.173 N 
ATOM     12  H9  UNL     1       7.547  -6.208  29.049  1.00  0.00     0.186 HD
ENDROOT
BRANCH   1  13
HETATM   13  N3  UNL     1       5.188  -6.699  28.374  1.00  0.00    -0.192 N 
HETATM   14  H10 UNL     1       4.182  -6.781  28.345  1.00  0.00     0.184 HD
BRANCH  13  15
HETATM   15  C7  UNL     1       5.907  -7.642  27.634  1.00  0.00     0.049 A 
HETATM   16  C6  UNL     1       6.342  -7.451  26.326  1.00  0.00     0.032 A 
HETATM   17  C5  UNL     1       7.071  -8.446  25.648  1.00  0.00     0.031 A 
HETATM   18  C4  UNL     1       7.400  -9.674  26.241  1.00  0.00     0.030 A 
HETATM   19  C27 UNL     1       6.950  -9.854  27.556  1.00  0.00     0.031 A 
HETATM   20  C26 UNL     1       6.218  -8.867  28.236  1.00  0.00     0.032 A 
BRANCH  18  21
HETATM   21  N2  UNL     1       8.125 -10.645  25.574  1.00  0.00    -0.378 N 
HETATM   22  C3  UNL     1       9.595 -10.605  25.501  1.00  0.00     0.153 C 
HETATM   23  C2  UNL     1      10.191 -12.016  25.277  1.00  0.00     0.291 C 
HETATM   24  N1  UNL     1       9.679 -12.753  24.102  1.00  0.00     0.087 N 
HETATM   25  C1  UNL     1      10.597 -12.683  22.969  1.00  0.00     0.310 C 
HETATM   26  C29 UNL     1       8.335 -12.273  23.709  1.00  0.00     0.291 C 
HETATM   27  C28 UNL     1       7.471 -11.775  24.890  1.00  0.00     0.153 C 
ENDBRANCH  18  21
ENDBRANCH  13  15
ENDBRANCH   1  13
BRANCH   9  28
HETATM   28  C18 UNL     1       9.705  -4.893  30.429  1.00  0.00     0.125 C 
HETATM   29  C19 UNL     1      10.046  -6.140  31.248  1.00  0.00     0.043 C 
HETATM   30  C20 UNL     1      11.241  -6.726  30.509  1.00  0.00     0.109 C 
HETATM   31  N8  UNL     1      11.046  -6.350  29.084  1.00  0.00    -0.208 NA
HETATM   32  C24 UNL     1       9.845  -5.462  29.010  1.00  0.00     0.133 C 
BRANCH  31  33
HETATM   33  S1  UNL     1      11.035  -7.624  27.951  1.00  0.00     0.215 S 
HETATM   34  O1  UNL     1      10.730  -8.837  28.680  1.00  0.00    -0.211 OA
HETATM   35  O2  UNL     1      10.223  -7.193  26.835  1.00  0.00    -0.211 OA
BRANCH  33  36
HETATM   36  C21 UNL     1      12.731  -7.744  27.317  1.00  0.00     0.124 A 
HETATM   37  C22 UNL     1      13.801  -8.018  28.341  1.00  0.00     0.023 A 
HETATM   38  C23 UNL     1      13.330  -9.122  27.429  1.00  0.00     0.023 A 
ENDBRANCH  33  36
ENDBRANCH  31  33
ENDBRANCH   9  28
BRANCH   8  39
HETATM   39  N6  UNL     1       9.366  -2.435  32.011  1.00  0.00    -0.191 N 
HETATM   40  H12 UNL     1       9.563  -1.527  31.606  1.00  0.00     0.184 HD
BRANCH  39  41
HETATM   41  C12 UNL     1      10.211  -2.718  33.104  1.00  0.00     0.049 A 
HETATM   42  C13 UNL     1      11.460  -2.109  33.290  1.00  0.00     0.030 A 
HETATM   43  C14 UNL     1      12.260  -2.425  34.393  1.00  0.00     0.002 A 
HETATM   44  C15 UNL     1      11.828  -3.371  35.320  1.00  0.00     0.000 A 
HETATM   45  C16 UNL     1      10.602  -4.004  35.142  1.00  0.00     0.002 A 
HETATM   46  C17 UNL     1       9.802  -3.681  34.041  1.00  0.00     0.030 A 
ENDBRANCH  39  41
ENDBRANCH   8  39
TORSDOF 8
ENDMDL
MODEL 9
REMARK minimizedAffinity -8.35655689
REMARK CNNscore 0.104190931
REMARK CNNaffinity 5.63858557
REMARK  8 active torsions:
REMARK  status: ('A' for Active; 'I' for Inactive)
REMARK    1  A    between atoms: N2_5  and  C4_6 
REMARK    2  A    between atoms: C7_9  and  N3_10 
REMARK    3  A    between atoms: N3_10  and  C8_11 
REMARK    4  A    between atoms: C11_18  and  N6_19 
REMARK    5  A    between atoms: N6_19  and  C12_20 
REMARK    6  A    between atoms: N7_26  and  C18_27 
REMARK    7  A    between atoms: N8_30  and  S1_31 
REMARK    8  A    between atoms: S1_31  and  C21_34 
ROOT
HETATM    1  C8  UNL     1       3.138 -10.321  24.441  1.00  0.00     0.684 A 
HETATM    2  N4  UNL     1       4.042 -11.292  24.193  1.00  0.00    -0.199 N 
ATOM      3  H4  UNL     1       4.628 -11.651  24.947  1.00  0.00     0.183 HD
HETATM    4  C9  UNL     1       4.168 -11.789  22.935  1.00  0.00     0.140 A 
HETATM    5  C10 UNL     1       3.369 -11.284  21.921  1.00  0.00     0.110 A 
HETATM    6  N5  UNL     1       3.282 -11.544  20.583  1.00  0.00    -0.186 N 
ATOM      7  H5  UNL     1       3.801 -12.249  20.059  1.00  0.00     0.184 HD
HETATM    8  C11 UNL     1       2.390 -10.697  20.107  1.00  0.00     0.687 A 
HETATM    9  N7  UNL     1       1.796  -9.983  21.141  1.00  0.00    -0.159 N 
HETATM   10  C25 UNL     1       2.470 -10.307  22.292  1.00  0.00     0.168 A 
HETATM   11  N9  UNL     1       2.310  -9.792  23.519  1.00  0.00    -0.173 N 
ATOM     12  H9  UNL     1       1.625  -9.068  23.734  1.00  0.00     0.186 HD
ENDROOT
BRANCH   1  13
HETATM   13  N3  UNL     1       3.000  -9.758  25.708  1.00  0.00    -0.192 N 
HETATM   14  H10 UNL     1       2.056  -9.910  26.031  1.00  0.00     0.184 HD
BRANCH  13  15
HETATM   15  C7  UNL     1       3.804  -8.941  26.507  1.00  0.00     0.049 A 
HETATM   16  C6  UNL     1       5.195  -8.932  26.477  1.00  0.00     0.032 A 
HETATM   17  C5  UNL     1       5.937  -8.072  27.308  1.00  0.00     0.031 A 
HETATM   18  C4  UNL     1       5.327  -7.181  28.205  1.00  0.00     0.030 A 
HETATM   19  C27 UNL     1       3.926  -7.207  28.229  1.00  0.00     0.031 A 
HETATM   20  C26 UNL     1       3.181  -8.066  27.406  1.00  0.00     0.032 A 
BRANCH  18  21
HETATM   21  N2  UNL     1       6.060  -6.331  29.013  1.00  0.00    -0.378 N 
HETATM   22  C3  UNL     1       7.382  -6.708  29.541  1.00  0.00     0.153 C 
HETATM   23  C2  UNL     1       8.239  -5.460  29.866  1.00  0.00     0.291 C 
HETATM   24  N1  UNL     1       7.626  -4.478  30.785  1.00  0.00     0.087 N 
HETATM   25  C1  UNL     1       8.129  -4.615  32.149  1.00  0.00     0.310 C 
HETATM   26  C29 UNL     1       6.149  -4.572  30.766  1.00  0.00     0.291 C 
HETATM   27  C28 UNL     1       5.560  -5.000  29.402  1.00  0.00     0.153 C 
ENDBRANCH  18  21
ENDBRANCH  13  15
ENDBRANCH   1  13
BRANCH   9  28
HETATM   28  C18 UNL     1       0.701  -9.044  21.007  1.00  0.00     0.125 C 
HETATM   29  C19 UNL     1       1.084  -7.729  20.323  1.00  0.00     0.043 C 
HETATM   30  C20 UNL     1      -0.261  -7.060  20.079  1.00  0.00     0.109 C 
HETATM   31  N8  UNL     1      -1.226  -8.174  19.886  1.00  0.00    -0.208 NA
HETATM   32  C24 UNL     1      -0.497  -9.455  20.139  1.00  0.00     0.133 C 
BRANCH  31  33
HETATM   33  S1  UNL     1      -2.126  -8.165  18.439  1.00  0.00     0.215 S 
HETATM   34  O1  UNL     1      -1.681  -7.021  17.670  1.00  0.00    -0.211 OA
HETATM   35  O2  UNL     1      -2.070  -9.504  17.895  1.00  0.00    -0.211 OA
BRANCH  33  36
HETATM   36  C21 UNL     1      -3.853  -7.896  18.925  1.00  0.00     0.124 A 
HETATM   37  C22 UNL     1      -4.649  -9.133  19.248  1.00  0.00     0.023 A 
HETATM   38  C23 UNL     1      -4.147  -8.248  20.360  1.00  0.00     0.023 A 
ENDBRANCH  33  36
ENDBRANCH  31  33
ENDBRANCH   9  28
BRANCH   8  39
HETATM   39  N6  UNL     1       2.069 -10.453  18.815  1.00  0.00    -0.191 N 
HETATM   40  H12 UNL     1       1.683  -9.555  18.545  1.00  0.00     0.184 HD
BRANCH  39  41
HETATM   41  C12 UNL     1       2.355 -11.261  17.695  1.00  0.00     0.049 A 
HETATM   42  C13 UNL     1       3.568 -11.201  16.993  1.00  0.00     0.030 A 
HETATM   43  C14 UNL     1       3.802 -12.025  15.887  1.00  0.00     0.002 A 
HETATM   44  C15 UNL     1       2.818 -12.912  15.457  1.00  0.00     0.000 A 
HETATM   45  C16 UNL     1       1.599 -12.971  16.125  1.00  0.00     0.002 A 
HETATM   46  C17 UNL     1       1.371 -12.149  17.233  1.00  0.00     0.030 A 
ENDBRANCH  39  41
ENDBRANCH   8  39
TORSDOF 8
ENDMDL
