MODEL 1
REMARK minimizedAffinity -7.71928358
REMARK  8 active torsions:
REMARK  status: ('A' for Active; 'I' for Inactive)
REMARK    1  A    between atoms: C2_2  and  C3_3 
REMARK       I    between atoms: C3_3  and  N1_5 
REMARK    2  A    between atoms: N1_5  and  C4_6 
REMARK    3  A    between atoms: C7_9  and  O2_10 
REMARK    4  A    between atoms: C9_12  and  N2_13 
REMARK    5  A    between atoms: N2_13  and  C10_14 
REMARK    6  A    between atoms: C12_16  and  C13_17 
REMARK    7  A    between atoms: C14_18  and  C15_19 
REMARK    8  A    between atoms: C21_28  and  S1_29 
ROOT
HETATM    1  C10 UNL     1      13.918  35.036  17.258  1.00  0.00     0.106 A 
HETATM    2  C11 UNL     1      14.594  35.818  16.324  1.00  0.00     0.062 A 
HETATM    3  C12 UNL     1      15.986  35.741  16.236  1.00  0.00    -0.002 A 
HETATM    4  C24 UNL     1      16.671  34.885  17.092  1.00  0.00     0.031 A 
HETATM    5  C25 UNL     1      15.929  34.142  17.989  1.00  0.00     0.090 A 
HETATM    6  N5  UNL     1      14.583  34.197  18.077  1.00  0.00    -0.352 N 
ATOM      7  H5  UNL     1      14.081  33.616  18.748  1.00  0.00     0.166 HD
ENDROOT
BRANCH   1   8
HETATM    8  N2  UNL     1      12.515  35.170  17.333  1.00  0.00    -0.340 N 
HETATM    9  H10 UNL     1      12.054  34.418  16.828  1.00  0.00     0.167 HD
BRANCH   8  10
HETATM   10  C9  UNL     1      11.730  35.511  18.468  1.00  0.00     0.069 A 
HETATM   11  C7  UNL     1      12.313  36.311  19.476  1.00  0.00     0.095 A 
HETATM   12  C6  UNL     1      11.584  36.622  20.623  1.00  0.00     0.041 A 
HETATM   13  C5  UNL     1      10.288  36.123  20.784  1.00  0.00     0.032 A 
HETATM   14  C4  UNL     1       9.704  35.304  19.811  1.00  0.00     0.037 A 
HETATM   15  C26 UNL     1      10.434  34.999  18.660  1.00  0.00     0.062 A 
BRANCH  11  16
HETATM   16  O2  UNL     1      13.596  36.738  19.213  1.00  0.00    -0.354 OA
HETATM   17  C8  UNL     1      14.450  36.937  20.332  1.00  0.00     0.210 C 
ENDBRANCH  11  16
BRANCH  14  18
HETATM   18  N1  UNL     1       8.403  34.826  20.078  1.00  0.00    -0.324 N 
HETATM   19  C3  UNL     1       7.205  35.413  19.743  1.00  0.00     0.244 C 
HETATM   20  O1  UNL     1       7.018  36.491  19.196  1.00  0.00    -0.268 OA
HETATM   21  H4  UNL     1       8.351  33.967  20.606  1.00  0.00     0.169 HD
BRANCH  19  22
HETATM   22  C2  UNL     1       6.012  34.627  20.167  1.00  0.00     0.064 C 
HETATM   23  C1  UNL     1       5.643  33.447  19.651  1.00  0.00     0.017 C 
ENDBRANCH  19  22
ENDBRANCH  14  18
ENDBRANCH   8  10
ENDBRANCH   1   8
BRANCH   3  24
HETATM   24  C13 UNL     1      16.716  36.568  15.279  1.00  0.00     0.074 A 
HETATM   25  C14 UNL     1      17.273  36.271  14.039  1.00  0.00     0.072 A 
HETATM   26  N3  UNL     1      17.830  37.394  13.468  1.00  0.00    -0.334 N 
HETATM   27  C21 UNL     1      17.645  38.356  14.336  1.00  0.00     0.146 A 
ATOM     28  H3  UNL     1      18.290  37.462  12.561  1.00  0.00     0.168 HD
HETATM   29  N4  UNL     1      16.949  37.925  15.436  1.00  0.00    -0.329 N 
HETATM   30  C23 UNL     1      16.509  38.752  16.537  1.00  0.00     0.158 C 
BRANCH  25  31
HETATM   31  C15 UNL     1      17.284  34.987  13.350  1.00  0.00    -0.007 A 
HETATM   32  C16 UNL     1      16.216  34.557  12.550  1.00  0.00     0.017 A 
HETATM   33  C17 UNL     1      16.267  33.317  11.905  1.00  0.00     0.043 A 
HETATM   34  C18 UNL     1      17.380  32.503  12.072  1.00  0.00     0.116 A 
HETATM   35  F1  UNL     1      17.427  31.315  11.455  1.00  0.00    -0.206 F 
HETATM   36  C19 UNL     1      18.442  32.900  12.874  1.00  0.00     0.043 A 
HETATM   37  C20 UNL     1      18.392  34.140  13.514  1.00  0.00     0.017 A 
ENDBRANCH  25  31
BRANCH  27  38
HETATM   38  S1  UNL     1      18.202  39.986  14.147  1.00  0.00    -0.098 SA
HETATM   39  C22 UNL     1      16.698  40.780  13.537  1.00  0.00     0.099 C 
ENDBRANCH  27  38
ENDBRANCH   3  24
TORSDOF 8
ENDMDL
MODEL 2
REMARK minimizedAffinity -7.60636091
REMARK  8 active torsions:
REMARK  status: ('A' for Active; 'I' for Inactive)
REMARK    1  A    between atoms: C2_2  and  C3_3 
REMARK       I    between atoms: C3_3  and  N1_5 
REMARK    2  A    between atoms: N1_5  and  C4_6 
REMARK    3  A    between atoms: C7_9  and  O2_10 
REMARK    4  A    between atoms: C9_12  and  N2_13 
REMARK    5  A    between atoms: N2_13  and  C10_14 
REMARK    6  A    between atoms: C12_16  and  C13_17 
REMARK    7  A    between atoms: C14_18  and  C15_19 
REMARK    8  A    between atoms: C21_28  and  S1_29 
ROOT
HETATM    1  C10 UNL     1      16.128  34.791  18.303  1.00  0.00     0.106 A 
HETATM    2  C11 UNL     1      16.018  35.563  17.149  1.00  0.00     0.062 A 
HETATM    3  C12 UNL     1      17.171  36.057  16.535  1.00  0.00    -0.002 A 
HETATM    4  C24 UNL     1      18.411  35.772  17.097  1.00  0.00     0.031 A 
HETATM    5  C25 UNL     1      18.436  34.999  18.241  1.00  0.00     0.090 A 
HETATM    6  N5  UNL     1      17.332  34.505  18.837  1.00  0.00    -0.352 N 
ATOM      7  H5  UNL     1      17.406  33.926  19.675  1.00  0.00     0.166 HD
ENDROOT
BRANCH   1   8
HETATM    8  N2  UNL     1      14.935  34.340  18.907  1.00  0.00    -0.340 N 
HETATM    9  H10 UNL     1      15.080  33.445  19.366  1.00  0.00     0.167 HD
BRANCH   8  10
HETATM   10  C9  UNL     1      13.997  35.097  19.662  1.00  0.00     0.069 A 
HETATM   11  C7  UNL     1      14.280  35.356  21.022  1.00  0.00     0.095 A 
HETATM   12  C6  UNL     1      13.357  36.054  21.801  1.00  0.00     0.041 A 
HETATM   13  C5  UNL     1      12.147  36.475  21.241  1.00  0.00     0.032 A 
HETATM   14  C4  UNL     1      11.836  36.202  19.904  1.00  0.00     0.037 A 
HETATM   15  C26 UNL     1      12.765  35.507  19.125  1.00  0.00     0.062 A 
BRANCH  11  16
HETATM   16  O2  UNL     1      15.496  34.887  21.466  1.00  0.00    -0.354 OA
HETATM   17  C8  UNL     1      16.229  35.730  22.345  1.00  0.00     0.210 C 
ENDBRANCH  11  16
BRANCH  14  18
HETATM   18  N1  UNL     1      10.578  36.641  19.440  1.00  0.00    -0.324 N 
HETATM   19  C3  UNL     1       9.720  35.987  18.586  1.00  0.00     0.244 C 
HETATM   20  O1  UNL     1       9.892  34.921  18.012  1.00  0.00    -0.268 OA
HETATM   21  H4  UNL     1      10.293  37.559  19.749  1.00  0.00     0.169 HD
BRANCH  19  22
HETATM   22  C2  UNL     1       8.460  36.734  18.313  1.00  0.00     0.064 C 
HETATM   23  C1  UNL     1       7.286  36.514  18.921  1.00  0.00     0.017 C 
ENDBRANCH  19  22
ENDBRANCH  14  18
ENDBRANCH   8  10
ENDBRANCH   1   8
BRANCH   3  24
HETATM   24  C13 UNL     1      17.076  36.886  15.336  1.00  0.00     0.074 A 
HETATM   25  C14 UNL     1      17.088  36.559  13.984  1.00  0.00     0.072 A 
HETATM   26  N3  UNL     1      16.923  37.681  13.204  1.00  0.00    -0.334 N 
HETATM   27  C21 UNL     1      16.832  38.681  14.044  1.00  0.00     0.146 A 
ATOM     28  H3  UNL     1      16.879  37.726  12.186  1.00  0.00     0.168 HD
HETATM   29  N4  UNL     1      16.885  38.259  15.347  1.00  0.00    -0.329 N 
HETATM   30  C23 UNL     1      16.732  39.097  16.515  1.00  0.00     0.158 C 
BRANCH  25  31
HETATM   31  C15 UNL     1      17.221  35.236  13.388  1.00  0.00    -0.007 A 
HETATM   32  C16 UNL     1      16.201  34.653  12.622  1.00  0.00     0.017 A 
HETATM   33  C17 UNL     1      16.369  33.381  12.067  1.00  0.00     0.043 A 
HETATM   34  C18 UNL     1      17.552  32.687  12.289  1.00  0.00     0.116 A 
HETATM   35  F1  UNL     1      17.712  31.468  11.757  1.00  0.00    -0.206 F 
HETATM   36  C19 UNL     1      18.569  33.237  13.058  1.00  0.00     0.043 A 
HETATM   37  C20 UNL     1      18.402  34.509  13.609  1.00  0.00     0.017 A 
ENDBRANCH  25  31
BRANCH  27  38
HETATM   38  S1  UNL     1      16.666  40.346  13.594  1.00  0.00    -0.098 SA
HETATM   39  C22 UNL     1      18.375  40.908  13.768  1.00  0.00     0.099 C 
ENDBRANCH  27  38
ENDBRANCH   3  24
TORSDOF 8
ENDMDL
MODEL 3
REMARK minimizedAffinity -7.40706015
REMARK  8 active torsions:
REMARK  status: ('A' for Active; 'I' for Inactive)
REMARK    1  A    between atoms: C2_2  and  C3_3 
REMARK       I    between atoms: C3_3  and  N1_5 
REMARK    2  A    between atoms: N1_5  and  C4_6 
REMARK    3  A    between atoms: C7_9  and  O2_10 
REMARK    4  A    between atoms: C9_12  and  N2_13 
REMARK    5  A    between atoms: N2_13  and  C10_14 
REMARK    6  A    between atoms: C12_16  and  C13_17 
REMARK    7  A    between atoms: C14_18  and  C15_19 
REMARK    8  A    between atoms: C21_28  and  S1_29 
ROOT
HETATM    1  C10 UNL     1      13.064  54.304  -1.674  1.00  0.00     0.106 A 
HETATM    2  C11 UNL     1      12.823  55.392  -0.839  1.00  0.00     0.062 A 
HETATM    3  C12 UNL     1      13.899  56.135  -0.344  1.00  0.00    -0.002 A 
HETATM    4  C24 UNL     1      15.193  55.764  -0.692  1.00  0.00     0.031 A 
HETATM    5  C25 UNL     1      15.348  54.675  -1.526  1.00  0.00     0.090 A 
HETATM    6  N5  UNL     1      14.319  53.957  -2.022  1.00  0.00    -0.352 N 
ATOM      7  H5  UNL     1      14.487  53.167  -2.647  1.00  0.00     0.166 HD
ENDROOT
BRANCH   1   8
HETATM    8  N2  UNL     1      11.950  53.564  -2.125  1.00  0.00    -0.340 N 
HETATM    9  H10 UNL     1      11.283  54.169  -2.598  1.00  0.00     0.167 HD
BRANCH   8  10
HETATM   10  C9  UNL     1      11.944  52.291  -2.757  1.00  0.00     0.069 A 
HETATM   11  C7  UNL     1      11.905  52.240  -4.169  1.00  0.00     0.095 A 
HETATM   12  C6  UNL     1      11.850  51.006  -4.816  1.00  0.00     0.041 A 
HETATM   13  C5  UNL     1      11.811  49.826  -4.069  1.00  0.00     0.032 A 
HETATM   14  C4  UNL     1      11.818  49.856  -2.670  1.00  0.00     0.037 A 
HETATM   15  C26 UNL     1      11.879  51.093  -2.023  1.00  0.00     0.062 A 
BRANCH  11  16
HETATM   16  O2  UNL     1      11.940  53.464  -4.798  1.00  0.00    -0.354 OA
HETATM   17  C8  UNL     1      13.108  53.768  -5.550  1.00  0.00     0.210 C 
ENDBRANCH  11  16
BRANCH  14  18
HETATM   18  N1  UNL     1      11.745  48.614  -2.005  1.00  0.00    -0.324 N 
HETATM   19  C3  UNL     1      10.686  48.101  -1.292  1.00  0.00     0.244 C 
HETATM   20  O1  UNL     1       9.614  48.634  -1.041  1.00  0.00    -0.268 OA
HETATM   21  H4  UNL     1      12.584  48.052  -2.031  1.00  0.00     0.169 HD
BRANCH  19  22
HETATM   22  C2  UNL     1      10.942  46.746  -0.728  1.00  0.00     0.064 C 
HETATM   23  C1  UNL     1      10.014  45.954  -0.172  1.00  0.00     0.017 C 
ENDBRANCH  19  22
ENDBRANCH  14  18
ENDBRANCH   8  10
ENDBRANCH   1   8
BRANCH   3  24
HETATM   24  C13 UNL     1      13.669  57.266   0.551  1.00  0.00     0.074 A 
HETATM   25  C14 UNL     1      13.844  57.407   1.925  1.00  0.00     0.072 A 
HETATM   26  N3  UNL     1      13.538  58.687   2.330  1.00  0.00    -0.334 N 
HETATM   27  C21 UNL     1      13.164  59.318   1.247  1.00  0.00     0.146 A 
ATOM     28  H3  UNL     1      13.592  59.064   3.276  1.00  0.00     0.168 HD
HETATM   29  N4  UNL     1      13.253  58.521   0.135  1.00  0.00    -0.329 N 
HETATM   30  C23 UNL     1      12.994  58.934  -1.226  1.00  0.00     0.158 C 
BRANCH  25  31
HETATM   31  C15 UNL     1      14.310  56.404   2.872  1.00  0.00    -0.007 A 
HETATM   32  C16 UNL     1      13.430  55.673   3.683  1.00  0.00     0.017 A 
HETATM   33  C17 UNL     1      13.920  54.717   4.580  1.00  0.00     0.043 A 
HETATM   34  C18 UNL     1      15.289  54.502   4.673  1.00  0.00     0.116 A 
HETATM   35  F1  UNL     1      15.757  53.587   5.532  1.00  0.00    -0.206 F 
HETATM   36  C19 UNL     1      16.180  55.226   3.892  1.00  0.00     0.043 A 
HETATM   37  C20 UNL     1      15.690  56.178   2.995  1.00  0.00     0.017 A 
ENDBRANCH  25  31
BRANCH  27  38
HETATM   38  S1  UNL     1      12.616  60.961   1.191  1.00  0.00    -0.098 SA
HETATM   39  C22 UNL     1      13.025  61.503   2.866  1.00  0.00     0.099 C 
ENDBRANCH  27  38
ENDBRANCH   3  24
TORSDOF 8
ENDMDL
MODEL 4
REMARK minimizedAffinity -7.27812099
REMARK  8 active torsions:
REMARK  status: ('A' for Active; 'I' for Inactive)
REMARK    1  A    between atoms: C2_2  and  C3_3 
REMARK       I    between atoms: C3_3  and  N1_5 
REMARK    2  A    between atoms: N1_5  and  C4_6 
REMARK    3  A    between atoms: C7_9  and  O2_10 
REMARK    4  A    between atoms: C9_12  and  N2_13 
REMARK    5  A    between atoms: N2_13  and  C10_14 
REMARK    6  A    between atoms: C12_16  and  C13_17 
REMARK    7  A    between atoms: C14_18  and  C15_19 
REMARK    8  A    between atoms: C21_28  and  S1_29 
ROOT
HETATM    1  C10 UNL     1      14.182  36.957  16.984  1.00  0.00     0.106 A 
HETATM    2  C11 UNL     1      15.089  36.676  15.964  1.00  0.00     0.062 A 
HETATM    3  C12 UNL     1      16.319  37.338  15.930  1.00  0.00    -0.002 A 
HETATM    4  C24 UNL     1      16.610  38.273  16.916  1.00  0.00     0.031 A 
HETATM    5  C25 UNL     1      15.660  38.495  17.894  1.00  0.00     0.090 A 
HETATM    6  N5  UNL     1      14.474  37.854  17.947  1.00  0.00    -0.352 N 
ATOM      7  H5  UNL     1      13.812  38.045  18.699  1.00  0.00     0.166 HD
ENDROOT
BRANCH   1   8
HETATM    8  N2  UNL     1      12.940  36.289  16.960  1.00  0.00    -0.340 N 
HETATM    9  H10 UNL     1      12.835  35.756  16.100  1.00  0.00     0.167 HD
BRANCH   8  10
HETATM   10  C9  UNL     1      12.307  35.583  18.019  1.00  0.00     0.069 A 
HETATM   11  C7  UNL     1      13.070  34.654  18.761  1.00  0.00     0.095 A 
HETATM   12  C6  UNL     1      12.465  33.911  19.774  1.00  0.00     0.041 A 
HETATM   13  C5  UNL     1      11.102  34.071  20.039  1.00  0.00     0.032 A 
HETATM   14  C4  UNL     1      10.322  34.965  19.295  1.00  0.00     0.037 A 
HETATM   15  C26 UNL     1      10.932  35.712  18.285  1.00  0.00     0.062 A 
BRANCH  11  16
HETATM   16  O2  UNL     1      14.399  34.575  18.406  1.00  0.00    -0.354 OA
HETATM   17  C8  UNL     1      15.298  34.078  19.389  1.00  0.00     0.210 C 
ENDBRANCH  11  16
BRANCH  14  18
HETATM   18  N1  UNL     1       8.950  35.034  19.618  1.00  0.00    -0.324 N 
HETATM   19  C3  UNL     1       7.989  35.836  19.045  1.00  0.00     0.244 C 
HETATM   20  O1  UNL     1       8.134  36.689  18.181  1.00  0.00    -0.268 OA
HETATM   21  H4  UNL     1       8.649  34.446  20.382  1.00  0.00     0.169 HD
BRANCH  19  22
HETATM   22  C2  UNL     1       6.627  35.644  19.619  1.00  0.00     0.064 C 
HETATM   23  C1  UNL     1       5.985  34.471  19.704  1.00  0.00     0.017 C 
ENDBRANCH  19  22
ENDBRANCH  14  18
ENDBRANCH   8  10
ENDBRANCH   1   8
BRANCH   3  24
HETATM   24  C13 UNL     1      17.274  37.073  14.858  1.00  0.00     0.074 A 
HETATM   25  C14 UNL     1      17.886  37.918  13.936  1.00  0.00     0.072 A 
HETATM   26  N3  UNL     1      18.761  37.220  13.135  1.00  0.00    -0.334 N 
HETATM   27  C21 UNL     1      18.681  35.975  13.529  1.00  0.00     0.146 A 
ATOM     28  H3  UNL     1      19.349  37.595  12.390  1.00  0.00     0.168 HD
HETATM   29  N4  UNL     1      17.823  35.829  14.588  1.00  0.00    -0.329 N 
HETATM   30  C23 UNL     1      17.571  34.602  15.310  1.00  0.00     0.158 C 
BRANCH  25  31
HETATM   31  C15 UNL     1      17.709  39.356  13.791  1.00  0.00    -0.007 A 
HETATM   32  C16 UNL     1      16.486  39.926  13.408  1.00  0.00     0.017 A 
HETATM   33  C17 UNL     1      16.358  41.312  13.281  1.00  0.00     0.043 A 
HETATM   34  C18 UNL     1      17.455  42.128  13.525  1.00  0.00     0.116 A 
HETATM   35  F1  UNL     1      17.331  43.456  13.402  1.00  0.00    -0.206 F 
HETATM   36  C19 UNL     1      18.680  41.586  13.888  1.00  0.00     0.043 A 
HETATM   37  C20 UNL     1      18.807  40.201  14.018  1.00  0.00     0.017 A 
ENDBRANCH  25  31
BRANCH  27  38
HETATM   38  S1  UNL     1      19.541  34.649  12.818  1.00  0.00    -0.098 SA
HETATM   39  C22 UNL     1      18.495  34.306  11.385  1.00  0.00     0.099 C 
ENDBRANCH  27  38
ENDBRANCH   3  24
TORSDOF 8
ENDMDL
MODEL 5
REMARK minimizedAffinity -7.25639677
REMARK  8 active torsions:
REMARK  status: ('A' for Active; 'I' for Inactive)
REMARK    1  A    between atoms: C2_2  and  C3_3 
REMARK       I    between atoms: C3_3  and  N1_5 
REMARK    2  A    between atoms: N1_5  and  C4_6 
REMARK    3  A    between atoms: C7_9  and  O2_10 
REMARK    4  A    between atoms: C9_12  and  N2_13 
REMARK    5  A    between atoms: N2_13  and  C10_14 
REMARK    6  A    between atoms: C12_16  and  C13_17 
REMARK    7  A    between atoms: C14_18  and  C15_19 
REMARK    8  A    between atoms: C21_28  and  S1_29 
ROOT
HETATM    1  C10 UNL     1      13.256  55.647  -0.634  1.00  0.00     0.106 A 
HETATM    2  C11 UNL     1      13.076  56.299   0.583  1.00  0.00     0.062 A 
HETATM    3  C12 UNL     1      14.181  56.829   1.254  1.00  0.00    -0.002 A 
HETATM    4  C24 UNL     1      15.444  56.687   0.692  1.00  0.00     0.031 A 
HETATM    5  C25 UNL     1      15.540  56.030  -0.518  1.00  0.00     0.090 A 
HETATM    6  N5  UNL     1      14.481  55.524  -1.183  1.00  0.00    -0.352 N 
ATOM      7  H5  UNL     1      14.604  55.058  -2.083  1.00  0.00     0.166 HD
ENDROOT
BRANCH   1   8
HETATM    8  N2  UNL     1      12.116  55.099  -1.260  1.00  0.00    -0.340 N 
HETATM    9  H10 UNL     1      11.365  54.967  -0.588  1.00  0.00     0.167 HD
BRANCH   8  10
HETATM   10  C9  UNL     1      11.553  55.456  -2.516  1.00  0.00     0.069 A 
HETATM   11  C7  UNL     1      11.965  54.747  -3.666  1.00  0.00     0.095 A 
HETATM   12  C6  UNL     1      11.467  55.106  -4.918  1.00  0.00     0.041 A 
HETATM   13  C5  UNL     1      10.579  56.179  -5.035  1.00  0.00     0.032 A 
HETATM   14  C4  UNL     1      10.181  56.913  -3.911  1.00  0.00     0.037 A 
HETATM   15  C26 UNL     1      10.678  56.548  -2.657  1.00  0.00     0.062 A 
BRANCH  11  16
HETATM   16  O2  UNL     1      12.848  53.716  -3.431  1.00  0.00    -0.354 OA
HETATM   17  C8  UNL     1      12.483  52.433  -3.921  1.00  0.00     0.210 C 
ENDBRANCH  11  16
BRANCH  14  18
HETATM   18  N1  UNL     1       9.306  57.997  -4.135  1.00  0.00    -0.324 N 
HETATM   19  C3  UNL     1       8.860  58.484  -5.343  1.00  0.00     0.244 C 
HETATM   20  O1  UNL     1       9.171  58.116  -6.467  1.00  0.00    -0.268 OA
HETATM   21  H4  UNL     1       8.998  58.491  -3.310  1.00  0.00     0.169 HD
BRANCH  19  22
HETATM   22  C2  UNL     1       7.926  59.638  -5.217  1.00  0.00     0.064 C 
HETATM   23  C1  UNL     1       7.940  60.730  -5.994  1.00  0.00     0.017 C 
ENDBRANCH  19  22
ENDBRANCH  14  18
ENDBRANCH   8  10
ENDBRANCH   1   8
BRANCH   3  24
HETATM   24  C13 UNL     1      14.015  57.498   2.542  1.00  0.00     0.074 A 
HETATM   25  C14 UNL     1      14.308  57.088   3.840  1.00  0.00     0.072 A 
HETATM   26  N3  UNL     1      14.022  58.084   4.746  1.00  0.00    -0.334 N 
HETATM   27  C21 UNL     1      13.545  59.076   4.038  1.00  0.00     0.146 A 
ATOM     28  H3  UNL     1      14.155  58.055   5.757  1.00  0.00     0.168 HD
HETATM   29  N4  UNL     1      13.547  58.793   2.697  1.00  0.00    -0.329 N 
HETATM   30  C23 UNL     1      13.162  59.701   1.640  1.00  0.00     0.158 C 
BRANCH  25  31
HETATM   31  C15 UNL     1      14.871  55.814   4.267  1.00  0.00    -0.007 A 
HETATM   32  C16 UNL     1      14.080  54.788   4.802  1.00  0.00     0.017 A 
HETATM   33  C17 UNL     1      14.660  53.579   5.199  1.00  0.00     0.043 A 
HETATM   34  C18 UNL     1      16.032  53.402   5.072  1.00  0.00     0.116 A 
HETATM   35  F1  UNL     1      16.586  52.243   5.453  1.00  0.00    -0.206 F 
HETATM   36  C19 UNL     1      16.837  54.410   4.561  1.00  0.00     0.043 A 
HETATM   37  C20 UNL     1      16.257  55.616   4.161  1.00  0.00     0.017 A 
ENDBRANCH  25  31
BRANCH  27  38
HETATM   38  S1  UNL     1      12.971  60.576   4.689  1.00  0.00    -0.098 SA
HETATM   39  C22 UNL     1      12.481  60.052   6.347  1.00  0.00     0.099 C 
ENDBRANCH  27  38
ENDBRANCH   3  24
TORSDOF 8
ENDMDL
MODEL 6
REMARK minimizedAffinity -7.20741177
REMARK  8 active torsions:
REMARK  status: ('A' for Active; 'I' for Inactive)
REMARK    1  A    between atoms: C2_2  and  C3_3 
REMARK       I    between atoms: C3_3  and  N1_5 
REMARK    2  A    between atoms: N1_5  and  C4_6 
REMARK    3  A    between atoms: C7_9  and  O2_10 
REMARK    4  A    between atoms: C9_12  and  N2_13 
REMARK    5  A    between atoms: N2_13  and  C10_14 
REMARK    6  A    between atoms: C12_16  and  C13_17 
REMARK    7  A    between atoms: C14_18  and  C15_19 
REMARK    8  A    between atoms: C21_28  and  S1_29 
ROOT
HETATM    1  C10 UNL     1      13.328  58.212   0.564  1.00  0.00     0.106 A 
HETATM    2  C11 UNL     1      13.071  58.286   1.931  1.00  0.00     0.062 A 
HETATM    3  C12 UNL     1      14.117  58.554   2.818  1.00  0.00    -0.002 A 
HETATM    4  C24 UNL     1      15.400  58.736   2.314  1.00  0.00     0.031 A 
HETATM    5  C25 UNL     1      15.573  58.650   0.947  1.00  0.00     0.090 A 
HETATM    6  N5  UNL     1      14.571  58.404   0.078  1.00  0.00    -0.352 N 
ATOM      7  H5  UNL     1      14.750  58.364  -0.926  1.00  0.00     0.166 HD
ENDROOT
BRANCH   1   8
HETATM    8  N2  UNL     1      12.248  57.907  -0.292  1.00  0.00    -0.340 N 
HETATM    9  H10 UNL     1      11.781  58.757  -0.597  1.00  0.00     0.167 HD
BRANCH   8  10
HETATM   10  C9  UNL     1      12.212  56.956  -1.348  1.00  0.00     0.069 A 
HETATM   11  C7  UNL     1      12.020  57.423  -2.668  1.00  0.00     0.095 A 
HETATM   12  C6  UNL     1      11.932  56.511  -3.719  1.00  0.00     0.041 A 
HETATM   13  C5  UNL     1      12.009  55.139  -3.462  1.00  0.00     0.032 A 
HETATM   14  C4  UNL     1      12.168  54.656  -2.158  1.00  0.00     0.037 A 
HETATM   15  C26 UNL     1      12.263  55.572  -1.108  1.00  0.00     0.062 A 
BRANCH  11  16
HETATM   16  O2  UNL     1      11.950  58.792  -2.799  1.00  0.00    -0.354 OA
HETATM   17  C8  UNL     1      11.353  59.294  -3.987  1.00  0.00     0.210 C 
ENDBRANCH  11  16
BRANCH  14  18
HETATM   18  N1  UNL     1      12.206  53.255  -1.998  1.00  0.00    -0.324 N 
HETATM   19  C3  UNL     1      13.256  52.405  -2.262  1.00  0.00     0.244 C 
HETATM   20  O1  UNL     1      14.348  52.678  -2.739  1.00  0.00    -0.268 OA
HETATM   21  H4  UNL     1      11.348  52.826  -1.682  1.00  0.00     0.169 HD
BRANCH  19  22
HETATM   22  C2  UNL     1      12.959  50.975  -1.964  1.00  0.00     0.064 C 
HETATM   23  C1  UNL     1      11.732  50.444  -1.876  1.00  0.00     0.017 C 
ENDBRANCH  19  22
ENDBRANCH  14  18
ENDBRANCH   8  10
ENDBRANCH   1   8
BRANCH   3  24
HETATM   24  C13 UNL     1      13.872  58.614   4.256  1.00  0.00     0.074 A 
HETATM   25  C14 UNL     1      14.174  57.723   5.282  1.00  0.00     0.072 A 
HETATM   26  N3  UNL     1      13.789  58.230   6.503  1.00  0.00    -0.334 N 
HETATM   27  C21 UNL     1      13.243  59.390   6.244  1.00  0.00     0.146 A 
ATOM     28  H3  UNL     1      13.904  57.792   7.417  1.00  0.00     0.168 HD
HETATM   29  N4  UNL     1      13.294  59.692   4.908  1.00  0.00    -0.329 N 
HETATM   30  C23 UNL     1      12.854  60.928   4.302  1.00  0.00     0.158 C 
BRANCH  25  31
HETATM   31  C15 UNL     1      14.833  56.429   5.174  1.00  0.00    -0.007 A 
HETATM   32  C16 UNL     1      14.134  55.256   4.852  1.00  0.00     0.017 A 
HETATM   33  C17 UNL     1      14.806  54.033   4.758  1.00  0.00     0.043 A 
HETATM   34  C18 UNL     1      16.174  53.981   4.996  1.00  0.00     0.116 A 
HETATM   35  F1  UNL     1      16.815  52.809   4.905  1.00  0.00    -0.206 F 
HETATM   36  C19 UNL     1      16.883  55.126   5.333  1.00  0.00     0.043 A 
HETATM   37  C20 UNL     1      16.213  56.348   5.424  1.00  0.00     0.017 A 
ENDBRANCH  25  31
BRANCH  27  38
HETATM   38  S1  UNL     1      12.533  60.442   7.425  1.00  0.00    -0.098 SA
HETATM   39  C22 UNL     1      12.164  59.259   8.740  1.00  0.00     0.099 C 
ENDBRANCH  27  38
ENDBRANCH   3  24
TORSDOF 8
ENDMDL
MODEL 7
REMARK minimizedAffinity -7.13757086
REMARK  8 active torsions:
REMARK  status: ('A' for Active; 'I' for Inactive)
REMARK    1  A    between atoms: C2_2  and  C3_3 
REMARK       I    between atoms: C3_3  and  N1_5 
REMARK    2  A    between atoms: N1_5  and  C4_6 
REMARK    3  A    between atoms: C7_9  and  O2_10 
REMARK    4  A    between atoms: C9_12  and  N2_13 
REMARK    5  A    between atoms: N2_13  and  C10_14 
REMARK    6  A    between atoms: C12_16  and  C13_17 
REMARK    7  A    between atoms: C14_18  and  C15_19 
REMARK    8  A    between atoms: C21_28  and  S1_29 
ROOT
HETATM    1  C10 UNL     1      13.620  35.911  16.936  1.00  0.00     0.106 A 
HETATM    2  C11 UNL     1      13.234  36.502  18.137  1.00  0.00     0.062 A 
HETATM    3  C12 UNL     1      12.681  35.713  19.149  1.00  0.00    -0.002 A 
HETATM    4  C24 UNL     1      12.520  34.349  18.931  1.00  0.00     0.031 A 
HETATM    5  C25 UNL     1      12.928  33.839  17.714  1.00  0.00     0.090 A 
HETATM    6  N5  UNL     1      13.476  34.587  16.733  1.00  0.00    -0.352 N 
ATOM      7  H5  UNL     1      13.774  34.158  15.856  1.00  0.00     0.166 HD
ENDROOT
BRANCH   1   8
HETATM    8  N2  UNL     1      14.144  36.752  15.931  1.00  0.00    -0.340 N 
HETATM    9  H10 UNL     1      13.980  37.729  16.157  1.00  0.00     0.167 HD
BRANCH   8  10
HETATM   10  C9  UNL     1      15.393  36.638  15.261  1.00  0.00     0.069 A 
HETATM   11  C7  UNL     1      16.248  37.763  15.234  1.00  0.00     0.095 A 
HETATM   12  C6  UNL     1      17.458  37.698  14.544  1.00  0.00     0.041 A 
HETATM   13  C5  UNL     1      17.811  36.530  13.862  1.00  0.00     0.032 A 
HETATM   14  C4  UNL     1      16.964  35.416  13.851  1.00  0.00     0.037 A 
HETATM   15  C26 UNL     1      15.755  35.482  14.548  1.00  0.00     0.062 A 
BRANCH  11  16
HETATM   16  O2  UNL     1      15.793  38.859  15.933  1.00  0.00    -0.354 OA
HETATM   17  C8  UNL     1      16.118  40.139  15.405  1.00  0.00     0.210 C 
ENDBRANCH  11  16
BRANCH  14  18
HETATM   18  N1  UNL     1      17.395  34.295  13.110  1.00  0.00    -0.324 N 
HETATM   19  C3  UNL     1      18.499  33.506  13.342  1.00  0.00     0.244 C 
HETATM   20  O1  UNL     1      19.361  33.645  14.199  1.00  0.00    -0.268 OA
HETATM   21  H4  UNL     1      16.844  34.068  12.296  1.00  0.00     0.169 HD
BRANCH  19  22
HETATM   22  C2  UNL     1      18.653  32.388  12.369  1.00  0.00     0.064 C 
HETATM   23  C1  UNL     1      18.034  32.308  11.183  1.00  0.00     0.017 C 
ENDBRANCH  19  22
ENDBRANCH  14  18
ENDBRANCH   8  10
ENDBRANCH   1   8
BRANCH   3  24
HETATM   24  C13 UNL     1      12.250  36.316  20.407  1.00  0.00     0.074 A 
HETATM   25  C14 UNL     1      10.985  36.500  20.958  1.00  0.00     0.072 A 
HETATM   26  N3  UNL     1      11.070  37.080  22.204  1.00  0.00    -0.334 N 
HETATM   27  C21 UNL     1      12.348  37.271  22.414  1.00  0.00     0.146 A 
ATOM     28  H3  UNL     1      10.300  37.312  22.831  1.00  0.00     0.168 HD
HETATM   29  N4  UNL     1      13.112  36.800  21.379  1.00  0.00    -0.329 N 
HETATM   30  C23 UNL     1      14.557  36.782  21.333  1.00  0.00     0.158 C 
BRANCH  25  31
HETATM   31  C15 UNL     1       9.699  36.133  20.380  1.00  0.00    -0.007 A 
HETATM   32  C16 UNL     1       9.196  36.742  19.222  1.00  0.00     0.017 A 
HETATM   33  C17 UNL     1       7.957  36.359  18.700  1.00  0.00     0.043 A 
HETATM   34  C18 UNL     1       7.216  35.376  19.343  1.00  0.00     0.116 A 
HETATM   35  F1  UNL     1       6.029  35.010  18.841  1.00  0.00    -0.206 F 
HETATM   36  C19 UNL     1       7.685  34.771  20.501  1.00  0.00     0.043 A 
HETATM   37  C20 UNL     1       8.925  35.151  21.020  1.00  0.00     0.017 A 
ENDBRANCH  25  31
BRANCH  27  38
HETATM   38  S1  UNL     1      13.022  38.027  23.821  1.00  0.00    -0.098 SA
HETATM   39  C22 UNL     1      14.268  36.804  24.288  1.00  0.00     0.099 C 
ENDBRANCH  27  38
ENDBRANCH   3  24
TORSDOF 8
ENDMDL
MODEL 8
REMARK minimizedAffinity -7.09976339
REMARK  8 active torsions:
REMARK  status: ('A' for Active; 'I' for Inactive)
REMARK    1  A    between atoms: C2_2  and  C3_3 
REMARK       I    between atoms: C3_3  and  N1_5 
REMARK    2  A    between atoms: N1_5  and  C4_6 
REMARK    3  A    between atoms: C7_9  and  O2_10 
REMARK    4  A    between atoms: C9_12  and  N2_13 
REMARK    5  A    between atoms: N2_13  and  C10_14 
REMARK    6  A    between atoms: C12_16  and  C13_17 
REMARK    7  A    between atoms: C14_18  and  C15_19 
REMARK    8  A    between atoms: C21_28  and  S1_29 
ROOT
HETATM    1  C10 UNL     1       8.618  33.852  -5.425  1.00  0.00     0.106 A 
HETATM    2  C11 UNL     1       8.103  32.595  -5.735  1.00  0.00     0.062 A 
HETATM    3  C12 UNL     1       8.400  31.505  -4.912  1.00  0.00    -0.002 A 
HETATM    4  C24 UNL     1       9.212  31.698  -3.800  1.00  0.00     0.031 A 
HETATM    5  C25 UNL     1       9.681  32.975  -3.561  1.00  0.00     0.090 A 
HETATM    6  N5  UNL     1       9.393  34.039  -4.339  1.00  0.00    -0.352 N 
ATOM      7  H5  UNL     1       9.754  34.965  -4.110  1.00  0.00     0.166 HD
ENDROOT
BRANCH   1   8
HETATM    8  N2  UNL     1       8.318  34.917  -6.302  1.00  0.00    -0.340 N 
HETATM    9  H10 UNL     1       8.154  34.571  -7.244  1.00  0.00     0.167 HD
BRANCH   8  10
HETATM   10  C9  UNL     1       7.467  36.031  -6.065  1.00  0.00     0.069 A 
HETATM   11  C7  UNL     1       6.186  36.038  -6.660  1.00  0.00     0.095 A 
HETATM   12  C6  UNL     1       5.348  37.139  -6.486  1.00  0.00     0.041 A 
HETATM   13  C5  UNL     1       5.784  38.239  -5.743  1.00  0.00     0.032 A 
HETATM   14  C4  UNL     1       7.061  38.263  -5.170  1.00  0.00     0.037 A 
HETATM   15  C26 UNL     1       7.897  37.157  -5.342  1.00  0.00     0.062 A 
BRANCH  11  16
HETATM   16  O2  UNL     1       5.868  34.906  -7.376  1.00  0.00    -0.354 OA
HETATM   17  C8  UNL     1       4.510  34.485  -7.344  1.00  0.00     0.210 C 
ENDBRANCH  11  16
BRANCH  14  18
HETATM   18  N1  UNL     1       7.421  39.431  -4.464  1.00  0.00    -0.324 N 
HETATM   19  C3  UNL     1       6.839  40.676  -4.543  1.00  0.00     0.244 C 
HETATM   20  O1  UNL     1       5.932  41.041  -5.278  1.00  0.00    -0.268 OA
HETATM   21  H4  UNL     1       8.220  39.346  -3.853  1.00  0.00     0.169 HD
BRANCH  19  22
HETATM   22  C2  UNL     1       7.462  41.687  -3.643  1.00  0.00     0.064 C 
HETATM   23  C1  UNL     1       6.958  42.902  -3.384  1.00  0.00     0.017 C 
ENDBRANCH  19  22
ENDBRANCH  14  18
ENDBRANCH   8  10
ENDBRANCH   1   8
BRANCH   3  24
HETATM   24  C13 UNL     1       7.888  30.175  -5.231  1.00  0.00     0.074 A 
HETATM   25  C14 UNL     1       8.050  28.946  -4.597  1.00  0.00     0.072 A 
HETATM   26  N3  UNL     1       7.334  27.962  -5.240  1.00  0.00    -0.334 N 
HETATM   27  C21 UNL     1       6.761  28.553  -6.257  1.00  0.00     0.146 A 
ATOM     28  H3  UNL     1       7.264  26.978  -4.979  1.00  0.00     0.168 HD
HETATM   29  N4  UNL     1       7.032  29.897  -6.286  1.00  0.00    -0.329 N 
HETATM   30  C23 UNL     1       6.490  30.850  -7.227  1.00  0.00     0.158 C 
BRANCH  25  31
HETATM   31  C15 UNL     1       8.825  28.658  -3.397  1.00  0.00    -0.007 A 
HETATM   32  C16 UNL     1       8.380  29.010  -2.115  1.00  0.00     0.017 A 
HETATM   33  C17 UNL     1       9.154  28.714  -0.989  1.00  0.00     0.043 A 
HETATM   34  C18 UNL     1      10.378  28.077  -1.146  1.00  0.00     0.116 A 
HETATM   35  F1  UNL     1      11.119  27.795  -0.067  1.00  0.00    -0.206 F 
HETATM   36  C19 UNL     1      10.848  27.735  -2.407  1.00  0.00     0.043 A 
HETATM   37  C20 UNL     1      10.072  28.027  -3.531  1.00  0.00     0.017 A 
ENDBRANCH  25  31
BRANCH  27  38
HETATM   38  S1  UNL     1       5.774  27.762  -7.441  1.00  0.00    -0.098 SA
HETATM   39  C22 UNL     1       7.009  27.394  -8.708  1.00  0.00     0.099 C 
ENDBRANCH  27  38
ENDBRANCH   3  24
TORSDOF 8
ENDMDL
MODEL 9
REMARK minimizedAffinity -7.08147621
REMARK  8 active torsions:
REMARK  status: ('A' for Active; 'I' for Inactive)
REMARK    1  A    between atoms: C2_2  and  C3_3 
REMARK       I    between atoms: C3_3  and  N1_5 
REMARK    2  A    between atoms: N1_5  and  C4_6 
REMARK    3  A    between atoms: C7_9  and  O2_10 
REMARK    4  A    between atoms: C9_12  and  N2_13 
REMARK    5  A    between atoms: N2_13  and  C10_14 
REMARK    6  A    between atoms: C12_16  and  C13_17 
REMARK    7  A    between atoms: C14_18  and  C15_19 
REMARK    8  A    between atoms: C21_28  and  S1_29 
ROOT
HETATM    1  C10 UNL     1      14.061  36.654  15.823  1.00  0.00     0.106 A 
HETATM    2  C11 UNL     1      14.952  35.674  15.391  1.00  0.00     0.062 A 
HETATM    3  C12 UNL     1      16.175  36.050  14.831  1.00  0.00    -0.002 A 
HETATM    4  C24 UNL     1      16.475  37.403  14.710  1.00  0.00     0.031 A 
HETATM    5  C25 UNL     1      15.541  38.312  15.164  1.00  0.00     0.090 A 
HETATM    6  N5  UNL     1      14.361  37.963  15.718  1.00  0.00    -0.352 N 
ATOM      7  H5  UNL     1      13.711  38.676  16.051  1.00  0.00     0.166 HD
ENDROOT
BRANCH   1   8
HETATM    8  N2  UNL     1      12.824  36.228  16.353  1.00  0.00    -0.340 N 
HETATM    9  H10 UNL     1      12.375  35.563  15.729  1.00  0.00     0.167 HD
BRANCH   8  10
HETATM   10  C9  UNL     1      12.525  35.872  17.697  1.00  0.00     0.069 A 
HETATM   11  C7  UNL     1      11.172  35.697  18.062  1.00  0.00     0.095 A 
HETATM   12  C6  UNL     1      10.844  35.394  19.383  1.00  0.00     0.041 A 
HETATM   13  C5  UNL     1      11.852  35.287  20.346  1.00  0.00     0.032 A 
HETATM   14  C4  UNL     1      13.196  35.487  20.010  1.00  0.00     0.037 A 
HETATM   15  C26 UNL     1      13.522  35.784  18.685  1.00  0.00     0.062 A 
BRANCH  11  16
HETATM   16  O2  UNL     1      10.267  35.834  17.033  1.00  0.00    -0.354 OA
HETATM   17  C8  UNL     1       8.901  35.993  17.395  1.00  0.00     0.210 C 
ENDBRANCH  11  16
BRANCH  14  18
HETATM   18  N1  UNL     1      14.136  35.387  21.058  1.00  0.00    -0.324 N 
HETATM   19  C3  UNL     1      14.683  36.411  21.799  1.00  0.00     0.244 C 
HETATM   20  O1  UNL     1      14.511  37.614  21.667  1.00  0.00    -0.268 OA
HETATM   21  H4  UNL     1      14.468  34.457  21.263  1.00  0.00     0.169 HD
BRANCH  19  22
HETATM   22  C2  UNL     1      15.640  35.949  22.844  1.00  0.00     0.064 C 
HETATM   23  C1  UNL     1      15.686  36.407  24.103  1.00  0.00     0.017 C 
ENDBRANCH  19  22
ENDBRANCH  14  18
ENDBRANCH   8  10
ENDBRANCH   1   8
BRANCH   3  24
HETATM   24  C13 UNL     1      17.114  35.039  14.352  1.00  0.00     0.074 A 
HETATM   25  C14 UNL     1      18.295  34.544  14.896  1.00  0.00     0.072 A 
HETATM   26  N3  UNL     1      18.824  33.551  14.102  1.00  0.00    -0.334 N 
HETATM   27  C21 UNL     1      18.010  33.446  13.084  1.00  0.00     0.146 A 
ATOM     28  H3  UNL     1      19.673  33.011  14.272  1.00  0.00     0.168 HD
HETATM   29  N4  UNL     1      16.940  34.296  13.194  1.00  0.00    -0.329 N 
HETATM   30  C23 UNL     1      15.820  34.371  12.284  1.00  0.00     0.158 C 
BRANCH  25  31
HETATM   31  C15 UNL     1      18.938  34.941  16.141  1.00  0.00    -0.007 A 
HETATM   32  C16 UNL     1      20.235  35.474  16.179  1.00  0.00     0.017 A 
HETATM   33  C17 UNL     1      20.815  35.843  17.397  1.00  0.00     0.043 A 
HETATM   34  C18 UNL     1      20.103  35.668  18.577  1.00  0.00     0.116 A 
HETATM   35  F1  UNL     1      20.660  36.022  19.742  1.00  0.00    -0.206 F 
HETATM   36  C19 UNL     1      18.824  35.127  18.565  1.00  0.00     0.043 A 
HETATM   37  C20 UNL     1      18.244  34.762  17.349  1.00  0.00     0.017 A 
ENDBRANCH  25  31
BRANCH  27  38
HETATM   38  S1  UNL     1      18.229  32.371  11.742  1.00  0.00    -0.098 SA
HETATM   39  C22 UNL     1      17.402  30.891  12.364  1.00  0.00     0.099 C 
ENDBRANCH  27  38
ENDBRANCH   3  24
TORSDOF 8
ENDMDL
