MODEL 1
REMARK minimizedAffinity -8.09715462
REMARK  3 active torsions:
REMARK  status: ('A' for Active; 'I' for Inactive)
REMARK    1  A    between atoms: C4_5  and  C5_6 
REMARK    2  A    between atoms: N2_9  and  C6_10 
REMARK    3  A    between atoms: C12_16  and  C13_17 
ROOT
HETATM    1  C5  UNL     1      13.590  57.437   1.178  1.00  0.00     0.038 C 
HETATM    2  N1  UNL     1      13.697  56.336   1.855  1.00  0.00    -0.301 N 
ATOM      3  H1  UNL     1      13.265  55.440   1.628  1.00  0.00     0.187 HD
HETATM    4  N2  UNL     1      14.496  56.601   2.932  1.00  0.00    -0.283 N 
HETATM    5  C12 UNL     1      14.859  58.014   3.045  1.00  0.00     0.147 C 
HETATM    6  C23 UNL     1      14.389  58.595   1.709  1.00  0.00     0.091 C 
ENDROOT
BRANCH   5   7
HETATM    7  C13 UNL     1      14.185  58.727   4.209  1.00  0.00    -0.032 A 
HETATM    8  C14 UNL     1      14.258  58.247   5.524  1.00  0.00     0.010 A 
HETATM    9  C15 UNL     1      13.604  58.912   6.563  1.00  0.00     0.013 A 
HETATM   10  C16 UNL     1      12.853  60.069   6.316  1.00  0.00    -0.026 A 
HETATM   11  C17 UNL     1      12.191  60.748   7.352  1.00  0.00     0.012 A 
HETATM   12  C21 UNL     1      12.761  60.563   4.996  1.00  0.00    -0.025 A 
HETATM   13  C18 UNL     1      11.445  61.898   7.089  1.00  0.00     0.001 A 
HETATM   14  C19 UNL     1      11.354  62.385   5.789  1.00  0.00     0.001 A 
HETATM   15  C20 UNL     1      12.007  61.723   4.748  1.00  0.00     0.012 A 
HETATM   16  C22 UNL     1      13.426  59.884   3.960  1.00  0.00     0.021 A 
ENDBRANCH   5   7
BRANCH   4  17
HETATM   17  C6  UNL     1      14.978  55.568   3.737  1.00  0.00     0.051 A 
HETATM   18  C7  UNL     1      16.346  55.269   3.843  1.00  0.00     0.031 A 
HETATM   19  C8  UNL     1      16.811  54.230   4.659  1.00  0.00     0.002 A 
HETATM   20  C9  UNL     1      15.914  53.461   5.392  1.00  0.00     0.000 A 
HETATM   21  C10 UNL     1      14.553  53.734   5.310  1.00  0.00     0.002 A 
HETATM   22  C11 UNL     1      14.098  54.775   4.494  1.00  0.00     0.031 A 
ENDBRANCH   4  17
BRANCH   1  23
HETATM   23  C4  UNL     1      12.772  57.546  -0.052  1.00  0.00    -0.010 A 
HETATM   24  C3  UNL     1      11.988  56.453  -0.443  1.00  0.00     0.015 A 
HETATM   25  C2  UNL     1      11.203  56.523  -1.598  1.00  0.00     0.026 A 
HETATM   26  C1  UNL     1      11.198  57.686  -2.373  1.00  0.00     0.055 A 
HETATM   27 CL1  UNL     1      10.208  57.707  -3.787  1.00  0.00    -0.083 Cl
HETATM   28  C25 UNL     1      11.982  58.779  -1.986  1.00  0.00     0.056 A 
HETATM   29  C24 UNL     1      12.768  58.710  -0.827  1.00  0.00     0.039 A 
HETATM   30 CL2  UNL     1      12.029  60.249  -2.894  1.00  0.00    -0.083 Cl
ENDBRANCH   1  23
TORSDOF 3
ENDMDL
MODEL 2
REMARK minimizedAffinity -8.06151485
REMARK  3 active torsions:
REMARK  status: ('A' for Active; 'I' for Inactive)
REMARK    1  A    between atoms: C4_5  and  C5_6 
REMARK    2  A    between atoms: N2_9  and  C6_10 
REMARK    3  A    between atoms: C12_16  and  C13_17 
ROOT
HETATM    1  C5  UNL     1      18.219  50.544   6.334  1.00  0.00     0.038 C 
HETATM    2  N1  UNL     1      18.401  51.289   7.380  1.00  0.00    -0.301 N 
ATOM      3  H1  UNL     1      18.429  50.975   8.350  1.00  0.00     0.187 HD
HETATM    4  N2  UNL     1      18.549  52.574   6.939  1.00  0.00    -0.283 N 
HETATM    5  C12 UNL     1      18.338  52.716   5.498  1.00  0.00     0.147 C 
HETATM    6  C23 UNL     1      18.292  51.264   5.016  1.00  0.00     0.091 C 
ENDROOT
BRANCH   5   7
HETATM    7  C13 UNL     1      17.049  53.443   5.138  1.00  0.00    -0.032 A 
HETATM    8  C14 UNL     1      15.788  52.960   5.513  1.00  0.00     0.010 A 
HETATM    9  C15 UNL     1      14.625  53.638   5.142  1.00  0.00     0.013 A 
HETATM   10  C16 UNL     1      14.690  54.812   4.379  1.00  0.00    -0.026 A 
HETATM   11  C17 UNL     1      13.529  55.504   4.000  1.00  0.00     0.012 A 
HETATM   12  C21 UNL     1      15.952  55.310   3.986  1.00  0.00    -0.025 A 
HETATM   13  C18 UNL     1      13.610  56.671   3.239  1.00  0.00     0.001 A 
HETATM   14  C19 UNL     1      14.853  57.161   2.850  1.00  0.00     0.001 A 
HETATM   15  C20 UNL     1      16.017  56.487   3.220  1.00  0.00     0.012 A 
HETATM   16  C22 UNL     1      17.114  54.617   4.368  1.00  0.00     0.021 A 
ENDBRANCH   5   7
BRANCH   4  17
HETATM   17  C6  UNL     1      18.973  53.583   7.804  1.00  0.00     0.051 A 
HETATM   18  C7  UNL     1      19.411  53.322   9.113  1.00  0.00     0.031 A 
HETATM   19  C8  UNL     1      19.836  54.348   9.965  1.00  0.00     0.002 A 
HETATM   20  C9  UNL     1      19.832  55.669   9.528  1.00  0.00     0.000 A 
HETATM   21  C10 UNL     1      19.406  55.959   8.237  1.00  0.00     0.002 A 
HETATM   22  C11 UNL     1      18.986  54.927   7.391  1.00  0.00     0.031 A 
ENDBRANCH   4  17
BRANCH   1  23
HETATM   23  C4  UNL     1      17.994  49.082   6.419  1.00  0.00    -0.010 A 
HETATM   24  C3  UNL     1      18.974  48.279   7.015  1.00  0.00     0.015 A 
HETATM   25  C2  UNL     1      18.792  46.897   7.113  1.00  0.00     0.026 A 
HETATM   26  C1  UNL     1      17.629  46.306   6.614  1.00  0.00     0.055 A 
HETATM   27 CL1  UNL     1      17.467  44.593   6.766  1.00  0.00    -0.083 Cl
HETATM   28  C25 UNL     1      16.648  47.105   6.016  1.00  0.00     0.056 A 
HETATM   29  C24 UNL     1      16.829  48.491   5.919  1.00  0.00     0.039 A 
HETATM   30 CL2  UNL     1      15.185  46.445   5.374  1.00  0.00    -0.083 Cl
ENDBRANCH   1  23
TORSDOF 3
ENDMDL
MODEL 3
REMARK minimizedAffinity -7.98441935
REMARK  3 active torsions:
REMARK  status: ('A' for Active; 'I' for Inactive)
REMARK    1  A    between atoms: C4_5  and  C5_6 
REMARK    2  A    between atoms: N2_9  and  C6_10 
REMARK    3  A    between atoms: C12_16  and  C13_17 
ROOT
HETATM    1  C5  UNL     1      14.335  36.241  17.121  1.00  0.00     0.038 C 
HETATM    2  N1  UNL     1      14.372  37.346  16.442  1.00  0.00    -0.301 N 
ATOM      3  H1  UNL     1      13.612  38.016  16.334  1.00  0.00     0.187 HD
HETATM    4  N2  UNL     1      15.622  37.442  15.898  1.00  0.00    -0.283 N 
HETATM    5  C12 UNL     1      16.448  36.258  16.137  1.00  0.00     0.147 C 
HETATM    6  C23 UNL     1      15.627  35.473  17.164  1.00  0.00     0.091 C 
ENDROOT
BRANCH   5   7
HETATM    7  C13 UNL     1      16.692  35.419  14.890  1.00  0.00    -0.032 A 
HETATM    8  C14 UNL     1      15.707  35.234  13.910  1.00  0.00     0.010 A 
HETATM    9  C15 UNL     1      15.956  34.437  12.791  1.00  0.00     0.013 A 
HETATM   10  C16 UNL     1      17.191  33.795  12.625  1.00  0.00    -0.026 A 
HETATM   11  C17 UNL     1      17.455  32.991  11.505  1.00  0.00     0.012 A 
HETATM   12  C21 UNL     1      18.193  33.964  13.607  1.00  0.00    -0.025 A 
HETATM   13  C18 UNL     1      18.690  32.358  11.356  1.00  0.00     0.001 A 
HETATM   14  C19 UNL     1      19.676  32.523  12.323  1.00  0.00     0.001 A 
HETATM   15  C20 UNL     1      19.431  33.321  13.441  1.00  0.00     0.012 A 
HETATM   16  C22 UNL     1      17.929  34.772  14.727  1.00  0.00     0.021 A 
ENDBRANCH   5   7
BRANCH   4  17
HETATM   17  C6  UNL     1      16.048  38.622  15.287  1.00  0.00     0.051 A 
HETATM   18  C7  UNL     1      16.713  38.635  14.050  1.00  0.00     0.031 A 
HETATM   19  C8  UNL     1      17.131  39.830  13.452  1.00  0.00     0.002 A 
HETATM   20  C9  UNL     1      16.894  41.048  14.080  1.00  0.00     0.000 A 
HETATM   21  C10 UNL     1      16.236  41.068  15.305  1.00  0.00     0.002 A 
HETATM   22  C11 UNL     1      15.820  39.869  15.894  1.00  0.00     0.031 A 
ENDBRANCH   4  17
BRANCH   1  23
HETATM   23  C4  UNL     1      13.123  35.780  17.838  1.00  0.00    -0.010 A 
HETATM   24  C3  UNL     1      13.272  35.110  19.059  1.00  0.00     0.015 A 
HETATM   25  C2  UNL     1      12.149  34.663  19.761  1.00  0.00     0.026 A 
HETATM   26  C1  UNL     1      10.868  34.881  19.247  1.00  0.00     0.055 A 
HETATM   27 CL1  UNL     1       9.523  34.303  20.163  1.00  0.00    -0.083 Cl
HETATM   28  C25 UNL     1      10.716  35.548  18.025  1.00  0.00     0.056 A 
HETATM   29  C24 UNL     1      11.842  35.997  17.322  1.00  0.00     0.039 A 
HETATM   30 CL2  UNL     1       9.165  35.851  17.326  1.00  0.00    -0.083 Cl
ENDBRANCH   1  23
TORSDOF 3
ENDMDL
MODEL 4
REMARK minimizedAffinity -7.91044283
REMARK  3 active torsions:
REMARK  status: ('A' for Active; 'I' for Inactive)
REMARK    1  A    between atoms: C4_5  and  C5_6 
REMARK    2  A    between atoms: N2_9  and  C6_10 
REMARK    3  A    between atoms: C12_16  and  C13_17 
ROOT
HETATM    1  C5  UNL     1      13.168  57.594   0.482  1.00  0.00     0.038 C 
HETATM    2  N1  UNL     1      13.291  56.589   1.292  1.00  0.00    -0.301 N 
ATOM      3  H1  UNL     1      12.869  55.667   1.183  1.00  0.00     0.187 HD
HETATM    4  N2  UNL     1      14.092  56.997   2.321  1.00  0.00    -0.283 N 
HETATM    5  C12 UNL     1      14.440  58.417   2.253  1.00  0.00     0.147 C 
HETATM    6  C23 UNL     1      13.956  58.818   0.857  1.00  0.00     0.091 C 
ENDROOT
BRANCH   5   7
HETATM    7  C13 UNL     1      13.763  59.265   3.321  1.00  0.00    -0.032 A 
HETATM    8  C14 UNL     1      13.148  60.489   3.025  1.00  0.00     0.010 A 
HETATM    9  C15 UNL     1      12.560  61.254   4.034  1.00  0.00     0.013 A 
HETATM   10  C16 UNL     1      12.578  60.821   5.367  1.00  0.00    -0.026 A 
HETATM   11  C17 UNL     1      11.990  61.581   6.391  1.00  0.00     0.012 A 
HETATM   12  C21 UNL     1      13.200  59.594   5.685  1.00  0.00    -0.025 A 
HETATM   13  C18 UNL     1      12.018  61.137   7.714  1.00  0.00     0.001 A 
HETATM   14  C19 UNL     1      12.632  59.928   8.029  1.00  0.00     0.001 A 
HETATM   15  C20 UNL     1      13.219  59.161   7.022  1.00  0.00     0.012 A 
HETATM   16  C22 UNL     1      13.787  58.833   4.659  1.00  0.00     0.021 A 
ENDBRANCH   5   7
BRANCH   4  17
HETATM   17  C6  UNL     1      14.590  56.080   3.248  1.00  0.00     0.051 A 
HETATM   18  C7  UNL     1      15.965  55.875   3.444  1.00  0.00     0.031 A 
HETATM   19  C8  UNL     1      16.446  54.952   4.381  1.00  0.00     0.002 A 
HETATM   20  C9  UNL     1      15.557  54.207   5.149  1.00  0.00     0.000 A 
HETATM   21  C10 UNL     1      14.189  54.389   4.980  1.00  0.00     0.002 A 
HETATM   22  C11 UNL     1      13.718  55.315   4.043  1.00  0.00     0.031 A 
ENDBRANCH   4  17
BRANCH   1  23
HETATM   23  C4  UNL     1      12.343  57.537  -0.748  1.00  0.00    -0.010 A 
HETATM   24  C3  UNL     1      11.564  56.398  -0.988  1.00  0.00     0.015 A 
HETATM   25  C2  UNL     1      10.773  56.313  -2.137  1.00  0.00     0.026 A 
HETATM   26  C1  UNL     1      10.756  57.364  -3.057  1.00  0.00     0.055 A 
HETATM   27 CL1  UNL     1       9.758  57.195  -4.456  1.00  0.00    -0.083 Cl
HETATM   28  C25 UNL     1      11.536  58.503  -2.820  1.00  0.00     0.056 A 
HETATM   29  C24 UNL     1      12.327  58.590  -1.668  1.00  0.00     0.039 A 
HETATM   30 CL2  UNL     1      11.568  59.842  -3.913  1.00  0.00    -0.083 Cl
ENDBRANCH   1  23
TORSDOF 3
ENDMDL
MODEL 5
REMARK minimizedAffinity -7.83811426
REMARK  3 active torsions:
REMARK  status: ('A' for Active; 'I' for Inactive)
REMARK    1  A    between atoms: C4_5  and  C5_6 
REMARK    2  A    between atoms: N2_9  and  C6_10 
REMARK    3  A    between atoms: C12_16  and  C13_17 
ROOT
HETATM    1  C5  UNL     1      12.394  34.987  19.368  1.00  0.00     0.038 C 
HETATM    2  N1  UNL     1      13.181  35.726  20.087  1.00  0.00    -0.301 N 
ATOM      3  H1  UNL     1      12.901  36.486  20.707  1.00  0.00     0.187 HD
HETATM    4  N2  UNL     1      14.458  35.294  19.859  1.00  0.00    -0.283 N 
HETATM    5  C12 UNL     1      14.541  34.263  18.824  1.00  0.00     0.147 C 
HETATM    6  C23 UNL     1      13.074  33.891  18.596  1.00  0.00     0.091 C 
ENDROOT
BRANCH   5   7
HETATM    7  C13 UNL     1      15.180  34.747  17.529  1.00  0.00    -0.032 A 
HETATM    8  C14 UNL     1      14.459  35.455  16.559  1.00  0.00     0.010 A 
HETATM    9  C15 UNL     1      15.070  35.860  15.370  1.00  0.00     0.013 A 
HETATM   10  C16 UNL     1      16.416  35.561  15.116  1.00  0.00    -0.026 A 
HETATM   11  C17 UNL     1      17.043  35.963  13.925  1.00  0.00     0.012 A 
HETATM   12  C21 UNL     1      17.157  34.842  16.079  1.00  0.00    -0.025 A 
HETATM   13  C18 UNL     1      18.384  35.656  13.687  1.00  0.00     0.001 A 
HETATM   14  C19 UNL     1      19.113  34.946  14.635  1.00  0.00     0.001 A 
HETATM   15  C20 UNL     1      18.505  34.541  15.824  1.00  0.00     0.012 A 
HETATM   16  C22 UNL     1      16.528  34.442  17.272  1.00  0.00     0.021 A 
ENDBRANCH   5   7
BRANCH   4  17
HETATM   17  C6  UNL     1      15.517  35.745  20.647  1.00  0.00     0.051 A 
HETATM   18  C7  UNL     1      16.529  36.580  20.146  1.00  0.00     0.031 A 
HETATM   19  C8  UNL     1      17.584  37.025  20.952  1.00  0.00     0.002 A 
HETATM   20  C9  UNL     1      17.654  36.642  22.287  1.00  0.00     0.000 A 
HETATM   21  C10 UNL     1      16.666  35.817  22.814  1.00  0.00     0.002 A 
HETATM   22  C11 UNL     1      15.614  35.380  22.001  1.00  0.00     0.031 A 
ENDBRANCH   4  17
BRANCH   1  23
HETATM   23  C4  UNL     1      10.925  35.178  19.334  1.00  0.00    -0.010 A 
HETATM   24  C3  UNL     1      10.358  35.884  18.266  1.00  0.00     0.015 A 
HETATM   25  C2  UNL     1       8.976  36.081  18.202  1.00  0.00     0.026 A 
HETATM   26  C1  UNL     1       8.149  35.574  19.208  1.00  0.00     0.055 A 
HETATM   27 CL1  UNL     1       6.450  35.852  19.070  1.00  0.00    -0.083 Cl
HETATM   28  C25 UNL     1       8.712  34.869  20.279  1.00  0.00     0.056 A 
HETATM   29  C24 UNL     1      10.098  34.671  20.342  1.00  0.00     0.039 A 
HETATM   30 CL2  UNL     1       7.753  34.216  21.559  1.00  0.00    -0.083 Cl
ENDBRANCH   1  23
TORSDOF 3
ENDMDL
MODEL 6
REMARK minimizedAffinity -7.76751757
REMARK  3 active torsions:
REMARK  status: ('A' for Active; 'I' for Inactive)
REMARK    1  A    between atoms: C4_5  and  C5_6 
REMARK    2  A    between atoms: N2_9  and  C6_10 
REMARK    3  A    between atoms: C12_16  and  C13_17 
ROOT
HETATM    1  C5  UNL     1      13.924  58.438   5.332  1.00  0.00     0.038 C 
HETATM    2  N1  UNL     1      13.356  58.133   4.206  1.00  0.00    -0.301 N 
ATOM      3  H1  UNL     1      12.386  58.314   3.948  1.00  0.00     0.187 HD
HETATM    4  N2  UNL     1      14.301  57.522   3.430  1.00  0.00    -0.283 N 
HETATM    5  C12 UNL     1      15.566  57.299   4.131  1.00  0.00     0.147 C 
HETATM    6  C23 UNL     1      15.389  58.111   5.417  1.00  0.00     0.091 C 
ENDROOT
BRANCH   5   7
HETATM    7  C13 UNL     1      15.838  55.836   4.452  1.00  0.00    -0.032 A 
HETATM    8  C14 UNL     1      14.822  54.956   4.847  1.00  0.00     0.010 A 
HETATM    9  C15 UNL     1      15.112  53.626   5.160  1.00  0.00     0.013 A 
HETATM   10  C16 UNL     1      16.426  53.143   5.096  1.00  0.00    -0.026 A 
HETATM   11  C17 UNL     1      16.732  51.808   5.408  1.00  0.00     0.012 A 
HETATM   12  C21 UNL     1      17.465  54.018   4.708  1.00  0.00    -0.025 A 
HETATM   13  C18 UNL     1      18.046  51.342   5.340  1.00  0.00     0.001 A 
HETATM   14  C19 UNL     1      19.069  52.205   4.959  1.00  0.00     0.001 A 
HETATM   15  C20 UNL     1      18.782  53.533   4.645  1.00  0.00     0.012 A 
HETATM   16  C22 UNL     1      17.157  55.353   4.394  1.00  0.00     0.021 A 
ENDBRANCH   5   7
BRANCH   4  17
HETATM   17  C6  UNL     1      14.062  57.266   2.080  1.00  0.00     0.051 A 
HETATM   18  C7  UNL     1      14.850  56.379   1.328  1.00  0.00     0.031 A 
HETATM   19  C8  UNL     1      14.593  56.132  -0.026  1.00  0.00     0.002 A 
HETATM   20  C9  UNL     1      13.537  56.772  -0.666  1.00  0.00     0.000 A 
HETATM   21  C10 UNL     1      12.737  57.654   0.051  1.00  0.00     0.002 A 
HETATM   22  C11 UNL     1      13.000  57.893   1.405  1.00  0.00     0.031 A 
ENDBRANCH   4  17
BRANCH   1  23
HETATM   23  C4  UNL     1      13.199  59.095   6.444  1.00  0.00    -0.010 A 
HETATM   24  C3  UNL     1      12.287  60.116   6.148  1.00  0.00     0.015 A 
HETATM   25  C2  UNL     1      11.586  60.756   7.173  1.00  0.00     0.026 A 
HETATM   26  C1  UNL     1      11.792  60.382   8.504  1.00  0.00     0.055 A 
HETATM   27 CL1  UNL     1      10.894  61.213   9.723  1.00  0.00    -0.083 Cl
HETATM   28  C25 UNL     1      12.704  59.363   8.803  1.00  0.00     0.056 A 
HETATM   29  C24 UNL     1      13.407  58.720   7.775  1.00  0.00     0.039 A 
HETATM   30 CL2  UNL     1      13.013  58.848  10.424  1.00  0.00    -0.083 Cl
ENDBRANCH   1  23
TORSDOF 3
ENDMDL
MODEL 7
REMARK minimizedAffinity -7.76133966
REMARK  3 active torsions:
REMARK  status: ('A' for Active; 'I' for Inactive)
REMARK    1  A    between atoms: C4_5  and  C5_6 
REMARK    2  A    between atoms: N2_9  and  C6_10 
REMARK    3  A    between atoms: C12_16  and  C13_17 
ROOT
HETATM    1  C5  UNL     1      17.181  52.350   5.457  1.00  0.00     0.038 C 
HETATM    2  N1  UNL     1      16.712  51.166   5.703  1.00  0.00    -0.301 N 
ATOM      3  H1  UNL     1      15.739  50.870   5.620  1.00  0.00     0.187 HD
HETATM    4  N2  UNL     1      17.765  50.389   6.096  1.00  0.00    -0.283 N 
HETATM    5  C12 UNL     1      19.015  51.138   6.232  1.00  0.00     0.147 C 
HETATM    6  C23 UNL     1      18.671  52.490   5.601  1.00  0.00     0.091 C 
ENDROOT
BRANCH   5   7
HETATM    7  C13 UNL     1      19.466  51.319   7.675  1.00  0.00    -0.032 A 
HETATM    8  C14 UNL     1      19.097  52.433   8.440  1.00  0.00     0.010 A 
HETATM    9  C15 UNL     1      19.551  52.580   9.753  1.00  0.00     0.013 A 
HETATM   10  C16 UNL     1      20.394  51.621  10.333  1.00  0.00    -0.026 A 
HETATM   11  C17 UNL     1      20.858  51.756  11.651  1.00  0.00     0.012 A 
HETATM   12  C21 UNL     1      20.782  50.495   9.574  1.00  0.00    -0.025 A 
HETATM   13  C18 UNL     1      21.697  50.794  12.214  1.00  0.00     0.001 A 
HETATM   14  C19 UNL     1      22.081  49.684  11.467  1.00  0.00     0.001 A 
HETATM   15  C20 UNL     1      21.628  49.535  10.156  1.00  0.00     0.012 A 
HETATM   16  C22 UNL     1      20.316  50.360   8.255  1.00  0.00     0.021 A 
ENDBRANCH   5   7
BRANCH   4  17
HETATM   17  C6  UNL     1      17.626  49.007   6.226  1.00  0.00     0.051 A 
HETATM   18  C7  UNL     1      16.401  48.349   6.028  1.00  0.00     0.031 A 
HETATM   19  C8  UNL     1      16.281  46.960   6.160  1.00  0.00     0.002 A 
HETATM   20  C9  UNL     1      17.389  46.191   6.498  1.00  0.00     0.000 A 
HETATM   21  C10 UNL     1      18.616  46.813   6.699  1.00  0.00     0.002 A 
HETATM   22  C11 UNL     1      18.728  48.201   6.562  1.00  0.00     0.031 A 
ENDBRANCH   4  17
BRANCH   1  23
HETATM   23  C4  UNL     1      16.323  53.480   5.028  1.00  0.00    -0.010 A 
HETATM   24  C3  UNL     1      14.944  53.409   5.260  1.00  0.00     0.015 A 
HETATM   25  C2  UNL     1      14.107  54.457   4.869  1.00  0.00     0.026 A 
HETATM   26  C1  UNL     1      14.642  55.585   4.241  1.00  0.00     0.055 A 
HETATM   27 CL1  UNL     1      13.553  56.845   3.783  1.00  0.00    -0.083 Cl
HETATM   28  C25 UNL     1      16.020  55.658   4.007  1.00  0.00     0.056 A 
HETATM   29  C24 UNL     1      16.860  54.608   4.400  1.00  0.00     0.039 A 
HETATM   30 CL2  UNL     1      16.753  57.019   3.234  1.00  0.00    -0.083 Cl
ENDBRANCH   1  23
TORSDOF 3
ENDMDL
MODEL 8
REMARK minimizedAffinity -7.73625183
REMARK  3 active torsions:
REMARK  status: ('A' for Active; 'I' for Inactive)
REMARK    1  A    between atoms: C4_5  and  C5_6 
REMARK    2  A    between atoms: N2_9  and  C6_10 
REMARK    3  A    between atoms: C12_16  and  C13_17 
ROOT
HETATM    1  C5  UNL     1      13.641  35.928  16.875  1.00  0.00     0.038 C 
HETATM    2  N1  UNL     1      14.842  35.451  16.996  1.00  0.00    -0.301 N 
ATOM      3  H1  UNL     1      15.153  34.760  17.678  1.00  0.00     0.187 HD
HETATM    4  N2  UNL     1      15.611  36.050  16.039  1.00  0.00    -0.283 N 
HETATM    5  C12 UNL     1      14.899  37.089  15.293  1.00  0.00     0.147 C 
HETATM    6  C23 UNL     1      13.447  36.890  15.736  1.00  0.00     0.091 C 
ENDROOT
BRANCH   5   7
HETATM    7  C13 UNL     1      15.369  38.502  15.612  1.00  0.00    -0.032 A 
HETATM    8  C14 UNL     1      15.218  39.070  16.884  1.00  0.00     0.010 A 
HETATM    9  C15 UNL     1      15.637  40.379  17.134  1.00  0.00     0.013 A 
HETATM   10  C16 UNL     1      16.208  41.158  16.118  1.00  0.00    -0.026 A 
HETATM   11  C17 UNL     1      16.633  42.474  16.356  1.00  0.00     0.012 A 
HETATM   12  C21 UNL     1      16.360  40.604  14.828  1.00  0.00    -0.025 A 
HETATM   13  C18 UNL     1      17.199  43.237  15.333  1.00  0.00     0.001 A 
HETATM   14  C19 UNL     1      17.348  42.692  14.061  1.00  0.00     0.001 A 
HETATM   15  C20 UNL     1      16.932  41.385  13.809  1.00  0.00     0.012 A 
HETATM   16  C22 UNL     1      15.936  39.284  14.591  1.00  0.00     0.021 A 
ENDBRANCH   5   7
BRANCH   4  17
HETATM   17  C6  UNL     1      16.902  35.594  15.769  1.00  0.00     0.051 A 
HETATM   18  C7  UNL     1      17.959  35.734  16.682  1.00  0.00     0.031 A 
HETATM   19  C8  UNL     1      19.247  35.267  16.395  1.00  0.00     0.002 A 
HETATM   20  C9  UNL     1      19.512  34.646  15.179  1.00  0.00     0.000 A 
HETATM   21  C10 UNL     1      18.486  34.491  14.254  1.00  0.00     0.002 A 
HETATM   22  C11 UNL     1      17.200  34.958  14.551  1.00  0.00     0.031 A 
ENDBRANCH   4  17
BRANCH   1  23
HETATM   23  C4  UNL     1      12.526  35.530  17.766  1.00  0.00    -0.010 A 
HETATM   24  C3  UNL     1      12.811  34.772  18.909  1.00  0.00     0.015 A 
HETATM   25  C2  UNL     1      11.783  34.381  19.771  1.00  0.00     0.026 A 
HETATM   26  C1  UNL     1      10.461  34.742  19.496  1.00  0.00     0.055 A 
HETATM   27 CL1  UNL     1       9.239  34.227  20.602  1.00  0.00    -0.083 Cl
HETATM   28  C25 UNL     1      10.173  35.498  18.353  1.00  0.00     0.056 A 
HETATM   29  C24 UNL     1      11.204  35.891  17.490  1.00  0.00     0.039 A 
HETATM   30 CL2  UNL     1       8.564  35.980  17.947  1.00  0.00    -0.083 Cl
ENDBRANCH   1  23
TORSDOF 3
ENDMDL
MODEL 9
REMARK minimizedAffinity -7.66127825
REMARK  3 active torsions:
REMARK  status: ('A' for Active; 'I' for Inactive)
REMARK    1  A    between atoms: C4_5  and  C5_6 
REMARK    2  A    between atoms: N2_9  and  C6_10 
REMARK    3  A    between atoms: C12_16  and  C13_17 
ROOT
HETATM    1  C5  UNL     1      13.719  60.274   2.482  1.00  0.00     0.038 C 
HETATM    2  N1  UNL     1      12.984  59.742   1.555  1.00  0.00    -0.301 N 
ATOM      3  H1  UNL     1      12.073  60.074   1.238  1.00  0.00     0.187 HD
HETATM    4  N2  UNL     1      13.659  58.652   1.082  1.00  0.00    -0.283 N 
HETATM    5  C12 UNL     1      14.887  58.367   1.826  1.00  0.00     0.147 C 
HETATM    6  C23 UNL     1      15.052  59.613   2.700  1.00  0.00     0.091 C 
ENDROOT
BRANCH   5   7
HETATM    7  C13 UNL     1      14.803  57.114   2.687  1.00  0.00    -0.032 A 
HETATM    8  C14 UNL     1      13.583  56.612   3.160  1.00  0.00     0.010 A 
HETATM    9  C15 UNL     1      13.546  55.475   3.971  1.00  0.00     0.013 A 
HETATM   10  C16 UNL     1      14.726  54.814   4.336  1.00  0.00    -0.026 A 
HETATM   11  C17 UNL     1      14.703  53.670   5.150  1.00  0.00     0.012 A 
HETATM   12  C21 UNL     1      15.966  55.310   3.875  1.00  0.00    -0.025 A 
HETATM   13  C18 UNL     1      15.888  53.024   5.506  1.00  0.00     0.001 A 
HETATM   14  C19 UNL     1      17.109  53.512   5.053  1.00  0.00     0.001 A 
HETATM   15  C20 UNL     1      17.149  54.647   4.242  1.00  0.00     0.012 A 
HETATM   16  C22 UNL     1      15.988  56.454   3.058  1.00  0.00     0.021 A 
ENDBRANCH   5   7
BRANCH   4  17
HETATM   17  C6  UNL     1      13.231  57.989  -0.069  1.00  0.00     0.051 A 
HETATM   18  C7  UNL     1      13.535  58.447  -1.361  1.00  0.00     0.031 A 
HETATM   19  C8  UNL     1      13.099  57.766  -2.505  1.00  0.00     0.002 A 
HETATM   20  C9  UNL     1      12.344  56.605  -2.383  1.00  0.00     0.000 A 
HETATM   21  C10 UNL     1      12.028  56.125  -1.117  1.00  0.00     0.002 A 
HETATM   22  C11 UNL     1      12.470  56.810   0.020  1.00  0.00     0.031 A 
ENDBRANCH   4  17
BRANCH   1  23
HETATM   23  C4  UNL     1      13.300  61.470   3.250  1.00  0.00    -0.010 A 
HETATM   24  C3  UNL     1      13.670  62.738   2.783  1.00  0.00     0.015 A 
HETATM   25  C2  UNL     1      13.291  63.887   3.483  1.00  0.00     0.026 A 
HETATM   26  C1  UNL     1      12.540  63.777   4.656  1.00  0.00     0.055 A 
HETATM   27 CL1  UNL     1      12.104  65.235   5.473  1.00  0.00    -0.083 Cl
HETATM   28  C25 UNL     1      12.170  62.511   5.126  1.00  0.00     0.056 A 
HETATM   29  C24 UNL     1      12.549  61.359   4.424  1.00  0.00     0.039 A 
HETATM   30 CL2  UNL     1      11.244  62.297   6.570  1.00  0.00    -0.083 Cl
ENDBRANCH   1  23
TORSDOF 3
ENDMDL
