MODEL 1
REMARK minimizedAffinity -7.60966587
REMARK CNNscore 0.830657065
REMARK CNNaffinity 5.75029898
REMARK  3 active torsions:
REMARK  status: ('A' for Active; 'I' for Inactive)
REMARK    1  A    between atoms: C4_5  and  C5_6 
REMARK    2  A    between atoms: N2_9  and  C6_10 
REMARK    3  A    between atoms: C12_16  and  C13_17 
ROOT
HETATM    1  C5  UNL     1      17.181  52.240   5.451  1.00  0.00     0.038 C 
HETATM    2  N1  UNL     1      16.698  51.058   5.690  1.00  0.00    -0.301 N 
ATOM      3  H1  UNL     1      15.720  50.779   5.621  1.00  0.00     0.187 HD
HETATM    4  N2  UNL     1      17.746  50.260   6.052  1.00  0.00    -0.283 N 
HETATM    5  C12 UNL     1      19.006  50.993   6.188  1.00  0.00     0.147 C 
HETATM    6  C23 UNL     1      18.676  52.352   5.566  1.00  0.00     0.091 C 
ENDROOT
BRANCH   5   7
HETATM    7  C13 UNL     1      19.466  51.157   7.629  1.00  0.00    -0.032 A 
HETATM    8  C14 UNL     1      20.175  50.115   8.247  1.00  0.00     0.010 A 
HETATM    9  C15 UNL     1      20.633  50.244   9.559  1.00  0.00     0.013 A 
HETATM   10  C16 UNL     1      20.398  51.417  10.290  1.00  0.00    -0.026 A 
HETATM   11  C17 UNL     1      20.846  51.559  11.614  1.00  0.00     0.012 A 
HETATM   12  C21 UNL     1      19.693  52.479   9.682  1.00  0.00    -0.025 A 
HETATM   13  C18 UNL     1      20.602  52.733  12.328  1.00  0.00     0.001 A 
HETATM   14  C19 UNL     1      19.906  53.779  11.729  1.00  0.00     0.001 A 
HETATM   15  C20 UNL     1      19.454  53.652  10.413  1.00  0.00     0.012 A 
HETATM   16  C22 UNL     1      19.241  52.336   8.359  1.00  0.00     0.021 A 
ENDBRANCH   5   7
BRANCH   4  17
HETATM   17  C6  UNL     1      17.585  48.881   6.182  1.00  0.00     0.051 A 
HETATM   18  C7  UNL     1      16.317  48.288   6.055  1.00  0.00     0.031 A 
HETATM   19  C8  UNL     1      16.126  46.909   6.184  1.00  0.00     0.002 A 
HETATM   20  C9  UNL     1      17.209  46.080   6.448  1.00  0.00     0.000 A 
HETATM   21  C10 UNL     1      18.477  46.635   6.581  1.00  0.00     0.002 A 
HETATM   22  C11 UNL     1      18.660  48.017   6.448  1.00  0.00     0.031 A 
ENDBRANCH   4  17
BRANCH   1  23
HETATM   23  C4  UNL     1      16.336  53.393   5.063  1.00  0.00    -0.012 A 
HETATM   24  C3  UNL     1      16.886  54.534   4.461  1.00  0.00     0.016 A 
HETATM   25  C2  UNL     1      16.058  55.604   4.110  1.00  0.00     0.043 A 
HETATM   26  C1  UNL     1      14.691  55.529   4.357  1.00  0.00     0.116 A 
HETATM   27  F1  UNL     1      13.902  56.556   4.015  1.00  0.00    -0.206 F 
HETATM   28  C25 UNL     1      14.132  54.403   4.949  1.00  0.00     0.043 A 
HETATM   29  C24 UNL     1      14.956  53.333   5.303  1.00  0.00     0.016 A 
ENDBRANCH   1  23
TORSDOF 3
ENDMDL
MODEL 2
REMARK minimizedAffinity -7.67104912
REMARK CNNscore 0.812859297
REMARK CNNaffinity 5.81820536
REMARK  3 active torsions:
REMARK  status: ('A' for Active; 'I' for Inactive)
REMARK    1  A    between atoms: C4_5  and  C5_6 
REMARK    2  A    between atoms: N2_9  and  C6_10 
REMARK    3  A    between atoms: C12_16  and  C13_17 
ROOT
HETATM    1  C5  UNL     1      17.149  52.247   5.419  1.00  0.00     0.038 C 
HETATM    2  N1  UNL     1      16.659  51.075   5.691  1.00  0.00    -0.301 N 
ATOM      3  H1  UNL     1      15.677  50.806   5.656  1.00  0.00     0.187 HD
HETATM    4  N2  UNL     1      17.709  50.270   6.033  1.00  0.00    -0.283 N 
HETATM    5  C12 UNL     1      18.981  50.990   6.119  1.00  0.00     0.147 C 
HETATM    6  C23 UNL     1      18.647  52.343   5.486  1.00  0.00     0.091 C 
ENDROOT
BRANCH   5   7
HETATM    7  C13 UNL     1      19.487  51.170   7.543  1.00  0.00    -0.032 A 
HETATM    8  C14 UNL     1      19.082  52.293   8.280  1.00  0.00     0.010 A 
HETATM    9  C15 UNL     1      19.508  52.474   9.597  1.00  0.00     0.013 A 
HETATM   10  C16 UNL     1      20.348  51.536  10.215  1.00  0.00    -0.026 A 
HETATM   11  C17 UNL     1      20.792  51.708  11.537  1.00  0.00     0.012 A 
HETATM   12  C21 UNL     1      20.760  50.396   9.490  1.00  0.00    -0.025 A 
HETATM   13  C18 UNL     1      21.630  50.767  12.136  1.00  0.00     0.001 A 
HETATM   14  C19 UNL     1      22.035  49.643  11.422  1.00  0.00     0.001 A 
HETATM   15  C20 UNL     1      21.603  49.459  10.106  1.00  0.00     0.012 A 
HETATM   16  C22 UNL     1      20.320  50.226   8.167  1.00  0.00     0.021 A 
ENDBRANCH   5   7
BRANCH   4  17
HETATM   17  C6  UNL     1      17.536  48.895   6.190  1.00  0.00     0.051 A 
HETATM   18  C7  UNL     1      18.621  48.066   6.524  1.00  0.00     0.031 A 
HETATM   19  C8  UNL     1      18.477  46.684   6.683  1.00  0.00     0.002 A 
HETATM   20  C9  UNL     1      17.232  46.091   6.511  1.00  0.00     0.000 A 
HETATM   21  C10 UNL     1      16.138  46.883   6.179  1.00  0.00     0.002 A 
HETATM   22  C11 UNL     1      16.291  48.267   6.022  1.00  0.00     0.031 A 
ENDBRANCH   4  17
BRANCH   1  23
HETATM   23  C4  UNL     1      16.305  53.404   5.038  1.00  0.00    -0.012 A 
HETATM   24  C3  UNL     1      14.923  53.412   5.272  1.00  0.00     0.016 A 
HETATM   25  C2  UNL     1      14.159  54.520   4.896  1.00  0.00     0.043 A 
HETATM   26  C1  UNL     1      14.776  55.613   4.297  1.00  0.00     0.116 A 
HETATM   27  F1  UNL     1      14.040  56.674   3.944  1.00  0.00    -0.206 F 
HETATM   28  C25 UNL     1      16.146  55.621   4.063  1.00  0.00     0.043 A 
HETATM   29  C24 UNL     1      16.913  54.515   4.435  1.00  0.00     0.016 A 
ENDBRANCH   1  23
TORSDOF 3
ENDMDL
MODEL 3
REMARK minimizedAffinity -7.25689459
REMARK CNNscore 0.588296056
REMARK CNNaffinity 5.45578003
REMARK  3 active torsions:
REMARK  status: ('A' for Active; 'I' for Inactive)
REMARK    1  A    between atoms: C4_5  and  C5_6 
REMARK    2  A    between atoms: N2_9  and  C6_10 
REMARK    3  A    between atoms: C12_16  and  C13_17 
ROOT
HETATM    1  C5  UNL     1      13.434  57.120   0.559  1.00  0.00     0.038 C 
HETATM    2  N1  UNL     1      12.292  57.240  -0.046  1.00  0.00    -0.301 N 
ATOM      3  H1  UNL     1      11.394  57.444   0.391  1.00  0.00     0.187 HD
HETATM    4  N2  UNL     1      12.519  57.040  -1.378  1.00  0.00    -0.283 N 
HETATM    5  C12 UNL     1      13.894  56.630  -1.671  1.00  0.00     0.147 C 
HETATM    6  C23 UNL     1      14.612  56.883  -0.344  1.00  0.00     0.091 C 
ENDROOT
BRANCH   5   7
HETATM    7  C13 UNL     1      14.023  55.172  -2.086  1.00  0.00    -0.032 A 
HETATM    8  C14 UNL     1      15.247  54.706  -2.588  1.00  0.00     0.010 A 
HETATM    9  C15 UNL     1      15.405  53.368  -2.954  1.00  0.00     0.013 A 
HETATM   10  C16 UNL     1      14.345  52.459  -2.825  1.00  0.00    -0.026 A 
HETATM   11  C17 UNL     1      14.487  51.111  -3.196  1.00  0.00     0.012 A 
HETATM   12  C21 UNL     1      13.108  52.909  -2.314  1.00  0.00    -0.025 A 
HETATM   13  C18 UNL     1      13.422  50.219  -3.063  1.00  0.00     0.001 A 
HETATM   14  C19 UNL     1      12.202  50.663  -2.560  1.00  0.00     0.001 A 
HETATM   15  C20 UNL     1      12.046  52.000  -2.188  1.00  0.00     0.012 A 
HETATM   16  C22 UNL     1      12.965  54.257  -1.947  1.00  0.00     0.021 A 
ENDBRANCH   5   7
BRANCH   4  17
HETATM   17  C6  UNL     1      11.524  57.297  -2.321  1.00  0.00     0.051 A 
HETATM   18  C7  UNL     1      11.609  58.411  -3.173  1.00  0.00     0.031 A 
HETATM   19  C8  UNL     1      10.624  58.695  -4.125  1.00  0.00     0.002 A 
HETATM   20  C9  UNL     1       9.518  57.863  -4.249  1.00  0.00     0.000 A 
HETATM   21  C10 UNL     1       9.403  56.752  -3.420  1.00  0.00     0.002 A 
HETATM   22  C11 UNL     1      10.395  56.475  -2.470  1.00  0.00     0.031 A 
ENDBRANCH   4  17
BRANCH   1  23
HETATM   23  C4  UNL     1      13.585  57.237   2.029  1.00  0.00    -0.012 A 
HETATM   24  C3  UNL     1      13.363  58.450   2.694  1.00  0.00     0.016 A 
HETATM   25  C2  UNL     1      13.517  58.523   4.081  1.00  0.00     0.043 A 
HETATM   26  C1  UNL     1      13.885  57.389   4.795  1.00  0.00     0.116 A 
HETATM   27  F1  UNL     1      14.027  57.463   6.125  1.00  0.00    -0.206 F 
HETATM   28  C25 UNL     1      14.104  56.177   4.150  1.00  0.00     0.043 A 
HETATM   29  C24 UNL     1      13.953  56.100   2.765  1.00  0.00     0.016 A 
ENDBRANCH   1  23
TORSDOF 3
ENDMDL
MODEL 4
REMARK minimizedAffinity -7.79818249
REMARK CNNscore 0.505394697
REMARK CNNaffinity 5.03657532
REMARK  3 active torsions:
REMARK  status: ('A' for Active; 'I' for Inactive)
REMARK    1  A    between atoms: C4_5  and  C5_6 
REMARK    2  A    between atoms: N2_9  and  C6_10 
REMARK    3  A    between atoms: C12_16  and  C13_17 
ROOT
HETATM    1  C5  UNL     1      13.507  58.781   5.676  1.00  0.00     0.038 C 
HETATM    2  N1  UNL     1      12.927  58.484   4.553  1.00  0.00    -0.301 N 
ATOM      3  H1  UNL     1      11.940  58.612   4.329  1.00  0.00     0.187 HD
HETATM    4  N2  UNL     1      13.885  57.968   3.728  1.00  0.00    -0.283 N 
HETATM    5  C12 UNL     1      15.178  57.788   4.392  1.00  0.00     0.147 C 
HETATM    6  C23 UNL     1      14.992  58.549   5.706  1.00  0.00     0.091 C 
ENDROOT
BRANCH   5   7
HETATM    7  C13 UNL     1      15.532  56.332   4.656  1.00  0.00    -0.032 A 
HETATM    8  C14 UNL     1      14.517  55.431   5.011  1.00  0.00     0.010 A 
HETATM    9  C15 UNL     1      14.806  54.083   5.236  1.00  0.00     0.013 A 
HETATM   10  C16 UNL     1      16.116  53.599   5.108  1.00  0.00    -0.026 A 
HETATM   11  C17 UNL     1      16.423  52.247   5.338  1.00  0.00     0.012 A 
HETATM   12  C21 UNL     1      17.149  54.490   4.744  1.00  0.00    -0.025 A 
HETATM   13  C18 UNL     1      17.733  51.782   5.210  1.00  0.00     0.001 A 
HETATM   14  C19 UNL     1      18.750  52.661   4.851  1.00  0.00     0.001 A 
HETATM   15  C20 UNL     1      18.460  54.007   4.620  1.00  0.00     0.012 A 
HETATM   16  C22 UNL     1      16.843  55.843   4.518  1.00  0.00     0.021 A 
ENDBRANCH   5   7
BRANCH   4  17
HETATM   17  C6  UNL     1      13.619  57.735   2.379  1.00  0.00     0.051 A 
HETATM   18  C7  UNL     1      13.277  58.792   1.519  1.00  0.00     0.031 A 
HETATM   19  C8  UNL     1      13.002  58.587   0.163  1.00  0.00     0.002 A 
HETATM   20  C9  UNL     1      13.062  57.305  -0.371  1.00  0.00     0.000 A 
HETATM   21  C10 UNL     1      13.397  56.237   0.453  1.00  0.00     0.002 A 
HETATM   22  C11 UNL     1      13.672  56.452   1.810  1.00  0.00     0.031 A 
ENDBRANCH   4  17
BRANCH   1  23
HETATM   23  C4  UNL     1      12.777  59.337   6.840  1.00  0.00    -0.012 A 
HETATM   24  C3  UNL     1      11.772  60.300   6.681  1.00  0.00     0.016 A 
HETATM   25  C2  UNL     1      11.107  60.804   7.802  1.00  0.00     0.043 A 
HETATM   26  C1  UNL     1      11.443  60.342   9.070  1.00  0.00     0.116 A 
HETATM   27  F1  UNL     1      10.799  60.825  10.140  1.00  0.00    -0.206 F 
HETATM   28  C25 UNL     1      12.435  59.384   9.242  1.00  0.00     0.043 A 
HETATM   29  C24 UNL     1      13.103  58.880   8.125  1.00  0.00     0.016 A 
ENDBRANCH   1  23
TORSDOF 3
ENDMDL
MODEL 5
REMARK minimizedAffinity -6.41070604
REMARK CNNscore 0.493972212
REMARK CNNaffinity 5.19392443
REMARK  3 active torsions:
REMARK  status: ('A' for Active; 'I' for Inactive)
REMARK    1  A    between atoms: C4_5  and  C5_6 
REMARK    2  A    between atoms: N2_9  and  C6_10 
REMARK    3  A    between atoms: C12_16  and  C13_17 
ROOT
HETATM    1  C5  UNL     1      12.099  52.838  -2.951  1.00  0.00     0.038 C 
HETATM    2  N1  UNL     1      12.291  53.471  -1.834  1.00  0.00    -0.301 N 
ATOM      3  H1  UNL     1      12.101  53.117  -0.897  1.00  0.00     0.187 HD
HETATM    4  N2  UNL     1      12.795  54.701  -2.149  1.00  0.00    -0.283 N 
HETATM    5  C12 UNL     1      12.823  54.959  -3.590  1.00  0.00     0.147 C 
HETATM    6  C23 UNL     1      12.533  53.579  -4.185  1.00  0.00     0.091 C 
ENDROOT
BRANCH   5   7
HETATM    7  C13 UNL     1      11.788  55.974  -4.051  1.00  0.00    -0.032 A 
HETATM    8  C14 UNL     1      10.447  55.580  -4.177  1.00  0.00     0.010 A 
HETATM    9  C15 UNL     1       9.469  56.495  -4.573  1.00  0.00     0.013 A 
HETATM   10  C16 UNL     1       9.804  57.828  -4.851  1.00  0.00    -0.026 A 
HETATM   11  C17 UNL     1       8.833  58.758  -5.258  1.00  0.00     0.012 A 
HETATM   12  C21 UNL     1      11.148  58.244  -4.722  1.00  0.00    -0.025 A 
HETATM   13  C18 UNL     1       9.183  60.081  -5.533  1.00  0.00     0.001 A 
HETATM   14  C19 UNL     1      10.507  60.490  -5.406  1.00  0.00     0.001 A 
HETATM   15  C20 UNL     1      11.484  59.577  -5.003  1.00  0.00     0.012 A 
HETATM   16  C22 UNL     1      12.120  57.313  -4.319  1.00  0.00     0.021 A 
ENDBRANCH   5   7
BRANCH   4  17
HETATM   17  C6  UNL     1      13.291  55.547  -1.158  1.00  0.00     0.051 A 
HETATM   18  C7  UNL     1      14.663  55.571  -0.851  1.00  0.00     0.031 A 
HETATM   19  C8  UNL     1      15.188  56.406   0.140  1.00  0.00     0.002 A 
HETATM   20  C9  UNL     1      14.345  57.247   0.857  1.00  0.00     0.000 A 
HETATM   21  C10 UNL     1      12.983  57.248   0.579  1.00  0.00     0.002 A 
HETATM   22  C11 UNL     1      12.466  56.408  -0.416  1.00  0.00     0.031 A 
ENDBRANCH   4  17
BRANCH   1  23
HETATM   23  C4  UNL     1      11.525  51.474  -3.017  1.00  0.00    -0.012 A 
HETATM   24  C3  UNL     1      11.573  50.605  -1.919  1.00  0.00     0.016 A 
HETATM   25  C2  UNL     1      11.023  49.324  -2.019  1.00  0.00     0.043 A 
HETATM   26  C1  UNL     1      10.426  48.920  -3.208  1.00  0.00     0.116 A 
HETATM   27  F1  UNL     1       9.896  47.693  -3.297  1.00  0.00    -0.206 F 
HETATM   28  C25 UNL     1      10.367  49.772  -4.304  1.00  0.00     0.043 A 
HETATM   29  C24 UNL     1      10.917  51.052  -4.209  1.00  0.00     0.016 A 
ENDBRANCH   1  23
TORSDOF 3
ENDMDL
MODEL 6
REMARK minimizedAffinity -7.30965614
REMARK CNNscore 0.483896285
REMARK CNNaffinity 4.8998661
REMARK  3 active torsions:
REMARK  status: ('A' for Active; 'I' for Inactive)
REMARK    1  A    between atoms: C4_5  and  C5_6 
REMARK    2  A    between atoms: N2_9  and  C6_10 
REMARK    3  A    between atoms: C12_16  and  C13_17 
ROOT
HETATM    1  C5  UNL     1       4.684  65.099  -5.044  1.00  0.00     0.038 C 
HETATM    2  N1  UNL     1       4.740  65.217  -6.335  1.00  0.00    -0.301 N 
ATOM      3  H1  UNL     1       3.952  65.371  -6.964  1.00  0.00     0.187 HD
HETATM    4  N2  UNL     1       6.052  65.096  -6.694  1.00  0.00    -0.283 N 
HETATM    5  C12 UNL     1       6.925  64.743  -5.572  1.00  0.00     0.147 C 
HETATM    6  C23 UNL     1       6.013  64.946  -4.359  1.00  0.00     0.091 C 
ENDROOT
BRANCH   5   7
HETATM    7  C13 UNL     1       7.443  63.314  -5.625  1.00  0.00    -0.032 A 
HETATM    8  C14 UNL     1       6.608  62.264  -5.215  1.00  0.00     0.010 A 
HETATM    9  C15 UNL     1       7.046  60.940  -5.275  1.00  0.00     0.013 A 
HETATM   10  C16 UNL     1       8.328  60.628  -5.750  1.00  0.00    -0.026 A 
HETATM   11  C17 UNL     1       8.785  59.300  -5.810  1.00  0.00     0.012 A 
HETATM   12  C21 UNL     1       9.179  61.672  -6.175  1.00  0.00    -0.025 A 
HETATM   13  C18 UNL     1      10.064  59.008  -6.283  1.00  0.00     0.001 A 
HETATM   14  C19 UNL     1      10.903  60.036  -6.701  1.00  0.00     0.001 A 
HETATM   15  C20 UNL     1      10.463  61.361  -6.647  1.00  0.00     0.012 A 
HETATM   16  C22 UNL     1       8.724  62.999  -6.111  1.00  0.00     0.021 A 
ENDBRANCH   5   7
BRANCH   4  17
HETATM   17  C6  UNL     1       6.468  65.373  -7.996  1.00  0.00     0.051 A 
HETATM   18  C7  UNL     1       7.784  65.792  -8.259  1.00  0.00     0.031 A 
HETATM   19  C8  UNL     1       8.226  66.080  -9.554  1.00  0.00     0.002 A 
HETATM   20  C9  UNL     1       7.354  65.956 -10.629  1.00  0.00     0.000 A 
HETATM   21  C10 UNL     1       6.046  65.544 -10.403  1.00  0.00     0.002 A 
HETATM   22  C11 UNL     1       5.611  65.257  -9.103  1.00  0.00     0.031 A 
ENDBRANCH   4  17
BRANCH   1  23
HETATM   23  C4  UNL     1       3.412  65.141  -4.284  1.00  0.00    -0.012 A 
HETATM   24  C3  UNL     1       3.395  65.148  -2.883  1.00  0.00     0.016 A 
HETATM   25  C2  UNL     1       2.176  65.185  -2.201  1.00  0.00     0.043 A 
HETATM   26  C1  UNL     1       0.985  65.221  -2.917  1.00  0.00     0.116 A 
HETATM   27  F1  UNL     1      -0.180  65.262  -2.258  1.00  0.00    -0.206 F 
HETATM   28  C25 UNL     1       0.986  65.220  -4.307  1.00  0.00     0.043 A 
HETATM   29  C24 UNL     1       2.201  65.180  -4.992  1.00  0.00     0.016 A 
ENDBRANCH   1  23
TORSDOF 3
ENDMDL
MODEL 7
REMARK minimizedAffinity -6.34775972
REMARK CNNscore 0.45784077
REMARK CNNaffinity 5.30284071
REMARK  3 active torsions:
REMARK  status: ('A' for Active; 'I' for Inactive)
REMARK    1  A    between atoms: C4_5  and  C5_6 
REMARK    2  A    between atoms: N2_9  and  C6_10 
REMARK    3  A    between atoms: C12_16  and  C13_17 
ROOT
HETATM    1  C5  UNL     1      17.656  50.812   6.210  1.00  0.00     0.038 C 
HETATM    2  N1  UNL     1      16.776  51.426   5.478  1.00  0.00    -0.301 N 
ATOM      3  H1  UNL     1      16.025  50.992   4.943  1.00  0.00     0.187 HD
HETATM    4  N2  UNL     1      17.047  52.762   5.559  1.00  0.00    -0.283 N 
HETATM    5  C12 UNL     1      18.276  53.056   6.299  1.00  0.00     0.147 C 
HETATM    6  C23 UNL     1      18.610  51.710   6.947  1.00  0.00     0.091 C 
ENDROOT
BRANCH   5   7
HETATM    7  C13 UNL     1      19.422  53.531   5.418  1.00  0.00    -0.032 A 
HETATM    8  C14 UNL     1      19.886  52.700   4.388  1.00  0.00     0.010 A 
HETATM    9  C15 UNL     1      20.920  53.118   3.546  1.00  0.00     0.013 A 
HETATM   10  C16 UNL     1      21.513  54.378   3.709  1.00  0.00    -0.026 A 
HETATM   11  C17 UNL     1      22.559  54.809   2.875  1.00  0.00     0.012 A 
HETATM   12  C21 UNL     1      21.053  55.230   4.737  1.00  0.00    -0.025 A 
HETATM   13  C18 UNL     1      23.141  56.064   3.052  1.00  0.00     0.001 A 
HETATM   14  C19 UNL     1      22.687  56.904   4.065  1.00  0.00     0.001 A 
HETATM   15  C20 UNL     1      21.649  56.489   4.903  1.00  0.00     0.012 A 
HETATM   16  C22 UNL     1      20.011  54.798   5.574  1.00  0.00     0.021 A 
ENDBRANCH   5   7
BRANCH   4  17
HETATM   17  C6  UNL     1      16.160  53.705   5.041  1.00  0.00     0.051 A 
HETATM   18  C7  UNL     1      16.623  54.775   4.255  1.00  0.00     0.031 A 
HETATM   19  C8  UNL     1      15.757  55.737   3.726  1.00  0.00     0.002 A 
HETATM   20  C9  UNL     1      14.392  55.653   3.974  1.00  0.00     0.000 A 
HETATM   21  C10 UNL     1      13.901  54.608   4.748  1.00  0.00     0.002 A 
HETATM   22  C11 UNL     1      14.776  53.648   5.273  1.00  0.00     0.031 A 
ENDBRANCH   4  17
BRANCH   1  23
HETATM   23  C4  UNL     1      17.706  49.337   6.344  1.00  0.00    -0.012 A 
HETATM   24  C3  UNL     1      16.682  48.521   5.844  1.00  0.00     0.016 A 
HETATM   25  C2  UNL     1      16.763  47.134   5.991  1.00  0.00     0.043 A 
HETATM   26  C1  UNL     1      17.863  46.569   6.628  1.00  0.00     0.116 A 
HETATM   27  F1  UNL     1      17.937  45.238   6.761  1.00  0.00    -0.206 F 
HETATM   28  C25 UNL     1      18.888  47.365   7.124  1.00  0.00     0.043 A 
HETATM   29  C24 UNL     1      18.810  48.752   6.982  1.00  0.00     0.016 A 
ENDBRANCH   1  23
TORSDOF 3
ENDMDL
MODEL 8
REMARK minimizedAffinity -7.76410961
REMARK CNNscore 0.457063138
REMARK CNNaffinity 4.98843908
REMARK  3 active torsions:
REMARK  status: ('A' for Active; 'I' for Inactive)
REMARK    1  A    between atoms: C4_5  and  C5_6 
REMARK    2  A    between atoms: N2_9  and  C6_10 
REMARK    3  A    between atoms: C12_16  and  C13_17 
ROOT
HETATM    1  C5  UNL     1      13.121  57.534   0.491  1.00  0.00     0.038 C 
HETATM    2  N1  UNL     1      13.242  56.536   1.313  1.00  0.00    -0.301 N 
ATOM      3  H1  UNL     1      12.796  55.623   1.225  1.00  0.00     0.187 HD
HETATM    4  N2  UNL     1      14.077  56.938   2.315  1.00  0.00    -0.283 N 
HETATM    5  C12 UNL     1      14.443  58.353   2.226  1.00  0.00     0.147 C 
HETATM    6  C23 UNL     1      13.950  58.742   0.831  1.00  0.00     0.091 C 
ENDROOT
BRANCH   5   7
HETATM    7  C13 UNL     1      13.792  59.222   3.291  1.00  0.00    -0.032 A 
HETATM    8  C14 UNL     1      13.190  60.432   2.917  1.00  0.00     0.010 A 
HETATM    9  C15 UNL     1      12.562  61.240   3.868  1.00  0.00     0.013 A 
HETATM   10  C16 UNL     1      12.515  60.859   5.216  1.00  0.00    -0.026 A 
HETATM   11  C17 UNL     1      11.894  61.664   6.185  1.00  0.00     0.012 A 
HETATM   12  C21 UNL     1      13.110  59.639   5.610  1.00  0.00    -0.025 A 
HETATM   13  C18 UNL     1      11.859  61.271   7.524  1.00  0.00     0.001 A 
HETATM   14  C19 UNL     1      12.445  60.070   7.911  1.00  0.00     0.001 A 
HETATM   15  C20 UNL     1      13.068  59.258   6.959  1.00  0.00     0.012 A 
HETATM   16  C22 UNL     1      13.735  58.836   4.642  1.00  0.00     0.021 A 
ENDBRANCH   5   7
BRANCH   4  17
HETATM   17  C6  UNL     1      14.564  56.026   3.251  1.00  0.00     0.051 A 
HETATM   18  C7  UNL     1      13.684  55.261   4.038  1.00  0.00     0.031 A 
HETATM   19  C8  UNL     1      14.144  54.343   4.987  1.00  0.00     0.002 A 
HETATM   20  C9  UNL     1      15.509  54.164   5.175  1.00  0.00     0.000 A 
HETATM   21  C10 UNL     1      16.406  54.905   4.414  1.00  0.00     0.002 A 
HETATM   22  C11 UNL     1      15.937  55.822   3.465  1.00  0.00     0.031 A 
ENDBRANCH   4  17
BRANCH   1  23
HETATM   23  C4  UNL     1      12.258  57.489  -0.713  1.00  0.00    -0.012 A 
HETATM   24  C3  UNL     1      11.466  56.370  -1.004  1.00  0.00     0.016 A 
HETATM   25  C2  UNL     1      10.667  56.362  -2.150  1.00  0.00     0.043 A 
HETATM   26  C1  UNL     1      10.658  57.467  -2.994  1.00  0.00     0.116 A 
HETATM   27  F1  UNL     1       9.887  57.456  -4.089  1.00  0.00    -0.206 F 
HETATM   28  C25 UNL     1      11.435  58.585  -2.716  1.00  0.00     0.043 A 
HETATM   29  C24 UNL     1      12.237  58.597  -1.573  1.00  0.00     0.016 A 
ENDBRANCH   1  23
TORSDOF 3
ENDMDL
MODEL 9
REMARK minimizedAffinity -6.94083738
REMARK CNNscore 0.448483616
REMARK CNNaffinity 5.3653245
REMARK  3 active torsions:
REMARK  status: ('A' for Active; 'I' for Inactive)
REMARK    1  A    between atoms: C4_5  and  C5_6 
REMARK    2  A    between atoms: N2_9  and  C6_10 
REMARK    3  A    between atoms: C12_16  and  C13_17 
ROOT
HETATM    1  C5  UNL     1      -1.017  66.535   0.065  1.00  0.00     0.038 C 
HETATM    2  N1  UNL     1       0.049  66.896   0.713  1.00  0.00    -0.301 N 
ATOM      3  H1  UNL     1       1.008  66.623   0.502  1.00  0.00     0.187 HD
HETATM    4  N2  UNL     1      -0.356  67.710   1.732  1.00  0.00    -0.283 N 
HETATM    5  C12 UNL     1      -1.813  67.799   1.851  1.00  0.00     0.147 C 
HETATM    6  C23 UNL     1      -2.299  67.146   0.556  1.00  0.00     0.091 C 
ENDROOT
BRANCH   5   7
HETATM    7  C13 UNL     1      -2.373  67.074   3.066  1.00  0.00    -0.032 A 
HETATM    8  C14 UNL     1      -1.615  66.060   3.670  1.00  0.00     0.010 A 
HETATM    9  C15 UNL     1      -2.090  65.392   4.801  1.00  0.00     0.013 A 
HETATM   10  C16 UNL     1      -3.333  65.722   5.361  1.00  0.00    -0.026 A 
HETATM   11  C17 UNL     1      -3.827  65.055   6.494  1.00  0.00     0.012 A 
HETATM   12  C21 UNL     1      -4.106  66.746   4.770  1.00  0.00    -0.025 A 
HETATM   13  C18 UNL     1      -5.067  65.394   7.037  1.00  0.00     0.001 A 
HETATM   14  C19 UNL     1      -5.828  66.402   6.454  1.00  0.00     0.001 A 
HETATM   15  C20 UNL     1      -5.351  67.075   5.327  1.00  0.00     0.012 A 
HETATM   16  C22 UNL     1      -3.614  67.411   3.634  1.00  0.00     0.021 A 
ENDBRANCH   5   7
BRANCH   4  17
HETATM   17  C6  UNL     1       0.571  68.422   2.492  1.00  0.00     0.051 A 
HETATM   18  C7  UNL     1       0.866  69.765   2.198  1.00  0.00     0.031 A 
HETATM   19  C8  UNL     1       1.793  70.501   2.942  1.00  0.00     0.002 A 
HETATM   20  C9  UNL     1       2.457  69.906   4.009  1.00  0.00     0.000 A 
HETATM   21  C10 UNL     1       2.189  68.579   4.325  1.00  0.00     0.002 A 
HETATM   22  C11 UNL     1       1.257  67.850   3.576  1.00  0.00     0.031 A 
ENDBRANCH   4  17
BRANCH   1  23
HETATM   23  C4  UNL     1      -0.981  65.614  -1.096  1.00  0.00    -0.012 A 
HETATM   24  C3  UNL     1      -2.087  65.461  -1.943  1.00  0.00     0.016 A 
HETATM   25  C2  UNL     1      -2.018  64.580  -3.027  1.00  0.00     0.043 A 
HETATM   26  C1  UNL     1      -0.849  63.864  -3.260  1.00  0.00     0.116 A 
HETATM   27  F1  UNL     1      -0.787  63.025  -4.303  1.00  0.00    -0.206 F 
HETATM   28  C25 UNL     1       0.256  64.009  -2.431  1.00  0.00     0.043 A 
HETATM   29  C24 UNL     1       0.191  64.885  -1.347  1.00  0.00     0.016 A 
ENDBRANCH   1  23
TORSDOF 3
ENDMDL
