MODEL 1
REMARK minimizedAffinity -10.7857437
REMARK  4 active torsions:
REMARK  status: ('A' for Active; 'I' for Inactive)
REMARK    1  A    between atoms: C4_4  and  C5_5 
REMARK    2  A    between atoms: C10_16  and  N4_17 
REMARK    3  A    between atoms: N4_17  and  C11_18 
REMARK    4  A    between atoms: C18_28  and  C19_29 
REMARK       I    between atoms: C19_29  and  N6_31 
ROOT
HETATM    1  C5  UNL     1      -2.290   5.255  13.191  1.00  0.00     0.047 C 
HETATM    2  C6  UNL     1      -1.926   5.927  14.297  1.00  0.00     0.052 A 
HETATM    3  C7  UNL     1      -2.748   6.312  15.503  1.00  0.00     0.258 A 
HETATM    4  O1  UNL     1      -3.887   5.986  15.775  1.00  0.00    -0.267 OA
HETATM    5  N1  UNL     1      -1.930   7.120  16.260  1.00  0.00    -0.308 N 
HETATM    6  C8  UNL     1      -0.674   7.250  15.693  1.00  0.00     0.124 A 
HETATM    7  N2  UNL     1       0.298   7.964  16.253  1.00  0.00    -0.338 N 
ATOM      8  H2  UNL     1       0.184   8.486  17.122  1.00  0.00     0.168 HD
HETATM    9  C9  UNL     1       1.439   7.928  15.558  1.00  0.00     0.183 A 
HETATM   10  N3  UNL     1       1.655   7.241  14.418  1.00  0.00    -0.338 N 
ATOM     11  H3  UNL     1       2.564   7.267  13.957  1.00  0.00     0.168 HD
HETATM   12  C10 UNL     1       0.638   6.516  13.900  1.00  0.00     0.121 A 
HETATM   13  C17 UNL     1      -0.593   6.522  14.517  1.00  0.00     0.068 A 
HETATM   14  H6  UNL     1      -2.192   7.543  17.136  1.00  0.00     0.170 HD
ENDROOT
BRANCH   1  15
HETATM   15  C4  UNL     1      -3.539   4.662  12.859  1.00  0.00     0.034 A 
HETATM   16  C3  UNL     1      -3.812   3.464  12.221  1.00  0.00     0.038 A 
HETATM   17  C2  UNL     1      -5.223   3.296  12.148  1.00  0.00    -0.028 A 
HETATM   18  C1  UNL     1      -5.945   2.136  11.563  1.00  0.00     0.050 C 
HETATM   19  C18 UNL     1      -5.784   4.424  12.727  1.00  0.00     0.107 A 
HETATM   20  N5  UNL     1      -4.754   5.215  13.180  1.00  0.00    -0.351 N 
HETATM   21  H12 UNL     1      -4.898   6.106  13.646  1.00  0.00     0.166 HD
BRANCH  19  22
HETATM   22  C19 UNL     1      -7.173   4.773  12.921  1.00  0.00     0.271 C 
HETATM   23  O2  UNL     1      -8.075   4.037  12.531  1.00  0.00    -0.266 OA
HETATM   24  N6  UNL     1      -7.427   5.969  13.585  1.00  0.00    -0.343 N 
HETATM   25  C20 UNL     1      -6.394   6.841  14.155  1.00  0.00     0.156 C 
HETATM   26  C24 UNL     1      -8.812   6.337  13.882  1.00  0.00     0.156 C 
HETATM   27  C21 UNL     1      -6.938   8.247  14.465  1.00  0.00     0.291 C 
HETATM   28  N7  UNL     1      -8.072   8.239  15.409  1.00  0.00     0.087 N 
HETATM   29  C22 UNL     1      -8.821   9.490  15.333  1.00  0.00     0.310 C 
HETATM   30  C23 UNL     1      -8.945   7.060  15.235  1.00  0.00     0.291 C 
ENDBRANCH  19  22
ENDBRANCH   1  15
BRANCH  12  31
HETATM   31  N4  UNL     1       0.855   5.726  12.748  1.00  0.00    -0.342 N 
HETATM   32  H8  UNL     1       1.360   4.885  13.016  1.00  0.00     0.167 HD
BRANCH  31  33
HETATM   33  C11 UNL     1       1.223   6.150  11.450  1.00  0.00     0.035 A 
HETATM   34  C12 UNL     1       2.324   5.539  10.823  1.00  0.00     0.032 A 
HETATM   35  C13 UNL     1       2.694   5.881   9.520  1.00  0.00     0.046 A 
HETATM   36  C14 UNL     1       1.947   6.821   8.819  1.00  0.00     0.138 A 
HETATM   37  F1  UNL     1       2.318   7.136   7.570  1.00  0.00    -0.204 F 
HETATM   38  C15 UNL     1       0.829   7.407   9.404  1.00  0.00     0.074 A 
HETATM   39 CL1  UNL     1      -0.116   8.553   8.531  1.00  0.00    -0.081 Cl
HETATM   40  C16 UNL     1       0.461   7.063  10.706  1.00  0.00     0.056 A 
ENDBRANCH  31  33
ENDBRANCH  12  31
TORSDOF 4
ENDMDL
MODEL 2
REMARK minimizedAffinity -10.4967299
REMARK  4 active torsions:
REMARK  status: ('A' for Active; 'I' for Inactive)
REMARK    1  A    between atoms: C4_4  and  C5_5 
REMARK    2  A    between atoms: C10_16  and  N4_17 
REMARK    3  A    between atoms: N4_17  and  C11_18 
REMARK    4  A    between atoms: C18_28  and  C19_29 
REMARK       I    between atoms: C19_29  and  N6_31 
ROOT
HETATM    1  C5  UNL     1      -4.066   5.625  12.976  1.00  0.00     0.047 C 
HETATM    2  C6  UNL     1      -4.068   4.487  12.262  1.00  0.00     0.052 A 
HETATM    3  C7  UNL     1      -3.056   3.977  11.263  1.00  0.00     0.258 A 
HETATM    4  O1  UNL     1      -1.966   4.440  10.990  1.00  0.00    -0.267 OA
HETATM    5  N1  UNL     1      -3.622   2.848  10.715  1.00  0.00    -0.308 N 
HETATM    6  C8  UNL     1      -4.851   2.564  11.285  1.00  0.00     0.124 A 
HETATM    7  N2  UNL     1      -5.580   1.508  10.934  1.00  0.00    -0.338 N 
ATOM      8  H2  UNL     1      -5.301   0.849  10.207  1.00  0.00     0.168 HD
HETATM    9  C9  UNL     1      -6.714   1.402  11.632  1.00  0.00     0.183 A 
HETATM   10  N3  UNL     1      -7.123   2.228  12.616  1.00  0.00    -0.338 N 
ATOM     11  H3  UNL     1      -8.006   2.066  13.100  1.00  0.00     0.168 HD
HETATM   12  C10 UNL     1      -6.336   3.277  12.945  1.00  0.00     0.121 A 
HETATM   13  C17 UNL     1      -5.165   3.500  12.256  1.00  0.00     0.068 A 
HETATM   14  H6  UNL     1      -3.189   2.275  10.009  1.00  0.00     0.170 HD
ENDROOT
BRANCH   1  15
HETATM   15  C4  UNL     1      -3.087   6.653  13.045  1.00  0.00     0.034 A 
HETATM   16  C3  UNL     1      -3.231   8.001  13.331  1.00  0.00     0.038 A 
HETATM   17  C2  UNL     1      -1.948   8.613  13.310  1.00  0.00    -0.028 A 
HETATM   18  C1  UNL     1      -1.645  10.042  13.585  1.00  0.00     0.050 C 
HETATM   19  C18 UNL     1      -1.042   7.615  12.981  1.00  0.00     0.107 A 
HETATM   20  N5  UNL     1      -1.744   6.439  12.862  1.00  0.00    -0.351 N 
HETATM   21  H12 UNL     1      -1.310   5.551  12.624  1.00  0.00     0.166 HD
BRANCH  19  22
HETATM   22  C19 UNL     1       0.394   7.682  12.824  1.00  0.00     0.271 C 
HETATM   23  O2  UNL     1       1.144   7.607  13.793  1.00  0.00    -0.266 OA
HETATM   24  N6  UNL     1       0.871   7.813  11.524  1.00  0.00    -0.343 N 
HETATM   25  C20 UNL     1       0.030   7.813  10.322  1.00  0.00     0.156 C 
HETATM   26  C24 UNL     1       2.317   7.805  11.294  1.00  0.00     0.156 C 
HETATM   27  C21 UNL     1       0.781   8.362   9.096  1.00  0.00     0.291 C 
HETATM   28  N7  UNL     1       2.003   7.602   8.772  1.00  0.00     0.087 N 
HETATM   29  C22 UNL     1       2.892   8.387   7.920  1.00  0.00     0.310 C 
HETATM   30  C23 UNL     1       2.693   7.099   9.978  1.00  0.00     0.291 C 
ENDBRANCH  19  22
ENDBRANCH   1  15
BRANCH  12  31
HETATM   31  N4  UNL     1      -6.701   4.117  14.023  1.00  0.00    -0.342 N 
HETATM   32  H8  UNL     1      -6.732   3.563  14.875  1.00  0.00     0.167 HD
BRANCH  31  33
HETATM   33  C11 UNL     1      -7.674   5.143  14.045  1.00  0.00     0.035 A 
HETATM   34  C12 UNL     1      -8.515   5.304  12.928  1.00  0.00     0.032 A 
HETATM   35  C13 UNL     1      -9.530   6.264  12.922  1.00  0.00     0.046 A 
HETATM   36  C14 UNL     1      -9.732   7.056  14.045  1.00  0.00     0.138 A 
HETATM   37  F1  UNL     1     -10.710   7.972  14.020  1.00  0.00    -0.204 F 
HETATM   38  C15 UNL     1      -8.940   6.885  15.177  1.00  0.00     0.074 A 
HETATM   39 CL1  UNL     1      -9.203   7.846  16.583  1.00  0.00    -0.081 Cl
HETATM   40  C16 UNL     1      -7.927   5.925  15.181  1.00  0.00     0.056 A 
ENDBRANCH  31  33
ENDBRANCH  12  31
TORSDOF 4
ENDMDL
MODEL 3
REMARK minimizedAffinity -10.4843559
REMARK  4 active torsions:
REMARK  status: ('A' for Active; 'I' for Inactive)
REMARK    1  A    between atoms: C4_4  and  C5_5 
REMARK    2  A    between atoms: C10_16  and  N4_17 
REMARK    3  A    between atoms: N4_17  and  C11_18 
REMARK    4  A    between atoms: C18_28  and  C19_29 
REMARK       I    between atoms: C19_29  and  N6_31 
ROOT
HETATM    1  C5  UNL     1      -3.454   4.719  13.053  1.00  0.00     0.047 C 
HETATM    2  C6  UNL     1      -4.119   3.645  12.596  1.00  0.00     0.052 A 
HETATM    3  C7  UNL     1      -3.617   2.477  11.781  1.00  0.00     0.258 A 
HETATM    4  O1  UNL     1      -2.472   2.208  11.474  1.00  0.00    -0.267 OA
HETATM    5  N1  UNL     1      -4.739   1.750  11.455  1.00  0.00    -0.308 N 
HETATM    6  C8  UNL     1      -5.884   2.301  12.007  1.00  0.00     0.124 A 
HETATM    7  N2  UNL     1      -7.089   1.762  11.849  1.00  0.00    -0.338 N 
ATOM      8  H2  UNL     1      -7.263   0.925  11.293  1.00  0.00     0.168 HD
HETATM    9  C9  UNL     1      -8.049   2.433  12.493  1.00  0.00     0.183 A 
HETATM   10  N3  UNL     1      -7.876   3.530  13.258  1.00  0.00    -0.338 N 
ATOM     11  H3  UNL     1      -8.669   3.975  13.719  1.00  0.00     0.168 HD
HETATM   12  C10 UNL     1      -6.627   4.026  13.400  1.00  0.00     0.121 A 
HETATM   13  C17 UNL     1      -5.573   3.433  12.741  1.00  0.00     0.068 A 
HETATM   14  H6  UNL     1      -4.736   0.904  10.909  1.00  0.00     0.170 HD
ENDROOT
BRANCH   1  15
HETATM   15  C4  UNL     1      -2.073   5.042  12.955  1.00  0.00     0.034 A 
HETATM   16  C3  UNL     1      -1.248   5.702  13.850  1.00  0.00     0.038 A 
HETATM   17  C2  UNL     1       0.067   5.752  13.309  1.00  0.00    -0.028 A 
HETATM   18  C1  UNL     1       1.265   6.351  13.953  1.00  0.00     0.050 C 
HETATM   19  C18 UNL     1       0.005   5.136  12.068  1.00  0.00     0.107 A 
HETATM   20  N5  UNL     1      -1.282   4.685  11.891  1.00  0.00    -0.351 N 
HETATM   21  H12 UNL     1      -1.592   4.196  11.056  1.00  0.00     0.166 HD
BRANCH  19  22
HETATM   22  C19 UNL     1       1.048   4.909  11.094  1.00  0.00     0.271 C 
HETATM   23  O2  UNL     1       1.561   3.802  10.956  1.00  0.00    -0.266 OA
HETATM   24  N6  UNL     1       1.420   6.000  10.315  1.00  0.00    -0.343 N 
HETATM   25  C20 UNL     1       0.779   7.320  10.368  1.00  0.00     0.156 C 
HETATM   26  C24 UNL     1       2.413   5.813   9.256  1.00  0.00     0.156 C 
HETATM   27  C21 UNL     1       1.642   8.403   9.698  1.00  0.00     0.291 C 
HETATM   28  N7  UNL     1       1.939   8.121   8.281  1.00  0.00     0.087 N 
HETATM   29  C22 UNL     1       3.083   8.903   7.823  1.00  0.00     0.310 C 
HETATM   30  C23 UNL     1       2.113   6.677   8.017  1.00  0.00     0.291 C 
ENDBRANCH  19  22
ENDBRANCH   1  15
BRANCH  12  31
HETATM   31  N4  UNL     1      -6.403   5.130  14.255  1.00  0.00    -0.342 N 
HETATM   32  H8  UNL     1      -5.639   4.905  14.888  1.00  0.00     0.167 HD
BRANCH  31  33
HETATM   33  C11 UNL     1      -7.359   5.961  14.883  1.00  0.00     0.035 A 
HETATM   34  C12 UNL     1      -7.147   6.351  16.219  1.00  0.00     0.032 A 
HETATM   35  C13 UNL     1      -8.033   7.216  16.867  1.00  0.00     0.046 A 
HETATM   36  C14 UNL     1      -9.125   7.724  16.175  1.00  0.00     0.138 A 
HETATM   37  F1  UNL     1      -9.963   8.553  16.814  1.00  0.00    -0.204 F 
HETATM   38  C15 UNL     1      -9.331   7.386  14.841  1.00  0.00     0.074 A 
HETATM   39 CL1  UNL     1     -10.670   8.034  13.970  1.00  0.00    -0.081 Cl
HETATM   40  C16 UNL     1      -8.445   6.522  14.195  1.00  0.00     0.056 A 
ENDBRANCH  31  33
ENDBRANCH  12  31
TORSDOF 4
ENDMDL
MODEL 4
REMARK minimizedAffinity -10.4496593
REMARK  4 active torsions:
REMARK  status: ('A' for Active; 'I' for Inactive)
REMARK    1  A    between atoms: C4_4  and  C5_5 
REMARK    2  A    between atoms: C10_16  and  N4_17 
REMARK    3  A    between atoms: N4_17  and  C11_18 
REMARK    4  A    between atoms: C18_28  and  C19_29 
REMARK       I    between atoms: C19_29  and  N6_31 
ROOT
HETATM    1  C5  UNL     1      -0.651   6.382  11.977  1.00  0.00     0.047 C 
HETATM    2  C6  UNL     1      -0.870   6.842  13.221  1.00  0.00     0.052 A 
HETATM    3  C7  UNL     1       0.042   7.632  14.130  1.00  0.00     0.258 A 
HETATM    4  O1  UNL     1       1.125   8.120  13.872  1.00  0.00    -0.267 OA
HETATM    5  N1  UNL     1      -0.616   7.700  15.336  1.00  0.00    -0.308 N 
HETATM    6  C8  UNL     1      -1.855   7.085  15.279  1.00  0.00     0.124 A 
HETATM    7  N2  UNL     1      -2.685   7.042  16.317  1.00  0.00    -0.338 N 
ATOM      8  H2  UNL     1      -2.463   7.434  17.232  1.00  0.00     0.168 HD
HETATM    9  C9  UNL     1      -3.841   6.432  16.036  1.00  0.00     0.183 A 
HETATM   10  N3  UNL     1      -4.198   5.916  14.843  1.00  0.00    -0.338 N 
ATOM     11  H3  UNL     1      -5.107   5.471  14.718  1.00  0.00     0.168 HD
HETATM   12  C10 UNL     1      -3.323   6.001  13.816  1.00  0.00     0.121 A 
HETATM   13  C17 UNL     1      -2.086   6.574  14.013  1.00  0.00     0.068 A 
HETATM   14  H6  UNL     1      -0.263   8.166  16.157  1.00  0.00     0.170 HD
ENDROOT
BRANCH   1  15
HETATM   15  C4  UNL     1       0.479   6.554  11.132  1.00  0.00     0.034 A 
HETATM   16  C3  UNL     1       0.608   7.274   9.956  1.00  0.00     0.038 A 
HETATM   17  C2  UNL     1       1.950   7.164   9.497  1.00  0.00    -0.028 A 
HETATM   18  C1  UNL     1       2.524   7.801   8.283  1.00  0.00     0.050 C 
HETATM   19  C18 UNL     1       2.610   6.347  10.403  1.00  0.00     0.107 A 
HETATM   20  N5  UNL     1       1.716   6.021  11.396  1.00  0.00    -0.351 N 
HETATM   21  H12 UNL     1       1.951   5.426  12.186  1.00  0.00     0.166 HD
BRANCH  19  22
HETATM   22  C19 UNL     1       3.986   5.907  10.423  1.00  0.00     0.271 C 
HETATM   23  O2  UNL     1       4.388   5.037   9.655  1.00  0.00    -0.266 OA
HETATM   24  N6  UNL     1       4.826   6.534  11.337  1.00  0.00    -0.343 N 
HETATM   25  C20 UNL     1       4.427   7.644  12.211  1.00  0.00     0.156 C 
HETATM   26  C24 UNL     1       6.248   6.190  11.349  1.00  0.00     0.156 C 
HETATM   27  C21 UNL     1       5.427   7.855  13.361  1.00  0.00     0.291 C 
HETATM   28  N7  UNL     1       6.799   8.139  12.897  1.00  0.00     0.087 N 
HETATM   29  C22 UNL     1       7.768   7.896  13.962  1.00  0.00     0.310 C 
HETATM   30  C23 UNL     1       7.140   7.406  11.660  1.00  0.00     0.291 C 
ENDBRANCH  19  22
ENDBRANCH   1  15
BRANCH  12  31
HETATM   31  N4  UNL     1      -3.698   5.536  12.534  1.00  0.00    -0.342 N 
HETATM   32  H8  UNL     1      -4.022   6.326  11.980  1.00  0.00     0.167 HD
BRANCH  31  33
HETATM   33  C11 UNL     1      -4.401   4.355  12.200  1.00  0.00     0.035 A 
HETATM   34  C12 UNL     1      -3.699   3.295  11.598  1.00  0.00     0.032 A 
HETATM   35  C13 UNL     1      -4.333   2.087  11.301  1.00  0.00     0.046 A 
HETATM   36  C14 UNL     1      -5.673   1.916  11.629  1.00  0.00     0.138 A 
HETATM   37  F1  UNL     1      -6.264   0.749  11.335  1.00  0.00    -0.204 F 
HETATM   38  C15 UNL     1      -6.376   2.936  12.263  1.00  0.00     0.074 A 
HETATM   39 CL1  UNL     1      -8.030   2.721  12.697  1.00  0.00    -0.081 Cl
HETATM   40  C16 UNL     1      -5.740   4.143  12.560  1.00  0.00     0.056 A 
ENDBRANCH  31  33
ENDBRANCH  12  31
TORSDOF 4
ENDMDL
MODEL 5
REMARK minimizedAffinity -10.0560093
REMARK  4 active torsions:
REMARK  status: ('A' for Active; 'I' for Inactive)
REMARK    1  A    between atoms: C4_4  and  C5_5 
REMARK    2  A    between atoms: C10_16  and  N4_17 
REMARK    3  A    between atoms: N4_17  and  C11_18 
REMARK    4  A    between atoms: C18_28  and  C19_29 
REMARK       I    between atoms: C19_29  and  N6_31 
ROOT
HETATM    1  C5  UNL     1      -2.371   5.447  11.934  1.00  0.00     0.047 C 
HETATM    2  C6  UNL     1      -2.657   4.151  11.722  1.00  0.00     0.052 A 
HETATM    3  C7  UNL     1      -1.782   3.051  11.168  1.00  0.00     0.258 A 
HETATM    4  O1  UNL     1      -0.594   3.089  10.913  1.00  0.00    -0.267 OA
HETATM    5  N1  UNL     1      -2.614   1.965  11.015  1.00  0.00    -0.308 N 
HETATM    6  C8  UNL     1      -3.899   2.240  11.450  1.00  0.00     0.124 A 
HETATM    7  N2  UNL     1      -4.876   1.338  11.423  1.00  0.00    -0.338 N 
ATOM      8  H2  UNL     1      -4.758   0.393  11.059  1.00  0.00     0.168 HD
HETATM    9  C9  UNL     1      -6.026   1.801  11.921  1.00  0.00     0.183 A 
HETATM   10  N3  UNL     1      -6.234   3.030  12.434  1.00  0.00    -0.338 N 
ATOM     11  H3  UNL     1      -7.149   3.295  12.799  1.00  0.00     0.168 HD
HETATM   12  C10 UNL     1      -5.202   3.903  12.454  1.00  0.00     0.121 A 
HETATM   13  C17 UNL     1      -3.984   3.539  11.924  1.00  0.00     0.068 A 
HETATM   14  H6  UNL     1      -2.326   1.067  10.661  1.00  0.00     0.170 HD
ENDROOT
BRANCH   1  15
HETATM   15  C4  UNL     1      -1.149   6.149  11.755  1.00  0.00     0.034 A 
HETATM   16  C3  UNL     1      -0.803   7.440  12.118  1.00  0.00     0.038 A 
HETATM   17  C2  UNL     1       0.551   7.672  11.750  1.00  0.00    -0.028 A 
HETATM   18  C1  UNL     1       1.328   8.918  11.977  1.00  0.00     0.050 C 
HETATM   19  C18 UNL     1       0.997   6.509  11.138  1.00  0.00     0.107 A 
HETATM   20  N5  UNL     1      -0.029   5.595  11.184  1.00  0.00    -0.351 N 
HETATM   21  H12 UNL     1       0.041   4.657  10.800  1.00  0.00     0.166 HD
BRANCH  19  22
HETATM   22  C19 UNL     1       2.291   6.196  10.577  1.00  0.00     0.271 C 
HETATM   23  O2  UNL     1       2.395   5.611   9.502  1.00  0.00    -0.266 OA
HETATM   24  N6  UNL     1       3.402   6.609  11.306  1.00  0.00    -0.343 N 
HETATM   25  C20 UNL     1       3.341   7.392  12.545  1.00  0.00     0.156 C 
HETATM   26  C24 UNL     1       4.738   6.392  10.751  1.00  0.00     0.156 C 
HETATM   27  C21 UNL     1       4.674   7.355  13.313  1.00  0.00     0.291 C 
HETATM   28  N7  UNL     1       5.814   7.867  12.530  1.00  0.00     0.087 N 
HETATM   29  C22 UNL     1       7.081   7.416  13.099  1.00  0.00     0.310 C 
HETATM   30  C23 UNL     1       5.705   7.541  11.093  1.00  0.00     0.291 C 
ENDBRANCH  19  22
ENDBRANCH   1  15
BRANCH  12  31
HETATM   31  N4  UNL     1      -5.368   5.173  13.054  1.00  0.00    -0.342 N 
HETATM   32  H8  UNL     1      -4.461   5.510  13.365  1.00  0.00     0.167 HD
BRANCH  31  33
HETATM   33  C11 UNL     1      -6.399   5.605  13.920  1.00  0.00     0.035 A 
HETATM   34  C12 UNL     1      -6.107   5.789  15.284  1.00  0.00     0.032 A 
HETATM   35  C13 UNL     1      -7.074   6.269  16.171  1.00  0.00     0.046 A 
HETATM   36  C14 UNL     1      -8.338   6.598  15.696  1.00  0.00     0.138 A 
HETATM   37  F1  UNL     1      -9.252   7.056  16.562  1.00  0.00    -0.204 F 
HETATM   38  C15 UNL     1      -8.636   6.464  14.343  1.00  0.00     0.074 A 
HETATM   39 CL1  UNL     1     -10.193   6.894  13.743  1.00  0.00    -0.081 Cl
HETATM   40  C16 UNL     1      -7.668   5.984  13.458  1.00  0.00     0.056 A 
ENDBRANCH  31  33
ENDBRANCH  12  31
TORSDOF 4
ENDMDL
MODEL 6
REMARK minimizedAffinity -9.93309021
REMARK  4 active torsions:
REMARK  status: ('A' for Active; 'I' for Inactive)
REMARK    1  A    between atoms: C4_4  and  C5_5 
REMARK    2  A    between atoms: C10_16  and  N4_17 
REMARK    3  A    between atoms: N4_17  and  C11_18 
REMARK    4  A    between atoms: C18_28  and  C19_29 
REMARK       I    between atoms: C19_29  and  N6_31 
ROOT
HETATM    1  C5  UNL     1      -2.677   5.379  12.590  1.00  0.00     0.047 C 
HETATM    2  C6  UNL     1      -2.864   4.134  12.121  1.00  0.00     0.052 A 
HETATM    3  C7  UNL     1      -1.881   3.195  11.463  1.00  0.00     0.258 A 
HETATM    4  O1  UNL     1      -0.680   3.332  11.332  1.00  0.00    -0.267 OA
HETATM    5  N1  UNL     1      -2.629   2.121  11.038  1.00  0.00    -0.308 N 
HETATM    6  C8  UNL     1      -3.961   2.254  11.392  1.00  0.00     0.124 A 
HETATM    7  N2  UNL     1      -4.876   1.331  11.110  1.00  0.00    -0.338 N 
ATOM      8  H2  UNL     1      -4.671   0.476  10.594  1.00  0.00     0.168 HD
HETATM    9  C9  UNL     1      -6.091   1.642  11.572  1.00  0.00     0.183 A 
HETATM   10  N3  UNL     1      -6.415   2.745  12.277  1.00  0.00    -0.338 N 
ATOM     11  H3  UNL     1      -7.372   2.897  12.596  1.00  0.00     0.168 HD
HETATM   12  C10 UNL     1      -5.443   3.643  12.552  1.00  0.00     0.121 A 
HETATM   13  C17 UNL     1      -4.165   3.437  12.083  1.00  0.00     0.068 A 
HETATM   14  H6  UNL     1      -2.259   1.318  10.557  1.00  0.00     0.170 HD
ENDROOT
BRANCH   1  15
HETATM   15  C4  UNL     1      -1.488   6.155  12.657  1.00  0.00     0.034 A 
HETATM   16  C3  UNL     1      -0.819   6.845  11.660  1.00  0.00     0.038 A 
HETATM   17  C2  UNL     1       0.309   7.496  12.232  1.00  0.00    -0.028 A 
HETATM   18  C1  UNL     1       1.284   8.363  11.519  1.00  0.00     0.050 C 
HETATM   19  C18 UNL     1       0.316   7.161  13.577  1.00  0.00     0.107 A 
HETATM   20  N5  UNL     1      -0.792   6.384  13.818  1.00  0.00    -0.351 N 
HETATM   21  H12 UNL     1      -1.019   6.004  14.733  1.00  0.00     0.166 HD
BRANCH  19  22
HETATM   22  C19 UNL     1       1.235   7.548  14.623  1.00  0.00     0.271 C 
HETATM   23  O2  UNL     1       2.375   7.094  14.670  1.00  0.00    -0.266 OA
HETATM   24  N6  UNL     1       0.766   8.471  15.552  1.00  0.00    -0.343 N 
HETATM   25  C20 UNL     1      -0.549   9.119  15.494  1.00  0.00     0.156 C 
HETATM   26  C24 UNL     1       1.676   8.964  16.588  1.00  0.00     0.156 C 
HETATM   27  C21 UNL     1      -0.929   9.768  16.836  1.00  0.00     0.291 C 
HETATM   28  N7  UNL     1       0.037  10.787  17.287  1.00  0.00     0.087 N 
HETATM   29  C22 UNL     1      -0.108  11.046  18.716  1.00  0.00     0.310 C 
HETATM   30  C23 UNL     1       1.429  10.446  16.924  1.00  0.00     0.291 C 
ENDBRANCH  19  22
ENDBRANCH   1  15
BRANCH  12  31
HETATM   31  N4  UNL     1      -5.736   4.771  13.353  1.00  0.00    -0.342 N 
HETATM   32  H8  UNL     1      -5.254   4.676  14.243  1.00  0.00     0.167 HD
BRANCH  31  33
HETATM   33  C11 UNL     1      -6.974   5.437  13.511  1.00  0.00     0.035 A 
HETATM   34  C12 UNL     1      -7.903   5.402  12.455  1.00  0.00     0.032 A 
HETATM   35  C13 UNL     1      -9.162   5.995  12.581  1.00  0.00     0.046 A 
HETATM   36  C14 UNL     1      -9.515   6.606  13.778  1.00  0.00     0.138 A 
HETATM   37  F1  UNL     1     -10.727   7.170  13.880  1.00  0.00    -0.204 F 
HETATM   38  C15 UNL     1      -8.628   6.616  14.851  1.00  0.00     0.074 A 
HETATM   39 CL1  UNL     1      -9.070   7.349  16.346  1.00  0.00    -0.081 Cl
HETATM   40  C16 UNL     1      -7.371   6.023  14.722  1.00  0.00     0.056 A 
ENDBRANCH  31  33
ENDBRANCH  12  31
TORSDOF 4
ENDMDL
MODEL 7
REMARK minimizedAffinity -9.92516136
REMARK  4 active torsions:
REMARK  status: ('A' for Active; 'I' for Inactive)
REMARK    1  A    between atoms: C4_4  and  C5_5 
REMARK    2  A    between atoms: C10_16  and  N4_17 
REMARK    3  A    between atoms: N4_17  and  C11_18 
REMARK    4  A    between atoms: C18_28  and  C19_29 
REMARK       I    between atoms: C19_29  and  N6_31 
ROOT
HETATM    1  C5  UNL     1      -2.862   5.726  14.276  1.00  0.00     0.047 C 
HETATM    2  C6  UNL     1      -1.602   5.816  13.816  1.00  0.00     0.052 A 
HETATM    3  C7  UNL     1      -1.005   5.280  12.536  1.00  0.00     0.258 A 
HETATM    4  O1  UNL     1      -1.575   4.757  11.599  1.00  0.00    -0.267 OA
HETATM    5  N1  UNL     1       0.347   5.514  12.639  1.00  0.00    -0.308 N 
HETATM    6  C8  UNL     1       0.664   6.176  13.813  1.00  0.00     0.124 A 
HETATM    7  N2  UNL     1       1.907   6.532  14.125  1.00  0.00    -0.338 N 
ATOM      8  H2  UNL     1       2.716   6.323  13.540  1.00  0.00     0.168 HD
HETATM    9  C9  UNL     1       1.985   7.190  15.285  1.00  0.00     0.183 A 
HETATM   10  N3  UNL     1       0.951   7.513  16.088  1.00  0.00    -0.338 N 
ATOM     11  H3  UNL     1       1.105   8.025  16.957  1.00  0.00     0.168 HD
HETATM   12  C10 UNL     1      -0.294   7.142  15.715  1.00  0.00     0.121 A 
HETATM   13  C17 UNL     1      -0.478   6.421  14.556  1.00  0.00     0.068 A 
HETATM   14  H6  UNL     1       1.027   5.268  11.938  1.00  0.00     0.170 HD
ENDROOT
BRANCH   1  15
HETATM   15  C4  UNL     1      -4.011   5.151  13.670  1.00  0.00     0.034 A 
HETATM   16  C3  UNL     1      -4.154   3.951  12.993  1.00  0.00     0.038 A 
HETATM   17  C2  UNL     1      -5.512   3.806  12.599  1.00  0.00    -0.028 A 
HETATM   18  C1  UNL     1      -6.103   2.653  11.870  1.00  0.00     0.050 C 
HETATM   19  C18 UNL     1      -6.170   4.949  13.027  1.00  0.00     0.107 A 
HETATM   20  N5  UNL     1      -5.257   5.727  13.700  1.00  0.00    -0.351 N 
HETATM   21  H12 UNL     1      -5.487   6.625  14.115  1.00  0.00     0.166 HD
BRANCH  19  22
HETATM   22  C19 UNL     1      -7.560   5.323  12.894  1.00  0.00     0.271 C 
HETATM   23  O2  UNL     1      -8.298   4.758  12.093  1.00  0.00    -0.266 OA
HETATM   24  N6  UNL     1      -8.013   6.337  13.733  1.00  0.00    -0.343 N 
HETATM   25  C20 UNL     1      -7.205   6.983  14.773  1.00  0.00     0.156 C 
HETATM   26  C24 UNL     1      -9.430   6.704  13.702  1.00  0.00     0.156 C 
HETATM   27  C21 UNL     1      -7.835   8.303  15.251  1.00  0.00     0.291 C 
HETATM   28  N7  UNL     1      -9.195   8.136  15.799  1.00  0.00     0.087 N 
HETATM   29  C22 UNL     1      -9.906   9.411  15.823  1.00  0.00     0.310 C 
HETATM   30  C23 UNL     1      -9.963   7.087  15.095  1.00  0.00     0.291 C 
ENDBRANCH  19  22
ENDBRANCH   1  15
BRANCH  12  31
HETATM   31  N4  UNL     1      -1.406   7.531  16.498  1.00  0.00    -0.342 N 
HETATM   32  H8  UNL     1      -2.027   6.733  16.605  1.00  0.00     0.167 HD
BRANCH  31  33
HETATM   33  C11 UNL     1      -2.135   8.742  16.446  1.00  0.00     0.035 A 
HETATM   34  C12 UNL     1      -2.622   9.188  15.203  1.00  0.00     0.032 A 
HETATM   35  C13 UNL     1      -3.396  10.347  15.106  1.00  0.00     0.046 A 
HETATM   36  C14 UNL     1      -3.714  11.058  16.256  1.00  0.00     0.138 A 
HETATM   37  F1  UNL     1      -4.457  12.168  16.143  1.00  0.00    -0.204 F 
HETATM   38  C15 UNL     1      -3.279  10.612  17.501  1.00  0.00     0.074 A 
HETATM   39 CL1  UNL     1      -3.692  11.475  18.934  1.00  0.00    -0.081 Cl
HETATM   40  C16 UNL     1      -2.506   9.453  17.596  1.00  0.00     0.056 A 
ENDBRANCH  31  33
ENDBRANCH  12  31
TORSDOF 4
ENDMDL
MODEL 8
REMARK minimizedAffinity -9.92447662
REMARK  4 active torsions:
REMARK  status: ('A' for Active; 'I' for Inactive)
REMARK    1  A    between atoms: C4_4  and  C5_5 
REMARK    2  A    between atoms: C10_16  and  N4_17 
REMARK    3  A    between atoms: N4_17  and  C11_18 
REMARK    4  A    between atoms: C18_28  and  C19_29 
REMARK       I    between atoms: C19_29  and  N6_31 
ROOT
HETATM    1  C5  UNL     1      -4.274   5.103  13.504  1.00  0.00     0.047 C 
HETATM    2  C6  UNL     1      -4.197   4.066  12.653  1.00  0.00     0.052 A 
HETATM    3  C7  UNL     1      -3.073   3.660  11.730  1.00  0.00     0.258 A 
HETATM    4  O1  UNL     1      -1.952   4.125  11.656  1.00  0.00    -0.267 OA
HETATM    5  N1  UNL     1      -3.577   2.626  10.974  1.00  0.00    -0.308 N 
HETATM    6  C8  UNL     1      -4.871   2.304  11.345  1.00  0.00     0.124 A 
HETATM    7  N2  UNL     1      -5.560   1.322  10.773  1.00  0.00    -0.338 N 
ATOM      8  H2  UNL     1      -5.200   0.753  10.007  1.00  0.00     0.168 HD
HETATM    9  C9  UNL     1      -6.775   1.158  11.306  1.00  0.00     0.183 A 
HETATM   10  N3  UNL     1      -7.296   1.862  12.330  1.00  0.00    -0.338 N 
ATOM     11  H3  UNL     1      -8.235   1.663  12.677  1.00  0.00     0.168 HD
HETATM   12  C10 UNL     1      -6.546   2.839  12.888  1.00  0.00     0.121 A 
HETATM   13  C17 UNL     1      -5.295   3.117  12.383  1.00  0.00     0.068 A 
HETATM   14  H6  UNL     1      -3.065   2.135  10.258  1.00  0.00     0.170 HD
ENDROOT
BRANCH   1  15
HETATM   15  C4  UNL     1      -3.301   6.087  13.826  1.00  0.00     0.034 A 
HETATM   16  C3  UNL     1      -2.879   6.550  15.061  1.00  0.00     0.038 A 
HETATM   17  C2  UNL     1      -1.857   7.519  14.863  1.00  0.00    -0.028 A 
HETATM   18  C1  UNL     1      -1.114   8.250  15.922  1.00  0.00     0.050 C 
HETATM   19  C18 UNL     1      -1.697   7.646  13.491  1.00  0.00     0.107 A 
HETATM   20  N5  UNL     1      -2.549   6.751  12.888  1.00  0.00    -0.351 N 
HETATM   21  H12 UNL     1      -2.626   6.645  11.880  1.00  0.00     0.166 HD
BRANCH  19  22
HETATM   22  C19 UNL     1      -0.795   8.487  12.737  1.00  0.00     0.271 C 
HETATM   23  O2  UNL     1      -1.061   9.664  12.511  1.00  0.00    -0.266 OA
HETATM   24  N6  UNL     1       0.389   7.898  12.305  1.00  0.00    -0.343 N 
HETATM   25  C20 UNL     1       0.803   6.527  12.624  1.00  0.00     0.156 C 
HETATM   26  C24 UNL     1       1.378   8.721  11.608  1.00  0.00     0.156 C 
HETATM   27  C21 UNL     1       1.934   6.041  11.701  1.00  0.00     0.291 C 
HETATM   28  N7  UNL     1       3.142   6.886  11.762  1.00  0.00     0.087 N 
HETATM   29  C22 UNL     1       3.988   6.669  10.592  1.00  0.00     0.310 C 
HETATM   30  C23 UNL     1       2.823   8.316  11.957  1.00  0.00     0.291 C 
ENDBRANCH  19  22
ENDBRANCH   1  15
BRANCH  12  31
HETATM   31  N4  UNL     1      -7.035   3.545  14.012  1.00  0.00    -0.342 N 
HETATM   32  H8  UNL     1      -7.329   2.874  14.718  1.00  0.00     0.167 HD
BRANCH  31  33
HETATM   33  C11 UNL     1      -7.849   4.701  14.035  1.00  0.00     0.035 A 
HETATM   34  C12 UNL     1      -7.839   5.515  15.182  1.00  0.00     0.032 A 
HETATM   35  C13 UNL     1      -8.580   6.698  15.234  1.00  0.00     0.046 A 
HETATM   36  C14 UNL     1      -9.319   7.094  14.126  1.00  0.00     0.138 A 
HETATM   37  F1  UNL     1     -10.024   8.232  14.195  1.00  0.00    -0.204 F 
HETATM   38  C15 UNL     1      -9.310   6.326  12.965  1.00  0.00     0.074 A 
HETATM   39 CL1  UNL     1     -10.203   6.825  11.578  1.00  0.00    -0.081 Cl
HETATM   40  C16 UNL     1      -8.568   5.145  12.915  1.00  0.00     0.056 A 
ENDBRANCH  31  33
ENDBRANCH  12  31
TORSDOF 4
ENDMDL
MODEL 9
REMARK minimizedAffinity -9.85052776
REMARK  4 active torsions:
REMARK  status: ('A' for Active; 'I' for Inactive)
REMARK    1  A    between atoms: C4_4  and  C5_5 
REMARK    2  A    between atoms: C10_16  and  N4_17 
REMARK    3  A    between atoms: N4_17  and  C11_18 
REMARK    4  A    between atoms: C18_28  and  C19_29 
REMARK       I    between atoms: C19_29  and  N6_31 
ROOT
HETATM    1  C5  UNL     1       0.268   5.296  12.645  1.00  0.00     0.047 C 
HETATM    2  C6  UNL     1       0.251   6.034  13.768  1.00  0.00     0.052 A 
HETATM    3  C7  UNL     1      -0.751   6.043  14.898  1.00  0.00     0.258 A 
HETATM    4  O1  UNL     1      -1.689   5.291  15.080  1.00  0.00    -0.267 OA
HETATM    5  N1  UNL     1      -0.378   7.091  15.708  1.00  0.00    -0.308 N 
HETATM    6  C8  UNL     1       0.768   7.714  15.244  1.00  0.00     0.124 A 
HETATM    7  N2  UNL     1       1.334   8.740  15.872  1.00  0.00    -0.338 N 
ATOM      8  H2  UNL     1       0.955   9.158  16.722  1.00  0.00     0.168 HD
HETATM    9  C9  UNL     1       2.450   9.167  15.273  1.00  0.00     0.183 A 
HETATM   10  N3  UNL     1       3.008   8.642  14.164  1.00  0.00    -0.338 N 
ATOM     11  H3  UNL     1       3.868   9.032  13.779  1.00  0.00     0.168 HD
HETATM   12  C10 UNL     1       2.401   7.588  13.574  1.00  0.00     0.121 A 
HETATM   13  C17 UNL     1       1.221   7.099  14.088  1.00  0.00     0.068 A 
HETATM   14  H6  UNL     1      -0.854   7.360  16.554  1.00  0.00     0.170 HD
ENDROOT
BRANCH   1  15
HETATM   15  C4  UNL     1      -0.617   4.269  12.220  1.00  0.00     0.034 A 
HETATM   16  C3  UNL     1      -0.341   2.998  11.742  1.00  0.00     0.038 A 
HETATM   17  C2  UNL     1      -1.569   2.331  11.478  1.00  0.00    -0.028 A 
HETATM   18  C1  UNL     1      -1.730   0.942  10.976  1.00  0.00     0.050 C 
HETATM   19  C18 UNL     1      -2.579   3.233  11.780  1.00  0.00     0.107 A 
HETATM   20  N5  UNL     1      -1.985   4.377  12.258  1.00  0.00    -0.351 N 
HETATM   21  H12 UNL     1      -2.508   5.198  12.551  1.00  0.00     0.166 HD
BRANCH  19  22
HETATM   22  C19 UNL     1      -4.013   3.079  11.699  1.00  0.00     0.271 C 
HETATM   23  O2  UNL     1      -4.520   2.153  11.071  1.00  0.00    -0.266 OA
HETATM   24  N6  UNL     1      -4.779   4.017  12.383  1.00  0.00    -0.343 N 
HETATM   25  C20 UNL     1      -4.231   5.087  13.225  1.00  0.00     0.156 C 
HETATM   26  C24 UNL     1      -6.235   3.868  12.405  1.00  0.00     0.156 C 
HETATM   27  C21 UNL     1      -5.275   6.178  13.518  1.00  0.00     0.291 C 
HETATM   28  N7  UNL     1      -6.482   5.666  14.195  1.00  0.00     0.087 N 
HETATM   29  C22 UNL     1      -7.593   6.602  14.056  1.00  0.00     0.310 C 
HETATM   30  C23 UNL     1      -6.845   4.305  13.750  1.00  0.00     0.291 C 
ENDBRANCH  19  22
ENDBRANCH   1  15
BRANCH  12  31
HETATM   31  N4  UNL     1       3.002   6.969  12.453  1.00  0.00    -0.342 N 
HETATM   32  H8  UNL     1       4.012   6.990  12.569  1.00  0.00     0.167 HD
BRANCH  31  33
HETATM   33  C11 UNL     1       2.642   7.082  11.090  1.00  0.00     0.035 A 
HETATM   34  C12 UNL     1       3.353   6.333  10.136  1.00  0.00     0.032 A 
HETATM   35  C13 UNL     1       3.000   6.365   8.784  1.00  0.00     0.046 A 
HETATM   36  C14 UNL     1       1.912   7.128   8.377  1.00  0.00     0.138 A 
HETATM   37  F1  UNL     1       1.589   7.146   7.076  1.00  0.00    -0.204 F 
HETATM   38  C15 UNL     1       1.168   7.843   9.310  1.00  0.00     0.074 A 
HETATM   39 CL1  UNL     1      -0.198   8.770   8.816  1.00  0.00    -0.081 Cl
HETATM   40  C16 UNL     1       1.522   7.810  10.660  1.00  0.00     0.056 A 
ENDBRANCH  31  33
ENDBRANCH  12  31
TORSDOF 4
ENDMDL
