MODEL 1
REMARK minimizedAffinity -7.88333893
REMARK  4 active torsions:
REMARK  status: ('A' for Active; 'I' for Inactive)
REMARK    1  A    between atoms: N1_1  and  C1_2 
REMARK    2  A    between atoms: C1_2  and  N2_4 
REMARK    3  A    between atoms: C2_7  and  C3_8 
REMARK    4  A    between atoms: C10_17  and  C11_18 
ROOT
HETATM    1  N2  UNL     1      14.533  35.091  17.815  1.00  0.00    -0.258 N 
HETATM    2  N3  UNL     1      13.492  34.842  18.681  1.00  0.00    -0.299 N 
ATOM      3  H3  UNL     1      13.558  34.366  19.581  1.00  0.00     0.187 HD
HETATM    4  C2  UNL     1      12.413  35.324  18.146  1.00  0.00     0.038 C 
HETATM    5  C9  UNL     1      12.587  35.920  16.777  1.00  0.00     0.091 C 
HETATM    6  C10 UNL     1      14.107  35.902  16.664  1.00  0.00     0.149 C 
ENDROOT
BRANCH   6   7
HETATM    7  C11 UNL     1      14.680  37.310  16.666  1.00  0.00    -0.032 A 
HETATM    8  C12 UNL     1      14.731  38.087  17.832  1.00  0.00     0.010 A 
HETATM    9  C13 UNL     1      15.254  39.382  17.801  1.00  0.00     0.013 A 
HETATM   10  C14 UNL     1      15.732  39.935  16.605  1.00  0.00    -0.026 A 
HETATM   11  C15 UNL     1      16.261  41.235  16.560  1.00  0.00     0.012 A 
HETATM   12  C19 UNL     1      15.679  39.169  15.420  1.00  0.00    -0.025 A 
HETATM   13  C16 UNL     1      16.732  41.773  15.361  1.00  0.00     0.001 A 
HETATM   14  C17 UNL     1      16.679  41.018  14.193  1.00  0.00     0.001 A 
HETATM   15  C18 UNL     1      16.156  39.724  14.221  1.00  0.00     0.012 A 
HETATM   16  C20 UNL     1      15.151  37.867  15.465  1.00  0.00     0.021 A 
ENDBRANCH   6   7
BRANCH   1  17
HETATM   17  C1  UNL     1      15.779  34.532  18.025  1.00  0.00     0.187 C 
HETATM   18  S1  UNL     1      17.081  34.585  16.976  1.00  0.00    -0.040 SA
BRANCH  17  19
HETATM   19  N1  UNL     1      15.964  33.905  19.224  1.00  0.00    -0.375 N 
HETATM   20  H1  UNL     1      16.853  33.422  19.304  1.00  0.00     0.158 HD
HETATM   21  H2  UNL     1      15.188  33.384  19.610  1.00  0.00     0.158 HD
ENDBRANCH  17  19
ENDBRANCH   1  17
BRANCH   4  22
HETATM   22  C3  UNL     1      11.091  35.257  18.812  1.00  0.00    -0.010 A 
HETATM   23  C4  UNL     1      10.920  34.378  19.889  1.00  0.00     0.015 A 
HETATM   24  C5  UNL     1       9.687  34.289  20.541  1.00  0.00     0.026 A 
HETATM   25  C6  UNL     1       8.614  35.078  20.121  1.00  0.00     0.055 A 
HETATM   26 CL1  UNL     1       7.118  34.923  20.968  1.00  0.00    -0.083 Cl
HETATM   27  C7  UNL     1       8.781  35.956  19.043  1.00  0.00     0.056 A 
HETATM   28 CL2  UNL     1       7.499  36.962  18.465  1.00  0.00    -0.083 Cl
HETATM   29  C8  UNL     1      10.016  36.045  18.389  1.00  0.00     0.039 A 
ENDBRANCH   4  22
TORSDOF 4
ENDMDL
MODEL 2
REMARK minimizedAffinity -7.65236473
REMARK  4 active torsions:
REMARK  status: ('A' for Active; 'I' for Inactive)
REMARK    1  A    between atoms: N1_1  and  C1_2 
REMARK    2  A    between atoms: C1_2  and  N2_4 
REMARK    3  A    between atoms: C2_7  and  C3_8 
REMARK    4  A    between atoms: C10_17  and  C11_18 
ROOT
HETATM    1  N2  UNL     1      14.682  34.983  19.183  1.00  0.00    -0.258 N 
HETATM    2  N3  UNL     1      13.493  35.099  19.867  1.00  0.00    -0.299 N 
ATOM      3  H3  UNL     1      13.387  35.306  20.860  1.00  0.00     0.187 HD
HETATM    4  C2  UNL     1      12.531  34.897  19.020  1.00  0.00     0.038 C 
HETATM    5  C9  UNL     1      12.969  34.544  17.625  1.00  0.00     0.091 C 
HETATM    6  C10 UNL     1      14.468  34.794  17.740  1.00  0.00     0.149 C 
ENDROOT
BRANCH   6   7
HETATM    7  C11 UNL     1      14.897  35.988  16.901  1.00  0.00    -0.032 A 
HETATM    8  C12 UNL     1      14.395  37.276  17.134  1.00  0.00     0.010 A 
HETATM    9  C13 UNL     1      14.799  38.351  16.340  1.00  0.00     0.013 A 
HETATM   10  C14 UNL     1      15.710  38.166  15.290  1.00  0.00    -0.026 A 
HETATM   11  C15 UNL     1      16.125  39.238  14.484  1.00  0.00     0.012 A 
HETATM   12  C19 UNL     1      16.218  36.873  15.036  1.00  0.00    -0.025 A 
HETATM   13  C16 UNL     1      17.031  39.037  13.441  1.00  0.00     0.001 A 
HETATM   14  C17 UNL     1      17.531  37.763  13.190  1.00  0.00     0.001 A 
HETATM   15  C18 UNL     1      17.128  36.687  13.982  1.00  0.00     0.012 A 
HETATM   16  C20 UNL     1      15.802  35.800  15.843  1.00  0.00     0.021 A 
ENDBRANCH   6   7
BRANCH   1  17
HETATM   17  C1  UNL     1      15.887  34.961  19.857  1.00  0.00     0.187 C 
HETATM   18  S1  UNL     1      16.205  35.658  21.345  1.00  0.00    -0.040 SA
BRANCH  17  19
HETATM   19  N1  UNL     1      16.902  34.273  19.257  1.00  0.00    -0.375 N 
HETATM   20  H1  UNL     1      17.796  34.362  19.730  1.00  0.00     0.158 HD
HETATM   21  H2  UNL     1      16.974  34.320  18.249  1.00  0.00     0.158 HD
ENDBRANCH  17  19
ENDBRANCH   1  17
BRANCH   4  22
HETATM   22  C3  UNL     1      11.101  34.967  19.400  1.00  0.00    -0.010 A 
HETATM   23  C4  UNL     1      10.634  34.138  20.429  1.00  0.00     0.015 A 
HETATM   24  C5  UNL     1       9.291  34.177  20.815  1.00  0.00     0.026 A 
HETATM   25  C6  UNL     1       8.403  35.045  20.174  1.00  0.00     0.055 A 
HETATM   26 CL1  UNL     1       6.759  35.046  20.697  1.00  0.00    -0.083 Cl
HETATM   27  C7  UNL     1       8.866  35.872  19.144  1.00  0.00     0.056 A 
HETATM   28 CL2  UNL     1       7.827  36.969  18.304  1.00  0.00    -0.083 Cl
HETATM   29  C8  UNL     1      10.212  35.833  18.757  1.00  0.00     0.039 A 
ENDBRANCH   4  22
TORSDOF 4
ENDMDL
MODEL 3
REMARK minimizedAffinity -7.63907194
REMARK  4 active torsions:
REMARK  status: ('A' for Active; 'I' for Inactive)
REMARK    1  A    between atoms: N1_1  and  C1_2 
REMARK    2  A    between atoms: C1_2  and  N2_4 
REMARK    3  A    between atoms: C2_7  and  C3_8 
REMARK    4  A    between atoms: C10_17  and  C11_18 
ROOT
HETATM    1  N2  UNL     1      18.586  52.641   6.901  1.00  0.00    -0.258 N 
HETATM    2  N3  UNL     1      18.465  51.349   7.363  1.00  0.00    -0.299 N 
ATOM      3  H3  UNL     1      18.519  51.050   8.336  1.00  0.00     0.187 HD
HETATM    4  C2  UNL     1      18.269  50.582   6.335  1.00  0.00     0.038 C 
HETATM    5  C9  UNL     1      18.299  51.277   5.001  1.00  0.00     0.091 C 
HETATM    6  C10 UNL     1      18.339  52.731   5.454  1.00  0.00     0.149 C 
ENDROOT
BRANCH   6   7
HETATM    7  C11 UNL     1      17.051  53.458   5.100  1.00  0.00    -0.032 A 
HETATM    8  C12 UNL     1      15.794  52.961   5.475  1.00  0.00     0.010 A 
HETATM    9  C13 UNL     1      14.628  53.645   5.128  1.00  0.00     0.013 A 
HETATM   10  C14 UNL     1      14.686  54.838   4.392  1.00  0.00    -0.026 A 
HETATM   11  C15 UNL     1      13.520  55.536   4.036  1.00  0.00     0.012 A 
HETATM   12  C19 UNL     1      15.943  55.346   3.999  1.00  0.00    -0.025 A 
HETATM   13  C16 UNL     1      13.595  56.721   3.302  1.00  0.00     0.001 A 
HETATM   14  C17 UNL     1      14.834  57.222   2.915  1.00  0.00     0.001 A 
HETATM   15  C18 UNL     1      16.001  56.539   3.260  1.00  0.00     0.012 A 
HETATM   16  C20 UNL     1      17.110  54.648   4.356  1.00  0.00     0.021 A 
ENDBRANCH   6   7
BRANCH   1  17
HETATM   17  C1  UNL     1      18.987  53.659   7.744  1.00  0.00     0.187 C 
HETATM   18  S1  UNL     1      19.077  55.286   7.362  1.00  0.00    -0.040 SA
BRANCH  17  19
HETATM   19  N1  UNL     1      19.305  53.296   9.021  1.00  0.00    -0.375 N 
HETATM   20  H1  UNL     1      19.688  54.050   9.581  1.00  0.00     0.158 HD
HETATM   21  H2  UNL     1      19.781  52.413   9.156  1.00  0.00     0.158 HD
ENDBRANCH  17  19
ENDBRANCH   1  17
BRANCH   4  22
HETATM   22  C3  UNL     1      18.071  49.118   6.454  1.00  0.00    -0.010 A 
HETATM   23  C4  UNL     1      19.053  48.353   7.097  1.00  0.00     0.015 A 
HETATM   24  C5  UNL     1      18.899  46.970   7.228  1.00  0.00     0.026 A 
HETATM   25  C6  UNL     1      17.762  46.341   6.717  1.00  0.00     0.055 A 
HETATM   26 CL1  UNL     1      17.631  44.631   6.911  1.00  0.00    -0.083 Cl
HETATM   27  C7  UNL     1      16.780  47.102   6.072  1.00  0.00     0.056 A 
HETATM   28 CL2  UNL     1      15.348  46.393   5.412  1.00  0.00    -0.083 Cl
HETATM   29  C8  UNL     1      16.934  48.488   5.940  1.00  0.00     0.039 A 
ENDBRANCH   4  22
TORSDOF 4
ENDMDL
MODEL 4
REMARK minimizedAffinity -7.30428696
REMARK  4 active torsions:
REMARK  status: ('A' for Active; 'I' for Inactive)
REMARK    1  A    between atoms: N1_1  and  C1_2 
REMARK    2  A    between atoms: C1_2  and  N2_4 
REMARK    3  A    between atoms: C2_7  and  C3_8 
REMARK    4  A    between atoms: C10_17  and  C11_18 
ROOT
HETATM    1  N2  UNL     1      14.597  34.995  19.131  1.00  0.00    -0.258 N 
HETATM    2  N3  UNL     1      13.342  35.249  19.637  1.00  0.00    -0.299 N 
ATOM      3  H3  UNL     1      13.127  35.567  20.582  1.00  0.00     0.187 HD
HETATM    4  C2  UNL     1      12.483  35.011  18.695  1.00  0.00     0.038 C 
HETATM    5  C9  UNL     1      13.067  34.488  17.412  1.00  0.00     0.091 C 
HETATM    6  C10 UNL     1      14.554  34.665  17.698  1.00  0.00     0.149 C 
ENDROOT
BRANCH   6   7
HETATM    7  C11 UNL     1      15.165  35.736  16.808  1.00  0.00    -0.032 A 
HETATM    8  C12 UNL     1      15.956  35.412  15.697  1.00  0.00     0.010 A 
HETATM    9  C13 UNL     1      16.512  36.417  14.903  1.00  0.00     0.013 A 
HETATM   10  C14 UNL     1      16.299  37.770  15.203  1.00  0.00    -0.026 A 
HETATM   11  C15 UNL     1      16.853  38.791  14.413  1.00  0.00     0.012 A 
HETATM   12  C19 UNL     1      15.513  38.113  16.325  1.00  0.00    -0.025 A 
HETATM   13  C16 UNL     1      16.633  40.133  14.727  1.00  0.00     0.001 A 
HETATM   14  C17 UNL     1      15.859  40.472  15.832  1.00  0.00     0.001 A 
HETATM   15  C18 UNL     1      15.302  39.469  16.628  1.00  0.00     0.012 A 
HETATM   16  C20 UNL     1      14.959  37.091  17.115  1.00  0.00     0.021 A 
ENDBRANCH   6   7
BRANCH   1  17
HETATM   17  C1  UNL     1      15.704  34.979  19.957  1.00  0.00     0.187 C 
HETATM   18  S1  UNL     1      15.846  35.739  21.441  1.00  0.00    -0.040 SA
BRANCH  17  19
HETATM   19  N1  UNL     1      16.769  34.241  19.526  1.00  0.00    -0.375 N 
HETATM   20  H1  UNL     1      17.596  34.333  20.106  1.00  0.00     0.158 HD
HETATM   21  H2  UNL     1      16.972  34.238  18.535  1.00  0.00     0.158 HD
ENDBRANCH  17  19
ENDBRANCH   1  17
BRANCH   4  22
HETATM   22  C3  UNL     1      11.024  35.200  18.874  1.00  0.00    -0.010 A 
HETATM   23  C4  UNL     1      10.303  35.876  17.882  1.00  0.00     0.015 A 
HETATM   24  C5  UNL     1       8.926  36.072  18.017  1.00  0.00     0.026 A 
HETATM   25  C6  UNL     1       8.259  35.594  19.147  1.00  0.00     0.055 A 
HETATM   26 CL1  UNL     1       6.558  35.868  19.255  1.00  0.00    -0.083 Cl
HETATM   27  C7  UNL     1       8.977  34.920  20.142  1.00  0.00     0.056 A 
HETATM   28 CL2  UNL     1       8.220  34.302  21.568  1.00  0.00    -0.083 Cl
HETATM   29  C8  UNL     1      10.357  34.723  20.007  1.00  0.00     0.039 A 
ENDBRANCH   4  22
TORSDOF 4
ENDMDL
MODEL 5
REMARK minimizedAffinity -7.25912189
REMARK  4 active torsions:
REMARK  status: ('A' for Active; 'I' for Inactive)
REMARK    1  A    between atoms: N1_1  and  C1_2 
REMARK    2  A    between atoms: C1_2  and  N2_4 
REMARK    3  A    between atoms: C2_7  and  C3_8 
REMARK    4  A    between atoms: C10_17  and  C11_18 
ROOT
HETATM    1  N2  UNL     1      15.544  35.868  16.576  1.00  0.00    -0.258 N 
HETATM    2  N3  UNL     1      14.698  35.312  17.509  1.00  0.00    -0.299 N 
ATOM      3  H3  UNL     1      14.964  34.670  18.255  1.00  0.00     0.187 HD
HETATM    4  C2  UNL     1      13.502  35.753  17.267  1.00  0.00     0.038 C 
HETATM    5  C9  UNL     1      13.379  36.642  16.060  1.00  0.00     0.091 C 
HETATM    6  C10 UNL     1      14.851  36.841  15.718  1.00  0.00     0.149 C 
ENDROOT
BRANCH   6   7
HETATM    7  C11 UNL     1      15.284  38.279  15.955  1.00  0.00    -0.032 A 
HETATM    8  C12 UNL     1      15.102  38.913  17.192  1.00  0.00     0.010 A 
HETATM    9  C13 UNL     1      15.501  40.238  17.378  1.00  0.00     0.013 A 
HETATM   10  C14 UNL     1      16.086  40.966  16.331  1.00  0.00    -0.026 A 
HETATM   11  C15 UNL     1      16.493  42.299  16.504  1.00  0.00     0.012 A 
HETATM   12  C19 UNL     1      16.269  40.344  15.076  1.00  0.00    -0.025 A 
HETATM   13  C16 UNL     1      17.072  43.010  15.452  1.00  0.00     0.001 A 
HETATM   14  C17 UNL     1      17.252  42.398  14.215  1.00  0.00     0.001 A 
HETATM   15  C18 UNL     1      16.853  41.074  14.027  1.00  0.00     0.012 A 
HETATM   16  C20 UNL     1      15.863  39.010  14.904  1.00  0.00     0.021 A 
ENDBRANCH   6   7
BRANCH   1  17
HETATM   17  C1  UNL     1      16.853  35.441  16.463  1.00  0.00     0.187 C 
HETATM   18  S1  UNL     1      17.837  34.914  17.710  1.00  0.00    -0.040 SA
BRANCH  17  19
HETATM   19  N1  UNL     1      17.374  35.417  15.201  1.00  0.00    -0.375 N 
HETATM   20  H1  UNL     1      18.363  35.194  15.167  1.00  0.00     0.158 HD
HETATM   21  H2  UNL     1      17.107  36.159  14.566  1.00  0.00     0.158 HD
ENDBRANCH  17  19
ENDBRANCH   1  17
BRANCH   4  22
HETATM   22  C3  UNL     1      12.329  35.380  18.091  1.00  0.00    -0.010 A 
HETATM   23  C4  UNL     1      11.091  35.974  17.812  1.00  0.00     0.015 A 
HETATM   24  C5  UNL     1       9.963  35.646  18.569  1.00  0.00     0.026 A 
HETATM   25  C6  UNL     1      10.063  34.722  19.611  1.00  0.00     0.055 A 
HETATM   26 CL1  UNL     1       8.633  34.359  20.507  1.00  0.00    -0.083 Cl
HETATM   27  C7  UNL     1      11.298  34.128  19.893  1.00  0.00     0.056 A 
HETATM   28 CL2  UNL     1      11.500  32.977  21.168  1.00  0.00    -0.083 Cl
HETATM   29  C8  UNL     1      12.430  34.457  19.135  1.00  0.00     0.039 A 
ENDBRANCH   4  22
TORSDOF 4
ENDMDL
MODEL 6
REMARK minimizedAffinity -7.24264526
REMARK  4 active torsions:
REMARK  status: ('A' for Active; 'I' for Inactive)
REMARK    1  A    between atoms: N1_1  and  C1_2 
REMARK    2  A    between atoms: C1_2  and  N2_4 
REMARK    3  A    between atoms: C2_7  and  C3_8 
REMARK    4  A    between atoms: C10_17  and  C11_18 
ROOT
HETATM    1  N2  UNL     1      15.906  37.246  15.969  1.00  0.00    -0.258 N 
HETATM    2  N3  UNL     1      14.653  37.175  16.534  1.00  0.00    -0.299 N 
ATOM      3  H3  UNL     1      13.923  37.885  16.473  1.00  0.00     0.187 HD
HETATM    4  C2  UNL     1      14.568  36.040  17.158  1.00  0.00     0.038 C 
HETATM    5  C9  UNL     1      15.819  35.206  17.145  1.00  0.00     0.091 C 
HETATM    6  C10 UNL     1      16.663  35.999  16.154  1.00  0.00     0.149 C 
ENDROOT
BRANCH   6   7
HETATM    7  C11 UNL     1      16.881  35.222  14.865  1.00  0.00    -0.032 A 
HETATM    8  C12 UNL     1      15.911  35.180  13.853  1.00  0.00     0.010 A 
HETATM    9  C13 UNL     1      16.135  34.451  12.684  1.00  0.00     0.013 A 
HETATM   10  C14 UNL     1      17.329  33.738  12.499  1.00  0.00    -0.026 A 
HETATM   11  C15 UNL     1      17.567  33.001  11.328  1.00  0.00     0.012 A 
HETATM   12  C19 UNL     1      18.312  33.762  13.513  1.00  0.00    -0.025 A 
HETATM   13  C16 UNL     1      18.760  32.295  11.159  1.00  0.00     0.001 A 
HETATM   14  C17 UNL     1      19.728  32.319  12.158  1.00  0.00     0.001 A 
HETATM   15  C18 UNL     1      19.506  33.047  13.328  1.00  0.00     0.012 A 
HETATM   16  C20 UNL     1      18.074  34.502  14.684  1.00  0.00     0.021 A 
ENDBRANCH   6   7
BRANCH   1  17
HETATM   17  C1  UNL     1      16.359  38.419  15.396  1.00  0.00     0.187 C 
HETATM   18  S1  UNL     1      17.627  39.365  15.941  1.00  0.00    -0.040 SA
BRANCH  17  19
HETATM   19  N1  UNL     1      15.724  38.818  14.256  1.00  0.00    -0.375 N 
HETATM   20  H1  UNL     1      16.014  39.730  13.919  1.00  0.00     0.158 HD
HETATM   21  H2  UNL     1      14.725  38.666  14.193  1.00  0.00     0.158 HD
ENDBRANCH  17  19
ENDBRANCH   1  17
BRANCH   4  22
HETATM   22  C3  UNL     1      13.343  35.608  17.871  1.00  0.00    -0.010 A 
HETATM   23  C4  UNL     1      13.475  34.872  19.056  1.00  0.00     0.015 A 
HETATM   24  C5  UNL     1      12.341  34.448  19.755  1.00  0.00     0.026 A 
HETATM   25  C6  UNL     1      11.066  34.756  19.275  1.00  0.00     0.055 A 
HETATM   26 CL1  UNL     1       9.707  34.205  20.185  1.00  0.00    -0.083 Cl
HETATM   27  C7  UNL     1      10.932  35.489  18.091  1.00  0.00     0.056 A 
HETATM   28 CL2  UNL     1       9.387  35.907  17.434  1.00  0.00    -0.083 Cl
HETATM   29  C8  UNL     1      12.067  35.914  17.389  1.00  0.00     0.039 A 
ENDBRANCH   4  22
TORSDOF 4
ENDMDL
MODEL 7
REMARK minimizedAffinity -7.06676102
REMARK  4 active torsions:
REMARK  status: ('A' for Active; 'I' for Inactive)
REMARK    1  A    between atoms: N1_1  and  C1_2 
REMARK    2  A    between atoms: C1_2  and  N2_4 
REMARK    3  A    between atoms: C2_7  and  C3_8 
REMARK    4  A    between atoms: C10_17  and  C11_18 
ROOT
HETATM    1  N2  UNL     1      13.212  59.725   0.512  1.00  0.00    -0.258 N 
HETATM    2  N3  UNL     1      13.367  59.022   1.686  1.00  0.00    -0.299 N 
ATOM      3  H3  UNL     1      13.078  59.328   2.614  1.00  0.00     0.187 HD
HETATM    4  C2  UNL     1      13.948  57.898   1.396  1.00  0.00     0.038 C 
HETATM    5  C9  UNL     1      14.326  57.726  -0.049  1.00  0.00     0.091 C 
HETATM    6  C10 UNL     1      13.632  58.940  -0.657  1.00  0.00     0.149 C 
ENDROOT
BRANCH   6   7
HETATM    7  C11 UNL     1      12.480  58.525  -1.559  1.00  0.00    -0.032 A 
HETATM    8  C12 UNL     1      11.722  57.372  -1.309  1.00  0.00     0.010 A 
HETATM    9  C13 UNL     1      10.676  57.011  -2.160  1.00  0.00     0.013 A 
HETATM   10  C14 UNL     1      10.365  57.788  -3.286  1.00  0.00    -0.026 A 
HETATM   11  C15 UNL     1       9.315  57.436  -4.149  1.00  0.00     0.012 A 
HETATM   12  C19 UNL     1      11.124  58.947  -3.557  1.00  0.00    -0.025 A 
HETATM   13  C16 UNL     1       9.018  58.218  -5.267  1.00  0.00     0.001 A 
HETATM   14  C17 UNL     1       9.767  59.360  -5.534  1.00  0.00     0.001 A 
HETATM   15  C18 UNL     1      10.814  59.723  -4.685  1.00  0.00     0.012 A 
HETATM   16  C20 UNL     1      12.174  59.299  -2.691  1.00  0.00     0.021 A 
ENDBRANCH   6   7
BRANCH   1  17
HETATM   17  C1  UNL     1      12.792  61.041   0.526  1.00  0.00     0.187 C 
HETATM   18  S1  UNL     1      13.771  62.394   0.623  1.00  0.00    -0.040 SA
BRANCH  17  19
HETATM   19  N1  UNL     1      11.447  61.247   0.416  1.00  0.00    -0.375 N 
HETATM   20  H1  UNL     1      11.167  62.216   0.529  1.00  0.00     0.158 HD
HETATM   21  H2  UNL     1      10.829  60.593   0.880  1.00  0.00     0.158 HD
ENDBRANCH  17  19
ENDBRANCH   1  17
BRANCH   4  22
HETATM   22  C3  UNL     1      14.256  56.869   2.417  1.00  0.00    -0.010 A 
HETATM   23  C4  UNL     1      13.197  56.237   3.081  1.00  0.00     0.015 A 
HETATM   24  C5  UNL     1      13.451  55.262   4.049  1.00  0.00     0.026 A 
HETATM   25  C6  UNL     1      14.766  54.911   4.362  1.00  0.00     0.055 A 
HETATM   26 CL1  UNL     1      15.013  53.699   5.566  1.00  0.00    -0.083 Cl
HETATM   27  C7  UNL     1      15.827  55.542   3.702  1.00  0.00     0.056 A 
HETATM   28 CL2  UNL     1      17.480  55.162   4.036  1.00  0.00    -0.083 Cl
HETATM   29  C8  UNL     1      15.573  56.520   2.731  1.00  0.00     0.039 A 
ENDBRANCH   4  22
TORSDOF 4
ENDMDL
MODEL 8
REMARK minimizedAffinity -7.05831146
REMARK  4 active torsions:
REMARK  status: ('A' for Active; 'I' for Inactive)
REMARK    1  A    between atoms: N1_1  and  C1_2 
REMARK    2  A    between atoms: C1_2  and  N2_4 
REMARK    3  A    between atoms: C2_7  and  C3_8 
REMARK    4  A    between atoms: C10_17  and  C11_18 
ROOT
HETATM    1  N2  UNL     1       6.270  64.503  -6.970  1.00  0.00    -0.258 N 
HETATM    2  N3  UNL     1       5.053  64.909  -6.469  1.00  0.00    -0.299 N 
ATOM      3  H3  UNL     1       4.207  65.081  -7.011  1.00  0.00     0.187 HD
HETATM    4  C2  UNL     1       5.180  65.032  -5.184  1.00  0.00     0.038 C 
HETATM    5  C9  UNL     1       6.562  64.778  -4.648  1.00  0.00     0.091 C 
HETATM    6  C10 UNL     1       7.242  64.236  -5.899  1.00  0.00     0.149 C 
ENDROOT
BRANCH   6   7
HETATM    7  C11 UNL     1       7.591  62.764  -5.747  1.00  0.00    -0.032 A 
HETATM    8  C12 UNL     1       6.656  61.825  -5.288  1.00  0.00     0.010 A 
HETATM    9  C13 UNL     1       7.008  60.481  -5.148  1.00  0.00     0.013 A 
HETATM   10  C14 UNL     1       8.304  60.042  -5.457  1.00  0.00    -0.026 A 
HETATM   11  C15 UNL     1       8.671  58.693  -5.321  1.00  0.00     0.012 A 
HETATM   12  C19 UNL     1       9.260  60.976  -5.911  1.00  0.00    -0.025 A 
HETATM   13  C16 UNL     1       9.965  58.272  -5.631  1.00  0.00     0.001 A 
HETATM   14  C17 UNL     1      10.908  59.193  -6.078  1.00  0.00     0.001 A 
HETATM   15  C18 UNL     1      10.558  60.537  -6.218  1.00  0.00     0.012 A 
HETATM   16  C20 UNL     1       8.892  62.326  -6.048  1.00  0.00     0.021 A 
ENDBRANCH   6   7
BRANCH   1  17
HETATM   17  C1  UNL     1       6.499  64.466  -8.332  1.00  0.00     0.187 C 
HETATM   18  S1  UNL     1       7.343  65.600  -9.228  1.00  0.00    -0.040 SA
BRANCH  17  19
HETATM   19  N1  UNL     1       6.013  63.377  -8.997  1.00  0.00    -0.375 N 
HETATM   20  H1  UNL     1       6.111  63.432 -10.005  1.00  0.00     0.158 HD
HETATM   21  H2  UNL     1       5.121  63.001  -8.700  1.00  0.00     0.158 HD
ENDBRANCH  17  19
ENDBRANCH   1  17
BRANCH   4  22
HETATM   22  C3  UNL     1       4.058  65.435  -4.304  1.00  0.00    -0.010 A 
HETATM   23  C4  UNL     1       3.837  64.719  -3.120  1.00  0.00     0.015 A 
HETATM   24  C5  UNL     1       2.788  65.070  -2.266  1.00  0.00     0.026 A 
HETATM   25  C6  UNL     1       1.951  66.141  -2.588  1.00  0.00     0.055 A 
HETATM   26 CL1  UNL     1       0.675  66.525  -1.492  1.00  0.00    -0.083 Cl
HETATM   27  C7  UNL     1       2.168  66.857  -3.771  1.00  0.00     0.056 A 
HETATM   28 CL2  UNL     1       1.173  68.192  -4.238  1.00  0.00    -0.083 Cl
HETATM   29  C8  UNL     1       3.219  66.505  -4.628  1.00  0.00     0.039 A 
ENDBRANCH   4  22
TORSDOF 4
ENDMDL
MODEL 9
REMARK minimizedAffinity -7.0569768
REMARK  4 active torsions:
REMARK  status: ('A' for Active; 'I' for Inactive)
REMARK    1  A    between atoms: N1_1  and  C1_2 
REMARK    2  A    between atoms: C1_2  and  N2_4 
REMARK    3  A    between atoms: C2_7  and  C3_8 
REMARK    4  A    between atoms: C10_17  and  C11_18 
ROOT
HETATM    1  N2  UNL     1      15.926  35.355  18.478  1.00  0.00    -0.258 N 
HETATM    2  N3  UNL     1      16.568  34.709  17.445  1.00  0.00    -0.299 N 
ATOM      3  H3  UNL     1      17.118  33.853  17.520  1.00  0.00     0.187 HD
HETATM    4  C2  UNL     1      16.347  35.386  16.361  1.00  0.00     0.038 C 
HETATM    5  C9  UNL     1      15.554  36.651  16.545  1.00  0.00     0.091 C 
HETATM    6  C10 UNL     1      15.128  36.494  18.000  1.00  0.00     0.149 C 
ENDROOT
BRANCH   6   7
HETATM    7  C11 UNL     1      13.627  36.277  18.117  1.00  0.00    -0.032 A 
HETATM    8  C12 UNL     1      12.826  36.026  16.995  1.00  0.00     0.010 A 
HETATM    9  C13 UNL     1      11.448  35.840  17.132  1.00  0.00     0.013 A 
HETATM   10  C14 UNL     1      10.836  35.909  18.391  1.00  0.00    -0.026 A 
HETATM   11  C15 UNL     1       9.452  35.724  18.543  1.00  0.00     0.012 A 
HETATM   12  C19 UNL     1      11.628  36.171  19.531  1.00  0.00    -0.025 A 
HETATM   13  C16 UNL     1       8.857  35.797  19.803  1.00  0.00     0.001 A 
HETATM   14  C17 UNL     1       9.637  36.056  20.927  1.00  0.00     0.001 A 
HETATM   15  C18 UNL     1      11.014  36.242  20.792  1.00  0.00     0.012 A 
HETATM   16  C20 UNL     1      13.013  36.355  19.378  1.00  0.00     0.021 A 
ENDBRANCH   6   7
BRANCH   1  17
HETATM   17  C1  UNL     1      16.133  34.973  19.789  1.00  0.00     0.187 C 
HETATM   18  S1  UNL     1      16.715  35.940  21.024  1.00  0.00    -0.040 SA
BRANCH  17  19
HETATM   19  N1  UNL     1      15.793  33.689  20.105  1.00  0.00    -0.375 N 
HETATM   20  H1  UNL     1      16.050  33.415  21.048  1.00  0.00     0.158 HD
HETATM   21  H2  UNL     1      15.969  32.970  19.415  1.00  0.00     0.158 HD
ENDBRANCH  17  19
ENDBRANCH   1  17
BRANCH   4  22
HETATM   22  C3  UNL     1      16.870  34.973  15.038  1.00  0.00    -0.010 A 
HETATM   23  C4  UNL     1      16.109  35.249  13.894  1.00  0.00     0.015 A 
HETATM   24  C5  UNL     1      16.571  34.874  12.629  1.00  0.00     0.026 A 
HETATM   25  C6  UNL     1      17.797  34.218  12.498  1.00  0.00     0.055 A 
HETATM   26 CL1  UNL     1      18.312  33.782  10.909  1.00  0.00    -0.083 Cl
HETATM   27  C7  UNL     1      18.558  33.938  13.639  1.00  0.00     0.056 A 
HETATM   28 CL2  UNL     1      20.084  33.128  13.555  1.00  0.00    -0.083 Cl
HETATM   29  C8  UNL     1      18.096  34.314  14.907  1.00  0.00     0.039 A 
ENDBRANCH   4  22
TORSDOF 4
ENDMDL
