MODEL 1
REMARK minimizedAffinity -7.95617771
REMARK  3 active torsions:
REMARK  status: ('A' for Active; 'I' for Inactive)
REMARK    1  A    between atoms: C4_5  and  C5_6 
REMARK    2  A    between atoms: N2_9  and  C6_10 
REMARK    3  A    between atoms: C12_16  and  C13_17 
ROOT
HETATM    1  C5  UNL     1      13.131  57.544   0.470  1.00  0.00     0.038 C 
HETATM    2  N1  UNL     1      13.246  56.547   1.295  1.00  0.00    -0.301 N 
ATOM      3  H1  UNL     1      12.792  55.637   1.213  1.00  0.00     0.187 HD
HETATM    4  N2  UNL     1      14.088  56.949   2.293  1.00  0.00    -0.283 N 
HETATM    5  C12 UNL     1      14.448  58.365   2.206  1.00  0.00     0.147 C 
HETATM    6  C23 UNL     1      13.970  58.746   0.803  1.00  0.00     0.091 C 
ENDROOT
BRANCH   5   7
HETATM    7  C13 UNL     1      13.781  59.236   3.260  1.00  0.00    -0.032 A 
HETATM    8  C14 UNL     1      13.203  60.455   2.880  1.00  0.00     0.010 A 
HETATM    9  C15 UNL     1      12.560  61.264   3.821  1.00  0.00     0.013 A 
HETATM   10  C16 UNL     1      12.473  60.873   5.165  1.00  0.00    -0.026 A 
HETATM   11  C17 UNL     1      11.832  61.676   6.123  1.00  0.00     0.012 A 
HETATM   12  C21 UNL     1      13.045  59.645   5.563  1.00  0.00    -0.025 A 
HETATM   13  C18 UNL     1      11.756  61.273   7.457  1.00  0.00     0.001 A 
HETATM   14  C19 UNL     1      12.321  60.063   7.849  1.00  0.00     0.001 A 
HETATM   15  C20 UNL     1      12.961  59.253   6.910  1.00  0.00     0.012 A 
HETATM   16  C22 UNL     1      13.687  58.842   4.606  1.00  0.00     0.021 A 
ENDBRANCH   5   7
BRANCH   4  17
HETATM   17  C6  UNL     1      14.551  56.044   3.248  1.00  0.00     0.051 A 
HETATM   18  C7  UNL     1      15.929  55.865   3.462  1.00  0.00     0.031 A 
HETATM   19  C8  UNL     1      16.421  54.964   4.413  1.00  0.00     0.002 A 
HETATM   20  C9  UNL     1      15.538  54.212   5.178  1.00  0.00     0.000 A 
HETATM   21  C10 UNL     1      14.170  54.364   4.991  1.00  0.00     0.002 A 
HETATM   22  C11 UNL     1      13.685  55.270   4.038  1.00  0.00     0.031 A 
ENDBRANCH   4  17
BRANCH   1  23
HETATM   23  C4  UNL     1      12.265  57.503  -0.731  1.00  0.00    -0.012 A 
HETATM   24  C3  UNL     1      11.496  56.375  -1.042  1.00  0.00     0.015 A 
HETATM   25  C2  UNL     1      10.692  56.369  -2.187  1.00  0.00     0.020 A 
HETATM   26  C1  UNL     1      10.655  57.489  -3.017  1.00  0.00     0.011 A 
HETATM   27 BR1  UNL     1       9.565  57.477  -4.560  1.00  0.00    -0.051 Br
HETATM   28  C25 UNL     1      11.415  58.617  -2.715  1.00  0.00     0.020 A 
HETATM   29  C24 UNL     1      12.219  58.624  -1.571  1.00  0.00     0.015 A 
ENDBRANCH   1  23
TORSDOF 3
ENDMDL
MODEL 2
REMARK minimizedAffinity -7.83935976
REMARK  3 active torsions:
REMARK  status: ('A' for Active; 'I' for Inactive)
REMARK    1  A    between atoms: C4_5  and  C5_6 
REMARK    2  A    between atoms: N2_9  and  C6_10 
REMARK    3  A    between atoms: C12_16  and  C13_17 
ROOT
HETATM    1  C5  UNL     1      13.494  58.887   5.564  1.00  0.00     0.038 C 
HETATM    2  N1  UNL     1      12.915  58.578   4.443  1.00  0.00    -0.301 N 
ATOM      3  H1  UNL     1      11.927  58.698   4.217  1.00  0.00     0.187 HD
HETATM    4  N2  UNL     1      13.878  58.062   3.623  1.00  0.00    -0.283 N 
HETATM    5  C12 UNL     1      15.165  57.878   4.295  1.00  0.00     0.147 C 
HETATM    6  C23 UNL     1      14.980  58.663   5.595  1.00  0.00     0.091 C 
ENDROOT
BRANCH   5   7
HETATM    7  C13 UNL     1      15.505  56.423   4.586  1.00  0.00    -0.032 A 
HETATM    8  C14 UNL     1      14.486  55.543   4.974  1.00  0.00     0.010 A 
HETATM    9  C15 UNL     1      14.762  54.195   5.223  1.00  0.00     0.013 A 
HETATM   10  C16 UNL     1      16.063  53.692   5.084  1.00  0.00    -0.026 A 
HETATM   11  C17 UNL     1      16.358  52.341   5.331  1.00  0.00     0.012 A 
HETATM   12  C21 UNL     1      17.101  54.564   4.687  1.00  0.00    -0.025 A 
HETATM   13  C18 UNL     1      17.659  51.857   5.190  1.00  0.00     0.001 A 
HETATM   14  C19 UNL     1      18.682  52.717   4.800  1.00  0.00     0.001 A 
HETATM   15  C20 UNL     1      18.405  54.061   4.550  1.00  0.00     0.012 A 
HETATM   16  C22 UNL     1      16.807  55.916   4.440  1.00  0.00     0.021 A 
ENDBRANCH   5   7
BRANCH   4  17
HETATM   17  C6  UNL     1      13.609  57.793   2.281  1.00  0.00     0.051 A 
HETATM   18  C7  UNL     1      13.680  56.481   1.781  1.00  0.00     0.031 A 
HETATM   19  C8  UNL     1      13.415  56.184   0.439  1.00  0.00     0.002 A 
HETATM   20  C9  UNL     1      13.071  57.202  -0.442  1.00  0.00     0.000 A 
HETATM   21  C10 UNL     1      12.993  58.510   0.020  1.00  0.00     0.002 A 
HETATM   22  C11 UNL     1      13.258  58.799   1.366  1.00  0.00     0.031 A 
ENDBRANCH   4  17
BRANCH   1  23
HETATM   23  C4  UNL     1      12.762  59.445   6.724  1.00  0.00    -0.012 A 
HETATM   24  C3  UNL     1      12.988  58.981   8.026  1.00  0.00     0.015 A 
HETATM   25  C2  UNL     1      12.276  59.528   9.098  1.00  0.00     0.020 A 
HETATM   26  C1  UNL     1      11.343  60.538   8.870  1.00  0.00     0.011 A 
HETATM   27 BR1  UNL     1      10.386  61.277  10.323  1.00  0.00    -0.051 Br
HETATM   28  C25 UNL     1      11.112  61.008   7.580  1.00  0.00     0.020 A 
HETATM   29  C24 UNL     1      11.823  60.462   6.507  1.00  0.00     0.015 A 
ENDBRANCH   1  23
TORSDOF 3
ENDMDL
MODEL 3
REMARK minimizedAffinity -7.80256987
REMARK  3 active torsions:
REMARK  status: ('A' for Active; 'I' for Inactive)
REMARK    1  A    between atoms: C4_5  and  C5_6 
REMARK    2  A    between atoms: N2_9  and  C6_10 
REMARK    3  A    between atoms: C12_16  and  C13_17 
ROOT
HETATM    1  C5  UNL     1      17.160  52.235   5.414  1.00  0.00     0.038 C 
HETATM    2  N1  UNL     1      16.675  51.061   5.689  1.00  0.00    -0.301 N 
ATOM      3  H1  UNL     1      15.692  50.790   5.663  1.00  0.00     0.187 HD
HETATM    4  N2  UNL     1      17.731  50.258   6.019  1.00  0.00    -0.283 N 
HETATM    5  C12 UNL     1      18.998  50.986   6.112  1.00  0.00     0.147 C 
HETATM    6  C23 UNL     1      18.659  52.332   5.468  1.00  0.00     0.091 C 
ENDROOT
BRANCH   5   7
HETATM    7  C13 UNL     1      19.494  51.178   7.538  1.00  0.00    -0.032 A 
HETATM    8  C14 UNL     1      19.060  52.289   8.274  1.00  0.00     0.010 A 
HETATM    9  C15 UNL     1      19.478  52.478   9.594  1.00  0.00     0.013 A 
HETATM   10  C16 UNL     1      20.335  51.559  10.215  1.00  0.00    -0.026 A 
HETATM   11  C17 UNL     1      20.765  51.735  11.540  1.00  0.00     0.012 A 
HETATM   12  C21 UNL     1      20.776  50.431   9.489  1.00  0.00    -0.025 A 
HETATM   13  C18 UNL     1      21.620  50.812  12.142  1.00  0.00     0.001 A 
HETATM   14  C19 UNL     1      22.056  49.700  11.427  1.00  0.00     0.001 A 
HETATM   15  C20 UNL     1      21.637  49.510  10.109  1.00  0.00     0.012 A 
HETATM   16  C22 UNL     1      20.347  50.253   8.163  1.00  0.00     0.021 A 
ENDBRANCH   5   7
BRANCH   4  17
HETATM   17  C6  UNL     1      17.560  48.887   6.199  1.00  0.00     0.051 A 
HETATM   18  C7  UNL     1      18.634  48.073   6.599  1.00  0.00     0.031 A 
HETATM   19  C8  UNL     1      18.490  46.694   6.787  1.00  0.00     0.002 A 
HETATM   20  C9  UNL     1      17.257  46.090   6.576  1.00  0.00     0.000 A 
HETATM   21  C10 UNL     1      16.174  46.866   6.179  1.00  0.00     0.002 A 
HETATM   22  C11 UNL     1      16.326  48.246   5.995  1.00  0.00     0.031 A 
ENDBRANCH   4  17
BRANCH   1  23
HETATM   23  C4  UNL     1      16.313  53.393   5.046  1.00  0.00    -0.012 A 
HETATM   24  C3  UNL     1      14.930  53.389   5.265  1.00  0.00     0.015 A 
HETATM   25  C2  UNL     1      14.160  54.498   4.901  1.00  0.00     0.020 A 
HETATM   26  C1  UNL     1      14.771  55.609   4.321  1.00  0.00     0.011 A 
HETATM   27 BR1  UNL     1      13.727  57.106   3.834  1.00  0.00    -0.051 Br
HETATM   28  C25 UNL     1      16.146  55.623   4.101  1.00  0.00     0.020 A 
HETATM   29  C24 UNL     1      16.917  54.515   4.464  1.00  0.00     0.015 A 
ENDBRANCH   1  23
TORSDOF 3
ENDMDL
MODEL 4
REMARK minimizedAffinity -7.70129299
REMARK  3 active torsions:
REMARK  status: ('A' for Active; 'I' for Inactive)
REMARK    1  A    between atoms: C4_5  and  C5_6 
REMARK    2  A    between atoms: N2_9  and  C6_10 
REMARK    3  A    between atoms: C12_16  and  C13_17 
ROOT
HETATM    1  C5  UNL     1      17.161  52.211   5.426  1.00  0.00     0.038 C 
HETATM    2  N1  UNL     1      16.665  51.035   5.665  1.00  0.00    -0.301 N 
ATOM      3  H1  UNL     1      15.682  50.767   5.606  1.00  0.00     0.187 HD
HETATM    4  N2  UNL     1      17.708  50.222   6.011  1.00  0.00    -0.283 N 
HETATM    5  C12 UNL     1      18.974  50.943   6.154  1.00  0.00     0.147 C 
HETATM    6  C23 UNL     1      18.658  52.302   5.526  1.00  0.00     0.091 C 
ENDROOT
BRANCH   5   7
HETATM    7  C13 UNL     1      19.429  51.107   7.597  1.00  0.00    -0.032 A 
HETATM    8  C14 UNL     1      20.138  50.069   8.217  1.00  0.00     0.010 A 
HETATM    9  C15 UNL     1      20.592  50.201   9.533  1.00  0.00     0.013 A 
HETATM   10  C16 UNL     1      20.354  51.375  10.260  1.00  0.00    -0.026 A 
HETATM   11  C17 UNL     1      20.801  51.522  11.584  1.00  0.00     0.012 A 
HETATM   12  C21 UNL     1      19.645  52.432   9.649  1.00  0.00    -0.025 A 
HETATM   13  C18 UNL     1      20.553  52.697  12.295  1.00  0.00     0.001 A 
HETATM   14  C19 UNL     1      19.854  53.739  11.692  1.00  0.00     0.001 A 
HETATM   15  C20 UNL     1      19.404  53.609  10.378  1.00  0.00     0.012 A 
HETATM   16  C22 UNL     1      19.196  52.286   8.325  1.00  0.00     0.021 A 
ENDBRANCH   5   7
BRANCH   4  17
HETATM   17  C6  UNL     1      17.527  48.848   6.161  1.00  0.00     0.051 A 
HETATM   18  C7  UNL     1      18.626  47.995   6.364  1.00  0.00     0.031 A 
HETATM   19  C8  UNL     1      18.473  46.612   6.518  1.00  0.00     0.002 A 
HETATM   20  C9  UNL     1      17.206  46.045   6.470  1.00  0.00     0.000 A 
HETATM   21  C10 UNL     1      16.098  46.860   6.271  1.00  0.00     0.002 A 
HETATM   22  C11 UNL     1      16.260  48.244   6.120  1.00  0.00     0.031 A 
ENDBRANCH   4  17
BRANCH   1  23
HETATM   23  C4  UNL     1      16.329  53.379   5.055  1.00  0.00    -0.012 A 
HETATM   24  C3  UNL     1      14.948  53.397   5.283  1.00  0.00     0.015 A 
HETATM   25  C2  UNL     1      14.192  54.515   4.916  1.00  0.00     0.020 A 
HETATM   26  C1  UNL     1      14.815  55.612   4.323  1.00  0.00     0.011 A 
HETATM   27 BR1  UNL     1      13.789  57.121   3.831  1.00  0.00    -0.051 Br
HETATM   28  C25 UNL     1      16.189  55.604   4.093  1.00  0.00     0.020 A 
HETATM   29  C24 UNL     1      16.945  54.487   4.460  1.00  0.00     0.015 A 
ENDBRANCH   1  23
TORSDOF 3
ENDMDL
MODEL 5
REMARK minimizedAffinity -7.67967558
REMARK  3 active torsions:
REMARK  status: ('A' for Active; 'I' for Inactive)
REMARK    1  A    between atoms: C4_5  and  C5_6 
REMARK    2  A    between atoms: N2_9  and  C6_10 
REMARK    3  A    between atoms: C12_16  and  C13_17 
ROOT
HETATM    1  C5  UNL     1      18.394  50.637   6.396  1.00  0.00     0.038 C 
HETATM    2  N1  UNL     1      18.515  51.401   7.440  1.00  0.00    -0.301 N 
ATOM      3  H1  UNL     1      18.493  51.103   8.416  1.00  0.00     0.187 HD
HETATM    4  N2  UNL     1      18.677  52.680   6.986  1.00  0.00    -0.283 N 
HETATM    5  C12 UNL     1      18.507  52.799   5.537  1.00  0.00     0.147 C 
HETATM    6  C23 UNL     1      18.533  51.340   5.075  1.00  0.00     0.091 C 
ENDROOT
BRANCH   5   7
HETATM    7  C13 UNL     1      17.206  53.473   5.124  1.00  0.00    -0.032 A 
HETATM    8  C14 UNL     1      15.984  52.894   5.491  1.00  0.00     0.010 A 
HETATM    9  C15 UNL     1      14.773  53.503   5.148  1.00  0.00     0.013 A 
HETATM   10  C16 UNL     1      14.754  54.711   4.436  1.00  0.00    -0.026 A 
HETATM   11  C17 UNL     1      13.546  55.335   4.083  1.00  0.00     0.012 A 
HETATM   12  C21 UNL     1      15.976  55.310   4.063  1.00  0.00    -0.025 A 
HETATM   13  C18 UNL     1      13.544  56.535   3.371  1.00  0.00     0.001 A 
HETATM   14  C19 UNL     1      14.750  57.126   3.003  1.00  0.00     0.001 A 
HETATM   15  C20 UNL     1      15.958  56.519   3.347  1.00  0.00     0.012 A 
HETATM   16  C22 UNL     1      17.185  54.687   4.415  1.00  0.00     0.021 A 
ENDBRANCH   5   7
BRANCH   4  17
HETATM   17  C6  UNL     1      19.006  53.715   7.859  1.00  0.00     0.051 A 
HETATM   18  C7  UNL     1      19.400  53.444   9.181  1.00  0.00     0.031 A 
HETATM   19  C8  UNL     1      19.736  54.464  10.079  1.00  0.00     0.002 A 
HETATM   20  C9  UNL     1      19.685  55.791   9.672  1.00  0.00     0.000 A 
HETATM   21  C10 UNL     1      19.299  56.094   8.371  1.00  0.00     0.002 A 
HETATM   22  C11 UNL     1      18.966  55.066   7.478  1.00  0.00     0.031 A 
ENDBRANCH   4  17
BRANCH   1  23
HETATM   23  C4  UNL     1      18.164  49.177   6.486  1.00  0.00    -0.012 A 
HETATM   24  C3  UNL     1      17.021  48.580   5.940  1.00  0.00     0.015 A 
HETATM   25  C2  UNL     1      16.835  47.198   6.046  1.00  0.00     0.020 A 
HETATM   26  C1  UNL     1      17.789  46.415   6.694  1.00  0.00     0.011 A 
HETATM   27 BR1  UNL     1      17.534  44.547   6.833  1.00  0.00    -0.051 Br
HETATM   28  C25 UNL     1      18.930  46.999   7.239  1.00  0.00     0.020 A 
HETATM   29  C24 UNL     1      19.118  48.380   7.133  1.00  0.00     0.015 A 
ENDBRANCH   1  23
TORSDOF 3
ENDMDL
MODEL 6
REMARK minimizedAffinity -7.3995676
REMARK  3 active torsions:
REMARK  status: ('A' for Active; 'I' for Inactive)
REMARK    1  A    between atoms: C4_5  and  C5_6 
REMARK    2  A    between atoms: N2_9  and  C6_10 
REMARK    3  A    between atoms: C12_16  and  C13_17 
ROOT
HETATM    1  C5  UNL     1      14.798  59.012   3.069  1.00  0.00     0.038 C 
HETATM    2  N1  UNL     1      14.696  57.718   3.105  1.00  0.00    -0.301 N 
ATOM      3  H1  UNL     1      14.309  57.119   2.374  1.00  0.00     0.187 HD
HETATM    4  N2  UNL     1      15.204  57.308   4.306  1.00  0.00    -0.283 N 
HETATM    5  C12 UNL     1      15.537  58.420   5.197  1.00  0.00     0.147 C 
HETATM    6  C23 UNL     1      15.473  59.630   4.262  1.00  0.00     0.091 C 
ENDROOT
BRANCH   5   7
HETATM    7  C13 UNL     1      14.571  58.586   6.361  1.00  0.00    -0.032 A 
HETATM    8  C14 UNL     1      14.895  58.032   7.608  1.00  0.00     0.010 A 
HETATM    9  C15 UNL     1      14.041  58.190   8.703  1.00  0.00     0.013 A 
HETATM   10  C16 UNL     1      12.844  58.910   8.582  1.00  0.00    -0.026 A 
HETATM   11  C17 UNL     1      11.974  59.075   9.673  1.00  0.00     0.012 A 
HETATM   12  C21 UNL     1      12.505  59.479   7.335  1.00  0.00    -0.025 A 
HETATM   13  C18 UNL     1      10.785  59.793   9.534  1.00  0.00     0.001 A 
HETATM   14  C19 UNL     1      10.451  60.353   8.305  1.00  0.00     0.001 A 
HETATM   15  C20 UNL     1      11.305  60.198   7.212  1.00  0.00     0.012 A 
HETATM   16  C22 UNL     1      13.374  59.313   6.244  1.00  0.00     0.021 A 
ENDBRANCH   5   7
BRANCH   4  17
HETATM   17  C6  UNL     1      15.396  55.954   4.579  1.00  0.00     0.051 A 
HETATM   18  C7  UNL     1      16.672  55.373   4.478  1.00  0.00     0.031 A 
HETATM   19  C8  UNL     1      16.892  54.017   4.747  1.00  0.00     0.002 A 
HETATM   20  C9  UNL     1      15.832  53.203   5.124  1.00  0.00     0.000 A 
HETATM   21  C10 UNL     1      14.557  53.747   5.233  1.00  0.00     0.002 A 
HETATM   22  C11 UNL     1      14.345  55.106   4.964  1.00  0.00     0.031 A 
ENDBRANCH   4  17
BRANCH   1  23
HETATM   23  C4  UNL     1      14.316  59.830   1.932  1.00  0.00    -0.012 A 
HETATM   24  C3  UNL     1      15.136  60.110   0.832  1.00  0.00     0.015 A 
HETATM   25  C2  UNL     1      14.650  60.889  -0.223  1.00  0.00     0.020 A 
HETATM   26  C1  UNL     1      13.347  61.385  -0.179  1.00  0.00     0.011 A 
HETATM   27 BR1  UNL     1      12.694  62.435  -1.608  1.00  0.00    -0.051 Br
HETATM   28  C25 UNL     1      12.524  61.111   0.910  1.00  0.00     0.020 A 
HETATM   29  C24 UNL     1      13.009  60.332   1.965  1.00  0.00     0.015 A 
ENDBRANCH   1  23
TORSDOF 3
ENDMDL
MODEL 7
REMARK minimizedAffinity -7.34378481
REMARK  3 active torsions:
REMARK  status: ('A' for Active; 'I' for Inactive)
REMARK    1  A    between atoms: C4_5  and  C5_6 
REMARK    2  A    between atoms: N2_9  and  C6_10 
REMARK    3  A    between atoms: C12_16  and  C13_17 
ROOT
HETATM    1  C5  UNL     1      15.074  57.213   5.346  1.00  0.00     0.038 C 
HETATM    2  N1  UNL     1      14.013  57.593   5.993  1.00  0.00    -0.301 N 
ATOM      3  H1  UNL     1      13.404  57.003   6.560  1.00  0.00     0.187 HD
HETATM    4  N2  UNL     1      13.866  58.934   5.770  1.00  0.00    -0.283 N 
HETATM    5  C12 UNL     1      14.814  59.459   4.786  1.00  0.00     0.147 C 
HETATM    6  C23 UNL     1      15.820  58.315   4.646  1.00  0.00     0.091 C 
ENDROOT
BRANCH   5   7
HETATM    7  C13 UNL     1      14.184  59.793   3.442  1.00  0.00    -0.032 A 
HETATM    8  C14 UNL     1      13.674  58.758   2.645  1.00  0.00     0.010 A 
HETATM    9  C15 UNL     1      13.067  59.036   1.417  1.00  0.00     0.013 A 
HETATM   10  C16 UNL     1      12.947  60.355   0.957  1.00  0.00    -0.026 A 
HETATM   11  C17 UNL     1      12.341  60.651  -0.275  1.00  0.00     0.012 A 
HETATM   12  C21 UNL     1      13.450  61.409   1.750  1.00  0.00    -0.025 A 
HETATM   13  C18 UNL     1      12.233  61.970  -0.719  1.00  0.00     0.001 A 
HETATM   14  C19 UNL     1      12.729  63.008   0.063  1.00  0.00     0.001 A 
HETATM   15  C20 UNL     1      13.334  62.731   1.290  1.00  0.00     0.012 A 
HETATM   16  C22 UNL     1      14.058  61.115   2.983  1.00  0.00     0.021 A 
ENDBRANCH   5   7
BRANCH   4  17
HETATM   17  C6  UNL     1      12.915  59.676   6.468  1.00  0.00     0.051 A 
HETATM   18  C7  UNL     1      12.276  60.775   5.867  1.00  0.00     0.031 A 
HETATM   19  C8  UNL     1      11.318  61.537   6.544  1.00  0.00     0.002 A 
HETATM   20  C9  UNL     1      10.974  61.217   7.852  1.00  0.00     0.000 A 
HETATM   21  C10 UNL     1      11.588  60.137   8.476  1.00  0.00     0.002 A 
HETATM   22  C11 UNL     1      12.545  59.377   7.789  1.00  0.00     0.031 A 
ENDBRANCH   4  17
BRANCH   1  23
HETATM   23  C4  UNL     1      15.542  55.809   5.316  1.00  0.00    -0.012 A 
HETATM   24  C3  UNL     1      14.646  54.740   5.186  1.00  0.00     0.015 A 
HETATM   25  C2  UNL     1      15.123  53.425   5.165  1.00  0.00     0.020 A 
HETATM   26  C1  UNL     1      16.491  53.179   5.272  1.00  0.00     0.011 A 
HETATM   27 BR1  UNL     1      17.130  51.401   5.241  1.00  0.00    -0.051 Br
HETATM   28  C25 UNL     1      17.390  54.235   5.400  1.00  0.00     0.020 A 
HETATM   29  C24 UNL     1      16.915  55.550   5.421  1.00  0.00     0.015 A 
ENDBRANCH   1  23
TORSDOF 3
ENDMDL
MODEL 8
REMARK minimizedAffinity -7.33676243
REMARK  3 active torsions:
REMARK  status: ('A' for Active; 'I' for Inactive)
REMARK    1  A    between atoms: C4_5  and  C5_6 
REMARK    2  A    between atoms: N2_9  and  C6_10 
REMARK    3  A    between atoms: C12_16  and  C13_17 
ROOT
HETATM    1  C5  UNL     1      15.191  56.979   4.087  1.00  0.00     0.038 C 
HETATM    2  N1  UNL     1      14.248  57.605   4.723  1.00  0.00    -0.301 N 
ATOM      3  H1  UNL     1      13.727  57.260   5.530  1.00  0.00     0.187 HD
HETATM    4  N2  UNL     1      14.083  58.814   4.108  1.00  0.00    -0.283 N 
HETATM    5  C12 UNL     1      14.873  58.947   2.883  1.00  0.00     0.147 C 
HETATM    6  C23 UNL     1      15.832  57.759   2.973  1.00  0.00     0.091 C 
ENDROOT
BRANCH   5   7
HETATM    7  C13 UNL     1      14.046  58.880   1.607  1.00  0.00    -0.032 A 
HETATM    8  C14 UNL     1      13.912  60.027   0.813  1.00  0.00     0.010 A 
HETATM    9  C15 UNL     1      13.181  59.990  -0.378  1.00  0.00     0.013 A 
HETATM   10  C16 UNL     1      12.570  58.804  -0.809  1.00  0.00    -0.026 A 
HETATM   11  C17 UNL     1      11.831  58.750  -2.002  1.00  0.00     0.012 A 
HETATM   12  C21 UNL     1      12.700  57.638  -0.023  1.00  0.00    -0.025 A 
HETATM   13  C18 UNL     1      11.227  57.562  -2.415  1.00  0.00     0.001 A 
HETATM   14  C19 UNL     1      11.355  56.413  -1.640  1.00  0.00     0.001 A 
HETATM   15  C20 UNL     1      12.087  56.449  -0.452  1.00  0.00     0.012 A 
HETATM   16  C22 UNL     1      13.439  57.690   1.171  1.00  0.00     0.021 A 
ENDBRANCH   5   7
BRANCH   4  17
HETATM   17  C6  UNL     1      13.259  59.794   4.661  1.00  0.00     0.051 A 
HETATM   18  C7  UNL     1      13.019  61.001   3.981  1.00  0.00     0.031 A 
HETATM   19  C8  UNL     1      12.197  62.001   4.513  1.00  0.00     0.002 A 
HETATM   20  C9  UNL     1      11.592  61.816   5.750  1.00  0.00     0.000 A 
HETATM   21  C10 UNL     1      11.809  60.634   6.449  1.00  0.00     0.002 A 
HETATM   22  C11 UNL     1      12.632  59.637   5.908  1.00  0.00     0.031 A 
ENDBRANCH   4  17
BRANCH   1  23
HETATM   23  C4  UNL     1      15.633  55.610   4.440  1.00  0.00    -0.012 A 
HETATM   24  C3  UNL     1      14.722  54.627   4.844  1.00  0.00     0.015 A 
HETATM   25  C2  UNL     1      15.175  53.346   5.174  1.00  0.00     0.020 A 
HETATM   26  C1  UNL     1      16.535  53.047   5.098  1.00  0.00     0.011 A 
HETATM   27 BR1  UNL     1      17.141  51.314   5.542  1.00  0.00    -0.051 Br
HETATM   28  C25 UNL     1      17.449  54.018   4.695  1.00  0.00     0.020 A 
HETATM   29  C24 UNL     1      16.998  55.299   4.365  1.00  0.00     0.015 A 
ENDBRANCH   1  23
TORSDOF 3
ENDMDL
MODEL 9
REMARK minimizedAffinity -7.30167341
REMARK  3 active torsions:
REMARK  status: ('A' for Active; 'I' for Inactive)
REMARK    1  A    between atoms: C4_5  and  C5_6 
REMARK    2  A    between atoms: N2_9  and  C6_10 
REMARK    3  A    between atoms: C12_16  and  C13_17 
ROOT
HETATM    1  C5  UNL     1       4.736  65.071  -5.057  1.00  0.00     0.038 C 
HETATM    2  N1  UNL     1       4.737  65.141  -6.354  1.00  0.00    -0.301 N 
ATOM      3  H1  UNL     1       3.923  65.264  -6.955  1.00  0.00     0.187 HD
HETATM    4  N2  UNL     1       6.037  65.019  -6.761  1.00  0.00    -0.283 N 
HETATM    5  C12 UNL     1       6.953  64.700  -5.665  1.00  0.00     0.147 C 
HETATM    6  C23 UNL     1       6.095  64.956  -4.424  1.00  0.00     0.091 C 
ENDROOT
BRANCH   5   7
HETATM    7  C13 UNL     1       7.459  63.264  -5.685  1.00  0.00    -0.032 A 
HETATM    8  C14 UNL     1       6.620  62.233  -5.241  1.00  0.00     0.010 A 
HETATM    9  C15 UNL     1       7.047  60.902  -5.272  1.00  0.00     0.013 A 
HETATM   10  C16 UNL     1       8.321  60.568  -5.753  1.00  0.00    -0.026 A 
HETATM   11  C17 UNL     1       8.766  59.236  -5.789  1.00  0.00     0.012 A 
HETATM   12  C21 UNL     1       9.176  61.594  -6.210  1.00  0.00    -0.025 A 
HETATM   13  C18 UNL     1      10.038  58.921  -6.269  1.00  0.00     0.001 A 
HETATM   14  C19 UNL     1      10.881  59.933  -6.718  1.00  0.00     0.001 A 
HETATM   15  C20 UNL     1      10.454  61.261  -6.690  1.00  0.00     0.012 A 
HETATM   16  C22 UNL     1       8.733  62.927  -6.174  1.00  0.00     0.021 A 
ENDBRANCH   5   7
BRANCH   4  17
HETATM   17  C6  UNL     1       6.393  65.227  -8.092  1.00  0.00     0.051 A 
HETATM   18  C7  UNL     1       7.648  65.765  -8.426  1.00  0.00     0.031 A 
HETATM   19  C8  UNL     1       8.032  65.984  -9.754  1.00  0.00     0.002 A 
HETATM   20  C9  UNL     1       7.160  65.669 -10.789  1.00  0.00     0.000 A 
HETATM   21  C10 UNL     1       5.911  65.136 -10.493  1.00  0.00     0.002 A 
HETATM   22  C11 UNL     1       5.536  64.918  -9.161  1.00  0.00     0.031 A 
ENDBRANCH   4  17
BRANCH   1  23
HETATM   23  C4  UNL     1       3.498  65.127  -4.246  1.00  0.00    -0.012 A 
HETATM   24  C3  UNL     1       3.537  65.110  -2.846  1.00  0.00     0.015 A 
HETATM   25  C2  UNL     1       2.348  65.160  -2.111  1.00  0.00     0.020 A 
HETATM   26  C1  UNL     1       1.123  65.230  -2.774  1.00  0.00     0.011 A 
HETATM   27 BR1  UNL     1      -0.480  65.300  -1.777  1.00  0.00    -0.051 Br
HETATM   28  C25 UNL     1       1.074  65.249  -4.166  1.00  0.00     0.020 A 
HETATM   29  C24 UNL     1       2.262  65.199  -4.901  1.00  0.00     0.015 A 
ENDBRANCH   1  23
TORSDOF 3
ENDMDL
