MODEL 1
REMARK minimizedAffinity -9.19280148
REMARK CNNscore 0.848051786
REMARK CNNaffinity 8.12738132
REMARK  8 active torsions:
REMARK  status: ('A' for Active; 'I' for Inactive)
REMARK    1  A    between atoms: N1_5  and  C4_6 
REMARK    2  A    between atoms: C4_6  and  C5_7 
REMARK    3  A    between atoms: C6_8  and  C7_9 
REMARK       I    between atoms: C7_9  and  N2_11 
REMARK    4  A    between atoms: N2_11  and  C8_12 
REMARK    5  A    between atoms: C11_15  and  N3_16 
REMARK    6  A    between atoms: N3_16  and  C12_17 
REMARK    7  A    between atoms: C21_32  and  O3_33 
REMARK    8  A    between atoms: O3_33  and  C22_34 
ROOT
HETATM    1  C8  UNL     1      -4.197   5.665  13.332  1.00  0.00     0.069 A 
HETATM    2  C9  UNL     1      -5.396   4.941  13.403  1.00  0.00     0.050 A 
HETATM    3  C10 UNL     1      -5.590   3.743  12.669  1.00  0.00     0.037 A 
HETATM    4  C11 UNL     1      -6.755   2.947  12.700  1.00  0.00     0.119 A 
HETATM    5  N4  UNL     1      -6.852   1.799  12.005  1.00  0.00    -0.338 N 
ATOM      6  H4  UNL     1      -7.691   1.219  12.046  1.00  0.00     0.168 HD
HETATM    7  C18 UNL     1      -5.799   1.456  11.261  1.00  0.00     0.182 A 
HETATM    8  N5  UNL     1      -4.661   2.145  11.142  1.00  0.00    -0.351 N 
ATOM      9  H5  UNL     1      -3.903   1.824  10.539  1.00  0.00     0.166 HD
HETATM   10  C19 UNL     1      -4.561   3.274  11.849  1.00  0.00     0.049 A 
HETATM   11  C20 UNL     1      -3.395   4.021  11.745  1.00  0.00     0.069 A 
HETATM   12  C21 UNL     1      -3.194   5.210  12.463  1.00  0.00     0.098 A 
ENDROOT
BRANCH   1  13
HETATM   13  N2  UNL     1      -4.133   6.823  14.143  1.00  0.00    -0.321 N 
HETATM   14  C7  UNL     1      -4.595   8.087  13.849  1.00  0.00     0.245 C 
HETATM   15  O2  UNL     1      -5.079   8.501  12.806  1.00  0.00    -0.268 OA
HETATM   16  H9  UNL     1      -3.586   6.737  14.987  1.00  0.00     0.169 HD
BRANCH  14  17
HETATM   17  C6  UNL     1      -4.449   9.056  14.972  1.00  0.00     0.072 C 
HETATM   18  C5  UNL     1      -3.581  10.081  14.996  1.00  0.00     0.008 C 
BRANCH  18  19
HETATM   19  C4  UNL     1      -3.512  11.077  16.117  1.00  0.00     0.300 C 
BRANCH  19  20
HETATM   20  N1  UNL     1      -3.306  10.413  17.409  1.00  0.00     0.092 N 
HETATM   21  C3  UNL     1      -1.970   9.812  17.568  1.00  0.00     0.280 C 
HETATM   22  C2  UNL     1      -0.836  10.819  17.718  1.00  0.00     0.108 C 
HETATM   23  C1  UNL     1      -1.181  11.820  18.790  1.00  0.00     0.130 C 
HETATM   24  O1  UNL     1      -0.331  12.233  19.580  1.00  0.00    -0.298 OA
HETATM   25  C27 UNL     1      -2.568  12.409  18.753  1.00  0.00     0.108 C 
HETATM   26  C26 UNL     1      -3.594  11.304  18.545  1.00  0.00     0.280 C 
ENDBRANCH  19  20
ENDBRANCH  18  19
ENDBRANCH  14  17
ENDBRANCH   1  13
BRANCH  12  27
HETATM   27  O3  UNL     1      -2.116   6.020  12.231  1.00  0.00    -0.341 OA
BRANCH  27  28
HETATM   28  C22 UNL     1      -0.816   5.459  12.361  1.00  0.00     0.154 C 
HETATM   29  C23 UNL     1      -0.060   5.602  11.055  1.00  0.00     0.061 C 
HETATM   30  C24 UNL     1       1.377   5.443  11.498  1.00  0.00     0.170 C 
HETATM   31  O4  UNL     1       1.460   5.903  12.855  1.00  0.00    -0.389 OA
HETATM   32  C25 UNL     1       0.125   6.201  13.300  1.00  0.00     0.200 C 
ENDBRANCH  27  28
ENDBRANCH  12  27
BRANCH   4  33
HETATM   33  N3  UNL     1      -7.868   3.392  13.466  1.00  0.00    -0.342 N 
HETATM   34  H11 UNL     1      -7.970   2.776  14.266  1.00  0.00     0.167 HD
BRANCH  33  35
HETATM   35  C12 UNL     1      -8.230   4.721  13.788  1.00  0.00     0.035 A 
HETATM   36  C13 UNL     1      -9.060   5.499  12.967  1.00  0.00     0.032 A 
HETATM   37  C14 UNL     1      -9.458   6.783  13.351  1.00  0.00     0.046 A 
HETATM   38  C15 UNL     1      -9.050   7.292  14.576  1.00  0.00     0.138 A 
HETATM   39  F1  UNL     1      -9.445   8.523  14.930  1.00  0.00    -0.204 F 
HETATM   40  C16 UNL     1      -8.258   6.526  15.425  1.00  0.00     0.074 A 
HETATM   41 CL1  UNL     1      -7.766   7.136  16.958  1.00  0.00    -0.081 Cl
HETATM   42  C17 UNL     1      -7.861   5.242  15.039  1.00  0.00     0.056 A 
ENDBRANCH  33  35
ENDBRANCH   4  33
TORSDOF 8
ENDMDL
MODEL 2
REMARK minimizedAffinity -9.30121422
REMARK CNNscore 0.483981431
REMARK CNNaffinity 7.75908518
REMARK  8 active torsions:
REMARK  status: ('A' for Active; 'I' for Inactive)
REMARK    1  A    between atoms: N1_5  and  C4_6 
REMARK    2  A    between atoms: C4_6  and  C5_7 
REMARK    3  A    between atoms: C6_8  and  C7_9 
REMARK       I    between atoms: C7_9  and  N2_11 
REMARK    4  A    between atoms: N2_11  and  C8_12 
REMARK    5  A    between atoms: C11_15  and  N3_16 
REMARK    6  A    between atoms: N3_16  and  C12_17 
REMARK    7  A    between atoms: C21_32  and  O3_33 
REMARK    8  A    between atoms: O3_33  and  C22_34 
ROOT
HETATM    1  C8  UNL     1      -3.432   5.693  12.966  1.00  0.00     0.069 A 
HETATM    2  C9  UNL     1      -4.747   5.244  12.779  1.00  0.00     0.050 A 
HETATM    3  C10 UNL     1      -5.031   3.950  12.272  1.00  0.00     0.037 A 
HETATM    4  C11 UNL     1      -6.322   3.416  12.073  1.00  0.00     0.119 A 
HETATM    5  N4  UNL     1      -6.514   2.163  11.624  1.00  0.00    -0.338 N 
ATOM      6  H4  UNL     1      -7.450   1.777  11.499  1.00  0.00     0.168 HD
HETATM    7  C18 UNL     1      -5.419   1.449  11.350  1.00  0.00     0.182 A 
HETATM    8  N5  UNL     1      -4.156   1.863  11.480  1.00  0.00    -0.351 N 
ATOM      9  H5  UNL     1      -3.370   1.261  11.235  1.00  0.00     0.166 HD
HETATM   10  C19 UNL     1      -3.971   3.101  11.944  1.00  0.00     0.049 A 
HETATM   11  C20 UNL     1      -2.671   3.569  12.085  1.00  0.00     0.069 A 
HETATM   12  C21 UNL     1      -2.379   4.849  12.582  1.00  0.00     0.098 A 
ENDROOT
BRANCH   1  13
HETATM   13  N2  UNL     1      -3.300   6.993  13.509  1.00  0.00    -0.321 N 
HETATM   14  C7  UNL     1      -4.226   8.012  13.496  1.00  0.00     0.245 C 
HETATM   15  O2  UNL     1      -5.318   8.046  12.947  1.00  0.00    -0.268 OA
HETATM   16  H9  UNL     1      -2.380   7.236  13.847  1.00  0.00     0.169 HD
BRANCH  14  17
HETATM   17  C6  UNL     1      -3.795   9.226  14.246  1.00  0.00     0.072 C 
HETATM   18  C5  UNL     1      -4.356   9.667  15.384  1.00  0.00     0.008 C 
BRANCH  18  19
HETATM   19  C4  UNL     1      -3.850  10.857  16.146  1.00  0.00     0.300 C 
BRANCH  19  20
HETATM   20  N1  UNL     1      -2.951  10.452  17.232  1.00  0.00     0.092 N 
HETATM   21  C3  UNL     1      -1.580  10.974  17.102  1.00  0.00     0.280 C 
HETATM   22  C2  UNL     1      -1.448  12.474  17.331  1.00  0.00     0.108 C 
HETATM   23  C1  UNL     1      -2.120  12.855  18.625  1.00  0.00     0.130 C 
HETATM   24  O1  UNL     1      -1.629  13.695  19.381  1.00  0.00    -0.298 OA
HETATM   25  C27 UNL     1      -3.490  12.280  18.877  1.00  0.00     0.108 C 
HETATM   26  C26 UNL     1      -3.494  10.791  18.558  1.00  0.00     0.280 C 
ENDBRANCH  19  20
ENDBRANCH  18  19
ENDBRANCH  14  17
ENDBRANCH   1  13
BRANCH  12  27
HETATM   27  O3  UNL     1      -1.109   5.358  12.563  1.00  0.00    -0.341 OA
BRANCH  27  28
HETATM   28  C22 UNL     1      -0.386   5.313  11.339  1.00  0.00     0.154 C 
HETATM   29  C23 UNL     1       0.042   6.712  10.943  1.00  0.00     0.061 C 
HETATM   30  C24 UNL     1       1.167   6.438   9.970  1.00  0.00     0.170 C 
HETATM   31  O4  UNL     1       1.762   5.186  10.345  1.00  0.00    -0.389 OA
HETATM   32  C25 UNL     1       0.969   4.623  11.405  1.00  0.00     0.200 C 
ENDBRANCH  27  28
ENDBRANCH  12  27
BRANCH   4  33
HETATM   33  N3  UNL     1      -7.451   4.244  12.328  1.00  0.00    -0.342 N 
HETATM   34  H11 UNL     1      -8.262   3.815  11.894  1.00  0.00     0.167 HD
BRANCH  33  35
HETATM   35  C12 UNL     1      -7.796   4.903  13.531  1.00  0.00     0.035 A 
HETATM   36  C13 UNL     1      -7.302   4.503  14.781  1.00  0.00     0.032 A 
HETATM   37  C14 UNL     1      -7.605   5.222  15.941  1.00  0.00     0.046 A 
HETATM   38  C15 UNL     1      -8.386   6.366  15.858  1.00  0.00     0.138 A 
HETATM   39  F1  UNL     1      -8.662   7.046  16.980  1.00  0.00    -0.204 F 
HETATM   40  C16 UNL     1      -8.856   6.805  14.625  1.00  0.00     0.074 A 
HETATM   41 CL1  UNL     1      -9.805   8.237  14.504  1.00  0.00    -0.081 Cl
HETATM   42  C17 UNL     1      -8.553   6.085  13.466  1.00  0.00     0.056 A 
ENDBRANCH  33  35
ENDBRANCH   4  33
TORSDOF 8
ENDMDL
MODEL 3
REMARK minimizedAffinity -8.87521076
REMARK CNNscore 0.299644709
REMARK CNNaffinity 7.38991928
REMARK  8 active torsions:
REMARK  status: ('A' for Active; 'I' for Inactive)
REMARK    1  A    between atoms: N1_5  and  C4_6 
REMARK    2  A    between atoms: C4_6  and  C5_7 
REMARK    3  A    between atoms: C6_8  and  C7_9 
REMARK       I    between atoms: C7_9  and  N2_11 
REMARK    4  A    between atoms: N2_11  and  C8_12 
REMARK    5  A    between atoms: C11_15  and  N3_16 
REMARK    6  A    between atoms: N3_16  and  C12_17 
REMARK    7  A    between atoms: C21_32  and  O3_33 
REMARK    8  A    between atoms: O3_33  and  C22_34 
ROOT
HETATM    1  C8  UNL     1      -4.097   5.966  13.795  1.00  0.00     0.069 A 
HETATM    2  C9  UNL     1      -2.817   5.678  13.299  1.00  0.00     0.050 A 
HETATM    3  C10 UNL     1      -2.547   4.491  12.571  1.00  0.00     0.037 A 
HETATM    4  C11 UNL     1      -1.296   4.137  12.022  1.00  0.00     0.119 A 
HETATM    5  N4  UNL     1      -1.124   3.010  11.309  1.00  0.00    -0.338 N 
ATOM      6  H4  UNL     1      -0.220   2.769  10.900  1.00  0.00     0.168 HD
HETATM    7  C18 UNL     1      -2.192   2.223  11.161  1.00  0.00     0.182 A 
HETATM    8  N5  UNL     1      -3.412   2.450  11.656  1.00  0.00    -0.351 N 
ATOM      9  H5  UNL     1      -4.177   1.792  11.513  1.00  0.00     0.166 HD
HETATM   10  C19 UNL     1      -3.582   3.580  12.347  1.00  0.00     0.049 A 
HETATM   11  C20 UNL     1      -4.835   3.848  12.883  1.00  0.00     0.069 A 
HETATM   12  C21 UNL     1      -5.112   5.017  13.609  1.00  0.00     0.098 A 
ENDROOT
BRANCH   1  13
HETATM   13  N2  UNL     1      -4.226   7.201  14.473  1.00  0.00    -0.321 N 
HETATM   14  C7  UNL     1      -4.579   8.422  13.946  1.00  0.00     0.245 C 
HETATM   15  O2  UNL     1      -4.775   8.723  12.776  1.00  0.00    -0.268 OA
HETATM   16  H9  UNL     1      -3.916   7.208  15.434  1.00  0.00     0.169 HD
BRANCH  14  17
HETATM   17  C6  UNL     1      -4.713   9.502  14.964  1.00  0.00     0.072 C 
HETATM   18  C5  UNL     1      -3.758  10.397  15.267  1.00  0.00     0.008 C 
BRANCH  18  19
HETATM   19  C4  UNL     1      -3.955  11.512  16.252  1.00  0.00     0.300 C 
BRANCH  19  20
HETATM   20  N1  UNL     1      -2.885  11.534  17.255  1.00  0.00     0.092 N 
HETATM   21  C3  UNL     1      -2.094  12.777  17.260  1.00  0.00     0.280 C 
HETATM   22  C2  UNL     1      -2.836  13.999  17.787  1.00  0.00     0.108 C 
HETATM   23  C1  UNL     1      -3.470  13.679  19.116  1.00  0.00     0.130 C 
HETATM   24  O1  UNL     1      -3.486  14.500  20.034  1.00  0.00    -0.298 OA
HETATM   25  C27 UNL     1      -4.217  12.374  19.219  1.00  0.00     0.108 C 
HETATM   26  C26 UNL     1      -3.387  11.252  18.610  1.00  0.00     0.280 C 
ENDBRANCH  19  20
ENDBRANCH  18  19
ENDBRANCH  14  17
ENDBRANCH   1  13
BRANCH  12  27
HETATM   27  O3  UNL     1      -6.299   5.193  14.268  1.00  0.00    -0.341 OA
BRANCH  27  28
HETATM   28  C22 UNL     1      -7.284   6.022  13.666  1.00  0.00     0.154 C 
HETATM   29  C23 UNL     1      -8.344   5.164  13.005  1.00  0.00     0.061 C 
HETATM   30  C24 UNL     1      -9.504   6.126  12.882  1.00  0.00     0.170 C 
HETATM   31  O4  UNL     1      -9.389   7.075  13.953  1.00  0.00    -0.389 OA
HETATM   32  C25 UNL     1      -8.147   6.820  14.634  1.00  0.00     0.200 C 
ENDBRANCH  27  28
ENDBRANCH  12  27
BRANCH   4  33
HETATM   33  N3  UNL     1      -0.179   4.986  12.261  1.00  0.00    -0.342 N 
HETATM   34  H11 UNL     1       0.342   4.611  13.046  1.00  0.00     0.167 HD
BRANCH  33  35
HETATM   35  C12 UNL     1       0.679   5.586  11.310  1.00  0.00     0.035 A 
HETATM   36  C13 UNL     1       1.951   5.076  11.011  1.00  0.00     0.032 A 
HETATM   37  C14 UNL     1       2.745   5.650  10.013  1.00  0.00     0.046 A 
HETATM   38  C15 UNL     1       2.260   6.728   9.284  1.00  0.00     0.138 A 
HETATM   39  F1  UNL     1       3.032   7.263   8.328  1.00  0.00    -0.204 F 
HETATM   40  C16 UNL     1       0.987   7.228   9.536  1.00  0.00     0.074 A 
HETATM   41 CL1  UNL     1       0.364   8.548   8.622  1.00  0.00    -0.081 Cl
HETATM   42  C17 UNL     1       0.196   6.653  10.534  1.00  0.00     0.056 A 
ENDBRANCH  33  35
ENDBRANCH   4  33
TORSDOF 8
ENDMDL
MODEL 4
REMARK minimizedAffinity -8.83214569
REMARK CNNscore 0.225067869
REMARK CNNaffinity 7.12874603
REMARK  8 active torsions:
REMARK  status: ('A' for Active; 'I' for Inactive)
REMARK    1  A    between atoms: N1_5  and  C4_6 
REMARK    2  A    between atoms: C4_6  and  C5_7 
REMARK    3  A    between atoms: C6_8  and  C7_9 
REMARK       I    between atoms: C7_9  and  N2_11 
REMARK    4  A    between atoms: N2_11  and  C8_12 
REMARK    5  A    between atoms: C11_15  and  N3_16 
REMARK    6  A    between atoms: N3_16  and  C12_17 
REMARK    7  A    between atoms: C21_32  and  O3_33 
REMARK    8  A    between atoms: O3_33  and  C22_34 
ROOT
HETATM    1  C8  UNL     1      -3.886   6.628  14.690  1.00  0.00     0.069 A 
HETATM    2  C9  UNL     1      -2.788   6.202  13.929  1.00  0.00     0.050 A 
HETATM    3  C10 UNL     1      -2.923   5.245  12.891  1.00  0.00     0.037 A 
HETATM    4  C11 UNL     1      -1.876   4.779  12.068  1.00  0.00     0.119 A 
HETATM    5  N4  UNL     1      -2.087   3.897  11.076  1.00  0.00    -0.338 N 
ATOM      6  H4  UNL     1      -1.329   3.577  10.473  1.00  0.00     0.168 HD
HETATM    7  C18 UNL     1      -3.339   3.459  10.918  1.00  0.00     0.182 A 
HETATM    8  N5  UNL     1      -4.396   3.814  11.652  1.00  0.00    -0.351 N 
ATOM      9  H5  UNL     1      -5.322   3.424  11.479  1.00  0.00     0.166 HD
HETATM   10  C19 UNL     1      -4.184   4.706  12.624  1.00  0.00     0.049 A 
HETATM   11  C20 UNL     1      -5.259   5.095  13.414  1.00  0.00     0.069 A 
HETATM   12  C21 UNL     1      -5.135   6.038  14.445  1.00  0.00     0.098 A 
ENDROOT
BRANCH   1  13
HETATM   13  N2  UNL     1      -3.608   7.611  15.669  1.00  0.00    -0.321 N 
HETATM   14  C7  UNL     1      -3.609   8.979  15.517  1.00  0.00     0.245 C 
HETATM   15  O2  UNL     1      -3.766   9.635  14.497  1.00  0.00    -0.268 OA
HETATM   16  H9  UNL     1      -3.260   7.265  16.551  1.00  0.00     0.169 HD
BRANCH  14  17
HETATM   17  C6  UNL     1      -3.363   9.726  16.784  1.00  0.00     0.072 C 
HETATM   18  C5  UNL     1      -2.169   9.840  17.389  1.00  0.00     0.008 C 
BRANCH  18  19
HETATM   19  C4  UNL     1      -1.949  10.658  18.629  1.00  0.00     0.300 C 
BRANCH  19  20
HETATM   20  N1  UNL     1      -0.974  11.728  18.396  1.00  0.00     0.092 N 
HETATM   21  C3  UNL     1      -0.197  12.103  19.591  1.00  0.00     0.280 C 
HETATM   22  C2  UNL     1       0.813  11.056  20.043  1.00  0.00     0.108 C 
HETATM   23  C1  UNL     1       1.666  10.631  18.875  1.00  0.00     0.130 C 
HETATM   24  O1  UNL     1       2.873  10.420  19.004  1.00  0.00    -0.298 OA
HETATM   25  C27 UNL     1       0.951  10.324  17.584  1.00  0.00     0.108 C 
HETATM   26  C26 UNL     1      -0.064  11.419  17.281  1.00  0.00     0.280 C 
ENDBRANCH  19  20
ENDBRANCH  18  19
ENDBRANCH  14  17
ENDBRANCH   1  13
BRANCH  12  27
HETATM   27  O3  UNL     1      -6.158   6.291  15.318  1.00  0.00    -0.341 OA
BRANCH  27  28
HETATM   28  C22 UNL     1      -7.277   7.030  14.845  1.00  0.00     0.154 C 
HETATM   29  C23 UNL     1      -8.515   6.648  15.631  1.00  0.00     0.061 C 
HETATM   30  C24 UNL     1      -9.432   7.823  15.374  1.00  0.00     0.170 C 
HETATM   31  O4  UNL     1      -8.602   8.972  15.147  1.00  0.00    -0.389 OA
HETATM   32  C25 UNL     1      -7.234   8.527  15.117  1.00  0.00     0.200 C 
ENDBRANCH  27  28
ENDBRANCH  12  27
BRANCH   4  33
HETATM   33  N3  UNL     1      -0.552   5.237  12.320  1.00  0.00    -0.342 N 
HETATM   34  H11 UNL     1      -0.133   4.629  13.016  1.00  0.00     0.167 HD
BRANCH  33  35
HETATM   35  C12 UNL     1       0.407   5.690  11.385  1.00  0.00     0.035 A 
HETATM   36  C13 UNL     1       1.630   5.035  11.178  1.00  0.00     0.032 A 
HETATM   37  C14 UNL     1       2.524   5.466  10.194  1.00  0.00     0.046 A 
HETATM   38  C15 UNL     1       2.190   6.544   9.386  1.00  0.00     0.138 A 
HETATM   39  F1  UNL     1       3.058   6.941   8.444  1.00  0.00    -0.204 F 
HETATM   40  C16 UNL     1       0.967   7.187   9.545  1.00  0.00     0.074 A 
HETATM   41 CL1  UNL     1       0.531   8.510   8.533  1.00  0.00    -0.081 Cl
HETATM   42  C17 UNL     1       0.075   6.755  10.531  1.00  0.00     0.056 A 
ENDBRANCH  33  35
ENDBRANCH   4  33
TORSDOF 8
ENDMDL
MODEL 5
REMARK minimizedAffinity -9.02357388
REMARK CNNscore 0.16339466
REMARK CNNaffinity 7.24083853
REMARK  8 active torsions:
REMARK  status: ('A' for Active; 'I' for Inactive)
REMARK    1  A    between atoms: N1_5  and  C4_6 
REMARK    2  A    between atoms: C4_6  and  C5_7 
REMARK    3  A    between atoms: C6_8  and  C7_9 
REMARK       I    between atoms: C7_9  and  N2_11 
REMARK    4  A    between atoms: N2_11  and  C8_12 
REMARK    5  A    between atoms: C11_15  and  N3_16 
REMARK    6  A    between atoms: N3_16  and  C12_17 
REMARK    7  A    between atoms: C21_32  and  O3_33 
REMARK    8  A    between atoms: O3_33  and  C22_34 
ROOT
HETATM    1  C8  UNL     1      -3.556   6.044  13.698  1.00  0.00     0.069 A 
HETATM    2  C9  UNL     1      -2.306   5.679  13.179  1.00  0.00     0.050 A 
HETATM    3  C10 UNL     1      -2.112   4.455  12.489  1.00  0.00     0.037 A 
HETATM    4  C11 UNL     1      -0.895   4.023  11.920  1.00  0.00     0.119 A 
HETATM    5  N4  UNL     1      -0.795   2.865  11.244  1.00  0.00    -0.338 N 
ATOM      6  H4  UNL     1       0.084   2.566  10.821  1.00  0.00     0.168 HD
HETATM    7  C18 UNL     1      -1.903   2.124  11.154  1.00  0.00     0.182 A 
HETATM    8  N5  UNL     1      -3.096   2.426  11.673  1.00  0.00    -0.351 N 
ATOM      9  H5  UNL     1      -3.895   1.800  11.574  1.00  0.00     0.166 HD
HETATM   10  C19 UNL     1      -3.194   3.587  12.326  1.00  0.00     0.049 A 
HETATM   11  C20 UNL     1      -4.418   3.932  12.886  1.00  0.00     0.069 A 
HETATM   12  C21 UNL     1      -4.620   5.138  13.574  1.00  0.00     0.098 A 
ENDROOT
BRANCH   1  13
HETATM   13  N2  UNL     1      -3.609   7.307  14.334  1.00  0.00    -0.321 N 
HETATM   14  C7  UNL     1      -4.193   8.464  13.869  1.00  0.00     0.245 C 
HETATM   15  O2  UNL     1      -4.714   8.674  12.783  1.00  0.00    -0.268 OA
HETATM   16  H9  UNL     1      -3.059   7.397  15.176  1.00  0.00     0.169 HD
BRANCH  14  17
HETATM   17  C6  UNL     1      -4.147   9.594  14.840  1.00  0.00     0.072 C 
HETATM   18  C5  UNL     1      -3.514   9.565  16.024  1.00  0.00     0.008 C 
BRANCH  18  19
HETATM   19  C4  UNL     1      -3.434  10.748  16.945  1.00  0.00     0.300 C 
BRANCH  19  20
HETATM   20  N1  UNL     1      -2.273  11.589  16.635  1.00  0.00     0.092 N 
HETATM   21  C3  UNL     1      -1.800  12.402  17.769  1.00  0.00     0.280 C 
HETATM   22  C2  UNL     1      -1.133  11.607  18.884  1.00  0.00     0.108 C 
HETATM   23  C1  UNL     1      -0.075  10.703  18.305  1.00  0.00     0.130 C 
HETATM   24  O1  UNL     1       1.001  10.525  18.878  1.00  0.00    -0.298 OA
HETATM   25  C27 UNL     1      -0.452   9.909  17.081  1.00  0.00     0.108 C 
HETATM   26  C26 UNL     1      -1.156  10.810  16.075  1.00  0.00     0.280 C 
ENDBRANCH  19  20
ENDBRANCH  18  19
ENDBRANCH  14  17
ENDBRANCH   1  13
BRANCH  12  27
HETATM   27  O3  UNL     1      -5.778   5.393  14.259  1.00  0.00    -0.341 OA
BRANCH  27  28
HETATM   28  C22 UNL     1      -6.854   5.998  13.553  1.00  0.00     0.154 C 
HETATM   29  C23 UNL     1      -7.765   4.927  12.987  1.00  0.00     0.061 C 
HETATM   30  C24 UNL     1      -9.045   5.693  12.741  1.00  0.00     0.170 C 
HETATM   31  O4  UNL     1      -9.092   6.765  13.694  1.00  0.00    -0.389 OA
HETATM   32  C25 UNL     1      -7.846   6.771  14.412  1.00  0.00     0.200 C 
ENDBRANCH  27  28
ENDBRANCH  12  27
BRANCH   4  33
HETATM   33  N3  UNL     1       0.267   4.826  12.097  1.00  0.00    -0.342 N 
HETATM   34  H11 UNL     1       0.893   4.342  12.732  1.00  0.00     0.167 HD
BRANCH  33  35
HETATM   35  C12 UNL     1       0.983   5.552  11.117  1.00  0.00     0.035 A 
HETATM   36  C13 UNL     1       2.270   5.187  10.696  1.00  0.00     0.032 A 
HETATM   37  C14 UNL     1       2.921   5.883   9.673  1.00  0.00     0.046 A 
HETATM   38  C15 UNL     1       2.276   6.938   9.041  1.00  0.00     0.138 A 
HETATM   39  F1  UNL     1       2.913   7.591   8.059  1.00  0.00    -0.204 F 
HETATM   40  C16 UNL     1       0.985   7.295   9.414  1.00  0.00     0.074 A 
HETATM   41 CL1  UNL     1       0.165   8.585   8.621  1.00  0.00    -0.081 Cl
HETATM   42  C17 UNL     1       0.337   6.599  10.438  1.00  0.00     0.056 A 
ENDBRANCH  33  35
ENDBRANCH   4  33
TORSDOF 8
ENDMDL
MODEL 6
REMARK minimizedAffinity -9.08426762
REMARK CNNscore 0.144361615
REMARK CNNaffinity 7.09354067
REMARK  8 active torsions:
REMARK  status: ('A' for Active; 'I' for Inactive)
REMARK    1  A    between atoms: N1_5  and  C4_6 
REMARK    2  A    between atoms: C4_6  and  C5_7 
REMARK    3  A    between atoms: C6_8  and  C7_9 
REMARK       I    between atoms: C7_9  and  N2_11 
REMARK    4  A    between atoms: N2_11  and  C8_12 
REMARK    5  A    between atoms: C11_15  and  N3_16 
REMARK    6  A    between atoms: N3_16  and  C12_17 
REMARK    7  A    between atoms: C21_32  and  O3_33 
REMARK    8  A    between atoms: O3_33  and  C22_34 
ROOT
HETATM    1  C8  UNL     1      -2.876   5.722  13.625  1.00  0.00     0.069 A 
HETATM    2  C9  UNL     1      -4.165   5.184  13.747  1.00  0.00     0.050 A 
HETATM    3  C10 UNL     1      -4.694   4.285  12.786  1.00  0.00     0.037 A 
HETATM    4  C11 UNL     1      -5.970   3.686  12.845  1.00  0.00     0.119 A 
HETATM    5  N4  UNL     1      -6.390   2.810  11.915  1.00  0.00    -0.338 N 
ATOM      6  H4  UNL     1      -7.308   2.367  11.973  1.00  0.00     0.168 HD
HETATM    7  C18 UNL     1      -5.548   2.548  10.913  1.00  0.00     0.182 A 
HETATM    8  N5  UNL     1      -4.332   3.075  10.748  1.00  0.00    -0.351 N 
ATOM      9  H5  UNL     1      -3.750   2.836   9.945  1.00  0.00     0.166 HD
HETATM   10  C19 UNL     1      -3.912   3.929  11.685  1.00  0.00     0.049 A 
HETATM   11  C20 UNL     1      -2.655   4.503  11.544  1.00  0.00     0.069 A 
HETATM   12  C21 UNL     1      -2.123   5.397  12.487  1.00  0.00     0.098 A 
ENDROOT
BRANCH   1  13
HETATM   13  N2  UNL     1      -2.468   6.579  14.675  1.00  0.00    -0.321 N 
HETATM   14  C7  UNL     1      -3.165   7.632  15.225  1.00  0.00     0.245 C 
HETATM   15  O2  UNL     1      -4.239   8.103  14.877  1.00  0.00    -0.268 OA
HETATM   16  H9  UNL     1      -1.511   6.477  14.978  1.00  0.00     0.169 HD
BRANCH  14  17
HETATM   17  C6  UNL     1      -2.478   8.268  16.385  1.00  0.00     0.072 C 
HETATM   18  C5  UNL     1      -2.365   9.592  16.580  1.00  0.00     0.008 C 
BRANCH  18  19
HETATM   19  C4  UNL     1      -1.724  10.194  17.797  1.00  0.00     0.300 C 
BRANCH  19  20
HETATM   20  N1  UNL     1      -0.538  10.980  17.442  1.00  0.00     0.092 N 
HETATM   21  C3  UNL     1      -0.778  12.432  17.379  1.00  0.00     0.280 C 
HETATM   22  C2  UNL     1      -1.013  13.094  18.731  1.00  0.00     0.108 C 
HETATM   23  C1  UNL     1       0.080  12.702  19.690  1.00  0.00     0.130 C 
HETATM   24  O1  UNL     1       0.558  13.512  20.485  1.00  0.00    -0.298 OA
HETATM   25  C27 UNL     1       0.452  11.242  19.741  1.00  0.00     0.108 C 
HETATM   26  C26 UNL     1       0.603  10.696  18.327  1.00  0.00     0.280 C 
ENDBRANCH  19  20
ENDBRANCH  18  19
ENDBRANCH  14  17
ENDBRANCH   1  13
BRANCH  12  27
HETATM   27  O3  UNL     1      -0.959   6.079  12.258  1.00  0.00    -0.341 OA
BRANCH  27  28
HETATM   28  C22 UNL     1      -0.157   5.684  11.152  1.00  0.00     0.154 C 
HETATM   29  C23 UNL     1       0.486   6.904  10.521  1.00  0.00     0.061 C 
HETATM   30  C24 UNL     1       1.636   6.295   9.750  1.00  0.00     0.170 C 
HETATM   31  O4  UNL     1       2.025   5.096  10.435  1.00  0.00    -0.389 OA
HETATM   32  C25 UNL     1       1.084   4.874  11.500  1.00  0.00     0.200 C 
ENDBRANCH  27  28
ENDBRANCH  12  27
BRANCH   4  33
HETATM   33  N3  UNL     1      -6.847   4.047  13.906  1.00  0.00    -0.342 N 
HETATM   34  H11 UNL     1      -6.333   3.982  14.779  1.00  0.00     0.167 HD
BRANCH  33  35
HETATM   35  C12 UNL     1      -7.790   5.100  13.939  1.00  0.00     0.035 A 
HETATM   36  C13 UNL     1      -8.680   5.352  12.884  1.00  0.00     0.032 A 
HETATM   37  C14 UNL     1      -9.649   6.356  12.979  1.00  0.00     0.046 A 
HETATM   38  C15 UNL     1      -9.754   7.102  14.145  1.00  0.00     0.138 A 
HETATM   39  F1  UNL     1     -10.691   8.057  14.221  1.00  0.00    -0.204 F 
HETATM   40  C16 UNL     1      -8.908   6.847  15.220  1.00  0.00     0.074 A 
HETATM   41 CL1  UNL     1      -9.044   7.748  16.680  1.00  0.00    -0.081 Cl
HETATM   42  C17 UNL     1      -7.939   5.843  15.122  1.00  0.00     0.056 A 
ENDBRANCH  33  35
ENDBRANCH   4  33
TORSDOF 8
ENDMDL
MODEL 7
REMARK minimizedAffinity -9.05677128
REMARK CNNscore 0.14022027
REMARK CNNaffinity 6.89352226
REMARK  8 active torsions:
REMARK  status: ('A' for Active; 'I' for Inactive)
REMARK    1  A    between atoms: N1_5  and  C4_6 
REMARK    2  A    between atoms: C4_6  and  C5_7 
REMARK    3  A    between atoms: C6_8  and  C7_9 
REMARK       I    between atoms: C7_9  and  N2_11 
REMARK    4  A    between atoms: N2_11  and  C8_12 
REMARK    5  A    between atoms: C11_15  and  N3_16 
REMARK    6  A    between atoms: N3_16  and  C12_17 
REMARK    7  A    between atoms: C21_32  and  O3_33 
REMARK    8  A    between atoms: O3_33  and  C22_34 
ROOT
HETATM    1  C8  UNL     1      -4.154   6.192  15.008  1.00  0.00     0.069 A 
HETATM    2  C9  UNL     1      -5.550   6.135  15.122  1.00  0.00     0.050 A 
HETATM    3  C10 UNL     1      -6.340   5.342  14.250  1.00  0.00     0.037 A 
HETATM    4  C11 UNL     1      -7.744   5.215  14.310  1.00  0.00     0.119 A 
HETATM    5  N4  UNL     1      -8.423   4.412  13.472  1.00  0.00    -0.338 N 
ATOM      6  H4  UNL     1      -9.437   4.310  13.532  1.00  0.00     0.168 HD
HETATM    7  C18 UNL     1      -7.706   3.752  12.558  1.00  0.00     0.182 A 
HETATM    8  N5  UNL     1      -6.382   3.818  12.400  1.00  0.00    -0.351 N 
ATOM      9  H5  UNL     1      -5.906   3.293  11.666  1.00  0.00     0.166 HD
HETATM   10  C19 UNL     1      -5.710   4.602  13.247  1.00  0.00     0.049 A 
HETATM   11  C20 UNL     1      -4.332   4.701  13.108  1.00  0.00     0.069 A 
HETATM   12  C21 UNL     1      -3.541   5.486  13.962  1.00  0.00     0.098 A 
ENDROOT
BRANCH   1  13
HETATM   13  N2  UNL     1      -3.494   6.999  15.966  1.00  0.00    -0.321 N 
HETATM   14  C7  UNL     1      -3.069   8.300  15.825  1.00  0.00     0.245 C 
HETATM   15  O2  UNL     1      -3.091   9.009  14.829  1.00  0.00    -0.268 OA
HETATM   16  H9  UNL     1      -3.204   6.527  16.810  1.00  0.00     0.169 HD
BRANCH  14  17
HETATM   17  C6  UNL     1      -2.492   8.882  17.070  1.00  0.00     0.072 C 
HETATM   18  C5  UNL     1      -2.175  10.177  17.239  1.00  0.00     0.008 C 
BRANCH  18  19
HETATM   19  C4  UNL     1      -1.659  10.738  18.532  1.00  0.00     0.300 C 
BRANCH  19  20
HETATM   20  N1  UNL     1      -0.654  11.780  18.298  1.00  0.00     0.092 N 
HETATM   21  C3  UNL     1       0.035  12.234  19.519  1.00  0.00     0.280 C 
HETATM   22  C2  UNL     1       0.994  11.214  20.120  1.00  0.00     0.108 C 
HETATM   23  C1  UNL     1       1.927  10.699  19.054  1.00  0.00     0.130 C 
HETATM   24  O1  UNL     1       3.118  10.488  19.290  1.00  0.00    -0.298 OA
HETATM   25  C27 UNL     1       1.307  10.305  17.738  1.00  0.00     0.108 C 
HETATM   26  C26 UNL     1       0.333  11.384  17.281  1.00  0.00     0.280 C 
ENDBRANCH  19  20
ENDBRANCH  18  19
ENDBRANCH  14  17
ENDBRANCH   1  13
BRANCH  12  27
HETATM   27  O3  UNL     1      -2.213   5.705  13.718  1.00  0.00    -0.341 OA
BRANCH  27  28
HETATM   28  C22 UNL     1      -1.734   5.510  12.393  1.00  0.00     0.154 C 
HETATM   29  C23 UNL     1      -0.787   6.633  12.018  1.00  0.00     0.061 C 
HETATM   30  C24 UNL     1      -0.020   6.031  10.862  1.00  0.00     0.170 C 
HETATM   31  O4  UNL     1       0.007   4.610  11.060  1.00  0.00    -0.389 OA
HETATM   32  C25 UNL     1      -0.819   4.309  12.198  1.00  0.00     0.200 C 
ENDBRANCH  27  28
ENDBRANCH  12  27
BRANCH   4  33
HETATM   33  N3  UNL     1      -8.461   5.986  15.267  1.00  0.00    -0.342 N 
HETATM   34  H11 UNL     1      -7.928   5.995  16.131  1.00  0.00     0.167 HD
BRANCH  33  35
HETATM   35  C12 UNL     1      -9.143   7.209  15.068  1.00  0.00     0.035 A 
HETATM   36  C13 UNL     1      -8.625   8.442  15.492  1.00  0.00     0.032 A 
HETATM   37  C14 UNL     1      -9.290   9.639  15.215  1.00  0.00     0.046 A 
HETATM   38  C15 UNL     1     -10.471   9.617  14.485  1.00  0.00     0.138 A 
HETATM   39  F1  UNL     1     -11.093  10.776  14.224  1.00  0.00    -0.204 F 
HETATM   40  C16 UNL     1     -10.986   8.411  14.021  1.00  0.00     0.074 A 
HETATM   41 CL1  UNL     1     -12.437   8.372  13.094  1.00  0.00    -0.081 Cl
HETATM   42  C17 UNL     1     -10.320   7.214  14.300  1.00  0.00     0.056 A 
ENDBRANCH  33  35
ENDBRANCH   4  33
TORSDOF 8
ENDMDL
MODEL 8
REMARK minimizedAffinity -8.10846329
REMARK CNNscore 0.117087618
REMARK CNNaffinity 5.80117178
REMARK  8 active torsions:
REMARK  status: ('A' for Active; 'I' for Inactive)
REMARK    1  A    between atoms: N1_5  and  C4_6 
REMARK    2  A    between atoms: C4_6  and  C5_7 
REMARK    3  A    between atoms: C6_8  and  C7_9 
REMARK       I    between atoms: C7_9  and  N2_11 
REMARK    4  A    between atoms: N2_11  and  C8_12 
REMARK    5  A    between atoms: C11_15  and  N3_16 
REMARK    6  A    between atoms: N3_16  and  C12_17 
REMARK    7  A    between atoms: C21_32  and  O3_33 
REMARK    8  A    between atoms: O3_33  and  C22_34 
ROOT
HETATM    1  C8  UNL     1      -0.622   9.332  15.473  1.00  0.00     0.069 A 
HETATM    2  C9  UNL     1       0.244   9.683  16.519  1.00  0.00     0.050 A 
HETATM    3  C10 UNL     1      -0.123  10.633  17.506  1.00  0.00     0.037 A 
HETATM    4  C11 UNL     1       0.678  11.026  18.599  1.00  0.00     0.119 A 
HETATM    5  N4  UNL     1       0.247  11.906  19.520  1.00  0.00    -0.338 N 
ATOM      6  H4  UNL     1       0.825  12.173  20.317  1.00  0.00     0.168 HD
HETATM    7  C18 UNL     1      -0.975  12.413  19.340  1.00  0.00     0.182 A 
HETATM    8  N5  UNL     1      -1.806  12.129  18.333  1.00  0.00    -0.351 N 
ATOM      9  H5  UNL     1      -2.722  12.569  18.256  1.00  0.00     0.166 HD
HETATM   10  C19 UNL     1      -1.380  11.240  17.432  1.00  0.00     0.049 A 
HETATM   11  C20 UNL     1      -2.213  10.924  16.366  1.00  0.00     0.069 A 
HETATM   12  C21 UNL     1      -1.858   9.989  15.382  1.00  0.00     0.098 A 
ENDROOT
BRANCH   1  13
HETATM   13  N2  UNL     1      -0.135   8.348  14.580  1.00  0.00    -0.321 N 
HETATM   14  C7  UNL     1       0.848   7.412  14.809  1.00  0.00     0.245 C 
HETATM   15  O2  UNL     1       1.566   7.280  15.791  1.00  0.00    -0.268 OA
HETATM   16  H9  UNL     1      -0.470   8.414  13.630  1.00  0.00     0.169 HD
BRANCH  14  17
HETATM   17  C6  UNL     1       1.049   6.462  13.678  1.00  0.00     0.072 C 
HETATM   18  C5  UNL     1       1.678   6.756  12.528  1.00  0.00     0.008 C 
BRANCH  18  19
HETATM   19  C4  UNL     1       1.920   5.751  11.439  1.00  0.00     0.300 C 
BRANCH  19  20
HETATM   20  N1  UNL     1       3.223   5.960  10.800  1.00  0.00     0.092 N 
HETATM   21  C3  UNL     1       3.288   5.493   9.404  1.00  0.00     0.280 C 
HETATM   22  C2  UNL     1       2.486   6.333   8.418  1.00  0.00     0.108 C 
HETATM   23  C1  UNL     1       2.832   7.790   8.586  1.00  0.00     0.130 C 
HETATM   24  O1  UNL     1       2.943   8.540   7.615  1.00  0.00    -0.298 OA
HETATM   25  C27 UNL     1       2.883   8.321   9.996  1.00  0.00     0.108 C 
HETATM   26  C26 UNL     1       3.665   7.361  10.883  1.00  0.00     0.280 C 
ENDBRANCH  19  20
ENDBRANCH  18  19
ENDBRANCH  14  17
ENDBRANCH   1  13
BRANCH  12  27
HETATM   27  O3  UNL     1      -2.611   9.807  14.254  1.00  0.00    -0.341 OA
BRANCH  27  28
HETATM   28  C22 UNL     1      -3.587   8.773  14.259  1.00  0.00     0.154 C 
HETATM   29  C23 UNL     1      -4.867   9.276  14.896  1.00  0.00     0.061 C 
HETATM   30  C24 UNL     1      -5.891   8.291  14.378  1.00  0.00     0.170 C 
HETATM   31  O4  UNL     1      -5.425   7.819  13.105  1.00  0.00    -0.389 OA
HETATM   32  C25 UNL     1      -4.110   8.361  12.890  1.00  0.00     0.200 C 
ENDBRANCH  27  28
ENDBRANCH  12  27
BRANCH   4  33
HETATM   33  N3  UNL     1       1.995  10.496  18.707  1.00  0.00    -0.342 N 
HETATM   34  H11 UNL     1       2.525  10.796  17.896  1.00  0.00     0.167 HD
BRANCH  33  35
HETATM   35  C12 UNL     1       2.812  10.419  19.859  1.00  0.00     0.035 A 
HETATM   36  C13 UNL     1       3.954  11.215  20.031  1.00  0.00     0.032 A 
HETATM   37  C14 UNL     1       4.698  11.166  21.213  1.00  0.00     0.046 A 
HETATM   38  C15 UNL     1       4.290  10.338  22.250  1.00  0.00     0.138 A 
HETATM   39  F1  UNL     1       5.012  10.307  23.378  1.00  0.00    -0.204 F 
HETATM   40  C16 UNL     1       3.139   9.567  22.119  1.00  0.00     0.074 A 
HETATM   41 CL1  UNL     1       2.607   8.555  23.406  1.00  0.00    -0.081 Cl
HETATM   42  C17 UNL     1       2.397   9.616  20.935  1.00  0.00     0.056 A 
ENDBRANCH  33  35
ENDBRANCH   4  33
TORSDOF 8
ENDMDL
MODEL 9
REMARK minimizedAffinity -8.4209404
REMARK CNNscore 0.101732776
REMARK CNNaffinity 6.50166082
REMARK  8 active torsions:
REMARK  status: ('A' for Active; 'I' for Inactive)
REMARK    1  A    between atoms: N1_5  and  C4_6 
REMARK    2  A    between atoms: C4_6  and  C5_7 
REMARK    3  A    between atoms: C6_8  and  C7_9 
REMARK       I    between atoms: C7_9  and  N2_11 
REMARK    4  A    between atoms: N2_11  and  C8_12 
REMARK    5  A    between atoms: C11_15  and  N3_16 
REMARK    6  A    between atoms: N3_16  and  C12_17 
REMARK    7  A    between atoms: C21_32  and  O3_33 
REMARK    8  A    between atoms: O3_33  and  C22_34 
ROOT
HETATM    1  C8  UNL     1       0.174   7.234  13.263  1.00  0.00     0.069 A 
HETATM    2  C9  UNL     1      -1.046   6.562  13.097  1.00  0.00     0.050 A 
HETATM    3  C10 UNL     1      -1.115   5.272  12.511  1.00  0.00     0.037 A 
HETATM    4  C11 UNL     1      -2.296   4.522  12.327  1.00  0.00     0.119 A 
HETATM    5  N4  UNL     1      -2.280   3.286  11.798  1.00  0.00    -0.338 N 
ATOM      6  H4  UNL     1      -3.136   2.741  11.684  1.00  0.00     0.168 HD
HETATM    7  C18 UNL     1      -1.090   2.805  11.430  1.00  0.00     0.182 A 
HETATM    8  N5  UNL     1       0.082   3.437  11.538  1.00  0.00    -0.351 N 
ATOM      9  H5  UNL     1       0.951   3.008  11.220  1.00  0.00     0.166 HD
HETATM   10  C19 UNL     1       0.063   4.656  12.082  1.00  0.00     0.049 A 
HETATM   11  C20 UNL     1       1.261   5.347  12.204  1.00  0.00     0.069 A 
HETATM   12  C21 UNL     1       1.341   6.626  12.778  1.00  0.00     0.098 A 
ENDROOT
BRANCH   1  13
HETATM   13  N2  UNL     1       0.095   8.499  13.892  1.00  0.00    -0.321 N 
HETATM   14  C7  UNL     1      -0.738   9.549  13.576  1.00  0.00     0.245 C 
HETATM   15  O2  UNL     1      -1.523   9.650  12.643  1.00  0.00    -0.268 OA
HETATM   16  H9  UNL     1       0.808   8.693  14.579  1.00  0.00     0.169 HD
BRANCH  14  17
HETATM   17  C6  UNL     1      -0.625  10.708  14.507  1.00  0.00     0.072 C 
HETATM   18  C5  UNL     1      -1.018  10.704  15.791  1.00  0.00     0.008 C 
BRANCH  18  19
HETATM   19  C4  UNL     1      -0.826  11.871  16.716  1.00  0.00     0.300 C 
BRANCH  19  20
HETATM   20  N1  UNL     1      -1.453  11.628  18.019  1.00  0.00     0.092 N 
HETATM   21  C3  UNL     1      -0.509  11.630  19.150  1.00  0.00     0.280 C 
HETATM   22  C2  UNL     1       0.062  12.999  19.496  1.00  0.00     0.108 C 
HETATM   23  C1  UNL     1      -1.056  13.998  19.640  1.00  0.00     0.130 C 
HETATM   24  O1  UNL     1      -1.036  14.862  20.518  1.00  0.00    -0.298 OA
HETATM   25  C27 UNL     1      -2.119  13.992  18.571  1.00  0.00     0.108 C 
HETATM   26  C26 UNL     1      -2.559  12.562  18.287  1.00  0.00     0.280 C 
ENDBRANCH  19  20
ENDBRANCH  18  19
ENDBRANCH  14  17
ENDBRANCH   1  13
BRANCH  12  27
HETATM   27  O3  UNL     1       2.494   7.361  12.745  1.00  0.00    -0.341 OA
BRANCH  27  28
HETATM   28  C22 UNL     1       3.144   7.533  11.492  1.00  0.00     0.154 C 
HETATM   29  C23 UNL     1       3.953   8.815  11.503  1.00  0.00     0.061 C 
HETATM   30  C24 UNL     1       4.927   8.589  10.369  1.00  0.00     0.170 C 
HETATM   31  O4  UNL     1       5.138   7.173  10.262  1.00  0.00    -0.389 OA
HETATM   32  C25 UNL     1       4.240   6.524  11.179  1.00  0.00     0.200 C 
ENDBRANCH  27  28
ENDBRANCH  12  27
BRANCH   4  33
HETATM   33  N3  UNL     1      -3.543   5.109  12.685  1.00  0.00    -0.342 N 
HETATM   34  H11 UNL     1      -3.596   6.027  12.256  1.00  0.00     0.167 HD
BRANCH  33  35
HETATM   35  C12 UNL     1      -4.813   4.490  12.742  1.00  0.00     0.035 A 
HETATM   36  C13 UNL     1      -5.930   5.108  13.325  1.00  0.00     0.032 A 
HETATM   37  C14 UNL     1      -7.188   4.500  13.299  1.00  0.00     0.046 A 
HETATM   38  C15 UNL     1      -7.348   3.276  12.664  1.00  0.00     0.138 A 
HETATM   39  F1  UNL     1      -8.563   2.710  12.644  1.00  0.00    -0.204 F 
HETATM   40  C16 UNL     1      -6.264   2.661  12.045  1.00  0.00     0.074 A 
HETATM   41 CL1  UNL     1      -6.455   1.155  11.232  1.00  0.00    -0.081 Cl
HETATM   42  C17 UNL     1      -5.007   3.270  12.073  1.00  0.00     0.056 A 
ENDBRANCH  33  35
ENDBRANCH   4  33
TORSDOF 8
ENDMDL
