MODEL 1
REMARK minimizedAffinity -8.62568092
REMARK  8 active torsions:
REMARK  status: ('A' for Active; 'I' for Inactive)
REMARK    1  A    between atoms: O1_2  and  C2_3 
REMARK    2  A    between atoms: C6_7  and  C7_8 
REMARK    3  A    between atoms: N1_10  and  C9_11 
REMARK    4  A    between atoms: C11_13  and  C12_14 
REMARK       I    between atoms: C12_14  and  N2_16 
REMARK    5  A    between atoms: N2_16  and  C13_17 
REMARK    6  A    between atoms: C13_17  and  C14_18 
REMARK    7  A    between atoms: C14_18  and  O3_19 
REMARK    8  A    between atoms: C18_27  and  N5_28 
ROOT
HETATM    1  C7  UNL     1       8.464  -4.295  30.975  1.00  0.00     0.007 A 
HETATM    2  C8  UNL     1       8.867  -5.445  30.319  1.00  0.00     0.106 A 
HETATM    3  N1  UNL     1       7.750  -6.022  29.777  1.00  0.00    -0.337 N 
HETATM    4  C16 UNL     1       6.640  -5.265  30.060  1.00  0.00     0.123 A 
HETATM    5  N3  UNL     1       5.380  -5.548  29.682  1.00  0.00    -0.338 N 
ATOM      6  H3  UNL     1       5.116  -6.369  29.137  1.00  0.00     0.168 HD
HETATM    7  C17 UNL     1       4.514  -4.617  30.110  1.00  0.00     0.183 A 
HETATM    8  N4  UNL     1       4.774  -3.508  30.828  1.00  0.00    -0.338 N 
ATOM      9  H4  UNL     1       4.022  -2.877  31.104  1.00  0.00     0.168 HD
HETATM   10  C18 UNL     1       6.051  -3.253  31.176  1.00  0.00     0.114 A 
HETATM   11  C19 UNL     1       7.052  -4.165  30.803  1.00  0.00     0.064 A 
ENDROOT
BRANCH   3  12
HETATM   12  C9  UNL     1       7.678  -7.270  28.972  1.00  0.00     0.092 C 
HETATM   13  C10 UNL     1       6.514  -8.239  29.273  1.00  0.00     0.039 C 
HETATM   14  C11 UNL     1       5.680  -7.528  28.174  1.00  0.00     0.081 C 
HETATM   15  C15 UNL     1       7.027  -7.028  27.588  1.00  0.00     0.039 C 
BRANCH  14  16
HETATM   16  C12 UNL     1       4.799  -8.421  27.254  1.00  0.00     0.222 C 
HETATM   17  O2  UNL     1       5.234  -9.138  26.350  1.00  0.00    -0.273 OA
HETATM   18  N2  UNL     1       3.448  -8.336  27.522  1.00  0.00    -0.359 N 
HETATM   19  H12 UNL     1       3.120  -7.577  28.107  1.00  0.00     0.162 HD
BRANCH  18  20
HETATM   20  C13 UNL     1       2.462  -8.945  26.646  1.00  0.00     0.148 C 
BRANCH  20  21
HETATM   21  C14 UNL     1       1.404  -7.935  26.201  1.00  0.00     0.183 C 
BRANCH  21  22
HETATM   22  O3  UNL     1       1.398  -6.824  27.099  1.00  0.00    -0.399 OA
HETATM   23  H17 UNL     1       0.752  -6.188  26.747  1.00  0.00     0.209 HD
ENDBRANCH  21  22
ENDBRANCH  20  21
ENDBRANCH  18  20
ENDBRANCH  14  16
ENDBRANCH   3  12
BRANCH   1  24
HETATM   24  C6  UNL     1       9.395  -3.455  31.697  1.00  0.00    -0.021 A 
HETATM   25  C5  UNL     1       9.718  -2.187  31.205  1.00  0.00     0.012 A 
HETATM   26  C4  UNL     1      10.620  -1.381  31.900  1.00  0.00     0.004 A 
HETATM   27  C3  UNL     1      11.200  -1.837  33.087  1.00  0.00     0.037 A 
HETATM   28  C2  UNL     1      10.881  -3.102  33.586  1.00  0.00     0.069 A 
HETATM   29  C20 UNL     1       9.976  -3.907  32.887  1.00  0.00     0.049 A 
BRANCH  28  30
HETATM   30  O1  UNL     1      11.377  -3.663  34.730  1.00  0.00    -0.356 OA
HETATM   31  C1  UNL     1      12.428  -2.967  35.388  1.00  0.00     0.210 C 
ENDBRANCH  28  30
ENDBRANCH   1  24
BRANCH  10  32
HETATM   32  N5  UNL     1       6.284  -2.089  31.885  1.00  0.00    -0.385 N 
HETATM   33  H21 UNL     1       7.144  -2.030  32.410  1.00  0.00     0.157 HD
HETATM   34  H22 UNL     1       5.443  -1.706  32.296  1.00  0.00     0.157 HD
ENDBRANCH  10  32
TORSDOF 8
ENDMDL
MODEL 2
REMARK minimizedAffinity -8.48641682
REMARK  8 active torsions:
REMARK  status: ('A' for Active; 'I' for Inactive)
REMARK    1  A    between atoms: O1_2  and  C2_3 
REMARK    2  A    between atoms: C6_7  and  C7_8 
REMARK    3  A    between atoms: N1_10  and  C9_11 
REMARK    4  A    between atoms: C11_13  and  C12_14 
REMARK       I    between atoms: C12_14  and  N2_16 
REMARK    5  A    between atoms: N2_16  and  C13_17 
REMARK    6  A    between atoms: C13_17  and  C14_18 
REMARK    7  A    between atoms: C14_18  and  O3_19 
REMARK    8  A    between atoms: C18_27  and  N5_28 
ROOT
HETATM    1  C7  UNL     1       8.435  -4.349  31.067  1.00  0.00     0.007 A 
HETATM    2  C8  UNL     1       8.822  -5.540  30.478  1.00  0.00     0.106 A 
HETATM    3  N1  UNL     1       7.700  -6.120  29.949  1.00  0.00    -0.337 N 
HETATM    4  C16 UNL     1       6.603  -5.325  30.175  1.00  0.00     0.123 A 
HETATM    5  N3  UNL     1       5.342  -5.600  29.793  1.00  0.00    -0.338 N 
ATOM      6  H3  UNL     1       5.068  -6.442  29.287  1.00  0.00     0.168 HD
HETATM    7  C17 UNL     1       4.492  -4.630  30.159  1.00  0.00     0.183 A 
HETATM    8  N4  UNL     1       4.766  -3.491  30.824  1.00  0.00    -0.338 N 
ATOM      9  H4  UNL     1       4.025  -2.830  31.055  1.00  0.00     0.168 HD
HETATM   10  C18 UNL     1       6.044  -3.246  31.177  1.00  0.00     0.114 A 
HETATM   11  C19 UNL     1       7.029  -4.198  30.867  1.00  0.00     0.064 A 
ENDROOT
BRANCH   3  12
HETATM   12  C9  UNL     1       7.611  -7.406  29.208  1.00  0.00     0.092 C 
HETATM   13  C10 UNL     1       6.602  -7.482  28.041  1.00  0.00     0.039 C 
HETATM   14  C11 UNL     1       7.738  -7.049  27.075  1.00  0.00     0.081 C 
HETATM   15  C15 UNL     1       8.736  -7.544  28.154  1.00  0.00     0.039 C 
BRANCH  14  16
HETATM   16  C12 UNL     1       7.800  -7.744  25.685  1.00  0.00     0.222 C 
HETATM   17  O2  UNL     1       6.952  -7.615  24.799  1.00  0.00    -0.273 OA
HETATM   18  N2  UNL     1       8.902  -8.557  25.517  1.00  0.00    -0.359 N 
HETATM   19  H12 UNL     1       9.443  -8.811  26.335  1.00  0.00     0.162 HD
BRANCH  18  20
HETATM   20  C13 UNL     1       9.030  -9.432  24.365  1.00  0.00     0.148 C 
BRANCH  20  21
HETATM   21  C14 UNL     1       9.950  -8.833  23.301  1.00  0.00     0.183 C 
BRANCH  21  22
HETATM   22  O3  UNL     1       9.265  -8.788  22.049  1.00  0.00    -0.399 OA
HETATM   23  H17 UNL     1       9.867  -8.352  21.420  1.00  0.00     0.209 HD
ENDBRANCH  21  22
ENDBRANCH  20  21
ENDBRANCH  18  20
ENDBRANCH  14  16
ENDBRANCH   3  12
BRANCH   1  24
HETATM   24  C6  UNL     1       9.374  -3.494  31.760  1.00  0.00    -0.021 A 
HETATM   25  C5  UNL     1       9.744  -2.267  31.202  1.00  0.00     0.012 A 
HETATM   26  C4  UNL     1      10.654  -1.446  31.868  1.00  0.00     0.004 A 
HETATM   27  C3  UNL     1      11.195  -1.846  33.093  1.00  0.00     0.037 A 
HETATM   28  C2  UNL     1      10.830  -3.070  33.658  1.00  0.00     0.069 A 
HETATM   29  C20 UNL     1       9.918  -3.890  32.987  1.00  0.00     0.049 A 
BRANCH  28  30
HETATM   30  O1  UNL     1      11.285  -3.575  34.844  1.00  0.00    -0.356 OA
HETATM   31  C1  UNL     1      12.484  -3.016  35.367  1.00  0.00     0.210 C 
ENDBRANCH  28  30
ENDBRANCH   1  24
BRANCH  10  32
HETATM   32  N5  UNL     1       6.293  -2.052  31.829  1.00  0.00    -0.385 N 
HETATM   33  H21 UNL     1       7.146  -1.985  32.364  1.00  0.00     0.157 HD
HETATM   34  H22 UNL     1       5.455  -1.630  32.207  1.00  0.00     0.157 HD
ENDBRANCH  10  32
TORSDOF 8
ENDMDL
MODEL 3
REMARK minimizedAffinity -8.46767139
REMARK  8 active torsions:
REMARK  status: ('A' for Active; 'I' for Inactive)
REMARK    1  A    between atoms: O1_2  and  C2_3 
REMARK    2  A    between atoms: C6_7  and  C7_8 
REMARK    3  A    between atoms: N1_10  and  C9_11 
REMARK    4  A    between atoms: C11_13  and  C12_14 
REMARK       I    between atoms: C12_14  and  N2_16 
REMARK    5  A    between atoms: N2_16  and  C13_17 
REMARK    6  A    between atoms: C13_17  and  C14_18 
REMARK    7  A    between atoms: C14_18  and  O3_19 
REMARK    8  A    between atoms: C18_27  and  N5_28 
ROOT
HETATM    1  C7  UNL     1       8.651  -4.735  31.083  1.00  0.00     0.007 A 
HETATM    2  C8  UNL     1       8.969  -5.849  30.326  1.00  0.00     0.106 A 
HETATM    3  N1  UNL     1       7.861  -6.177  29.591  1.00  0.00    -0.337 N 
HETATM    4  C16 UNL     1       6.841  -5.295  29.850  1.00  0.00     0.123 A 
HETATM    5  N3  UNL     1       5.613  -5.332  29.300  1.00  0.00    -0.338 N 
ATOM      6  H3  UNL     1       5.309  -6.032  28.624  1.00  0.00     0.168 HD
HETATM    7  C17 UNL     1       4.839  -4.334  29.752  1.00  0.00     0.183 A 
HETATM    8  N4  UNL     1       5.157  -3.371  30.639  1.00  0.00    -0.338 N 
ATOM      9  H4  UNL     1       4.473  -2.667  30.912  1.00  0.00     0.168 HD
HETATM   10  C18 UNL     1       6.402  -3.360  31.156  1.00  0.00     0.114 A 
HETATM   11  C19 UNL     1       7.305  -4.368  30.775  1.00  0.00     0.064 A 
ENDROOT
BRANCH   3  12
HETATM   12  C9  UNL     1       7.719  -7.296  28.622  1.00  0.00     0.092 C 
HETATM   13  C10 UNL     1       6.778  -8.456  29.014  1.00  0.00     0.039 C 
HETATM   14  C11 UNL     1       5.622  -7.724  28.280  1.00  0.00     0.081 C 
HETATM   15  C15 UNL     1       6.716  -6.956  27.492  1.00  0.00     0.039 C 
BRANCH  14  16
HETATM   16  C12 UNL     1       4.636  -8.595  27.451  1.00  0.00     0.222 C 
HETATM   17  O2  UNL     1       4.966  -9.333  26.520  1.00  0.00    -0.273 OA
HETATM   18  N2  UNL     1       3.317  -8.464  27.836  1.00  0.00    -0.359 N 
HETATM   19  H12 UNL     1       3.066  -7.691  28.440  1.00  0.00     0.162 HD
BRANCH  18  20
HETATM   20  C13 UNL     1       2.239  -9.048  27.058  1.00  0.00     0.148 C 
BRANCH  20  21
HETATM   21  C14 UNL     1       1.452  -7.980  26.296  1.00  0.00     0.183 C 
BRANCH  21  22
HETATM   22  O3  UNL     1       1.411  -6.779  27.068  1.00  0.00    -0.399 OA
HETATM   23  H17 UNL     1       0.950  -6.116  26.522  1.00  0.00     0.209 HD
ENDBRANCH  21  22
ENDBRANCH  20  21
ENDBRANCH  18  20
ENDBRANCH  14  16
ENDBRANCH   3  12
BRANCH   1  24
HETATM   24  C6  UNL     1       9.589  -4.142  32.010  1.00  0.00    -0.021 A 
HETATM   25  C5  UNL     1       9.728  -4.672  33.297  1.00  0.00     0.012 A 
HETATM   26  C4  UNL     1      10.629  -4.095  34.192  1.00  0.00     0.004 A 
HETATM   27  C3  UNL     1      11.392  -2.989  33.807  1.00  0.00     0.037 A 
HETATM   28  C2  UNL     1      11.260  -2.455  32.523  1.00  0.00     0.069 A 
HETATM   29  C20 UNL     1      10.356  -3.037  31.628  1.00  0.00     0.049 A 
BRANCH  28  30
HETATM   30  O1  UNL     1      11.945  -1.382  32.024  1.00  0.00    -0.356 OA
HETATM   31  C1  UNL     1      11.175  -0.256  31.621  1.00  0.00     0.210 C 
ENDBRANCH  28  30
ENDBRANCH   1  24
BRANCH  10  32
HETATM   32  N5  UNL     1       6.703  -2.338  32.037  1.00  0.00    -0.385 N 
HETATM   33  H21 UNL     1       7.488  -2.476  32.657  1.00  0.00     0.157 HD
HETATM   34  H22 UNL     1       5.878  -1.880  32.401  1.00  0.00     0.157 HD
ENDBRANCH  10  32
TORSDOF 8
ENDMDL
MODEL 4
REMARK minimizedAffinity -8.39319801
REMARK  8 active torsions:
REMARK  status: ('A' for Active; 'I' for Inactive)
REMARK    1  A    between atoms: O1_2  and  C2_3 
REMARK    2  A    between atoms: C6_7  and  C7_8 
REMARK    3  A    between atoms: N1_10  and  C9_11 
REMARK    4  A    between atoms: C11_13  and  C12_14 
REMARK       I    between atoms: C12_14  and  N2_16 
REMARK    5  A    between atoms: N2_16  and  C13_17 
REMARK    6  A    between atoms: C13_17  and  C14_18 
REMARK    7  A    between atoms: C14_18  and  O3_19 
REMARK    8  A    between atoms: C18_27  and  N5_28 
ROOT
HETATM    1  C7  UNL     1       8.520  -4.383  30.745  1.00  0.00     0.007 A 
HETATM    2  C8  UNL     1       9.008  -5.430  29.983  1.00  0.00     0.106 A 
HETATM    3  N1  UNL     1       7.937  -6.031  29.378  1.00  0.00    -0.337 N 
HETATM    4  C16 UNL     1       6.773  -5.390  29.724  1.00  0.00     0.123 A 
HETATM    5  N3  UNL     1       5.538  -5.727  29.310  1.00  0.00    -0.338 N 
ATOM      6  H3  UNL     1       5.337  -6.508  28.685  1.00  0.00     0.168 HD
HETATM    7  C17 UNL     1       4.605  -4.909  29.819  1.00  0.00     0.183 A 
HETATM    8  N4  UNL     1       4.781  -3.861  30.646  1.00  0.00    -0.338 N 
ATOM      9  H4  UNL     1       3.984  -3.316  30.975  1.00  0.00     0.168 HD
HETATM   10  C18 UNL     1       6.036  -3.547  31.027  1.00  0.00     0.114 A 
HETATM   11  C19 UNL     1       7.102  -4.342  30.575  1.00  0.00     0.064 A 
ENDROOT
BRANCH   3  12
HETATM   12  C9  UNL     1       7.959  -7.196  28.454  1.00  0.00     0.092 C 
HETATM   13  C10 UNL     1       9.330  -7.624  27.886  1.00  0.00     0.039 C 
HETATM   14  C11 UNL     1       9.477  -8.613  29.074  1.00  0.00     0.081 C 
HETATM   15  C15 UNL     1       7.934  -8.542  29.220  1.00  0.00     0.039 C 
BRANCH  14  16
HETATM   16  C12 UNL     1      10.093 -10.009  28.771  1.00  0.00     0.222 C 
HETATM   17  O2  UNL     1       9.701 -10.770  27.884  1.00  0.00    -0.273 OA
HETATM   18  N2  UNL     1      11.136 -10.351  29.608  1.00  0.00    -0.359 N 
HETATM   19  H12 UNL     1      11.274  -9.809  30.452  1.00  0.00     0.162 HD
BRANCH  18  20
HETATM   20  C13 UNL     1      11.705 -11.687  29.601  1.00  0.00     0.148 C 
BRANCH  20  21
HETATM   21  C14 UNL     1      12.636 -11.908  30.794  1.00  0.00     0.183 C 
BRANCH  21  22
HETATM   22  O3  UNL     1      11.890 -12.440  31.889  1.00  0.00    -0.399 OA
HETATM   23  H17 UNL     1      12.530 -12.614  32.601  1.00  0.00     0.209 HD
ENDBRANCH  21  22
ENDBRANCH  20  21
ENDBRANCH  18  20
ENDBRANCH  14  16
ENDBRANCH   3  12
BRANCH   1  24
HETATM   24  C6  UNL     1       9.384  -3.552  31.554  1.00  0.00    -0.021 A 
HETATM   25  C5  UNL     1       9.733  -2.271  31.115  1.00  0.00     0.012 A 
HETATM   26  C4  UNL     1      10.571  -1.473  31.894  1.00  0.00     0.004 A 
HETATM   27  C3  UNL     1      11.063  -1.951  33.112  1.00  0.00     0.037 A 
HETATM   28  C2  UNL     1      10.719  -3.229  33.558  1.00  0.00     0.069 A 
HETATM   29  C20 UNL     1       9.878  -4.025  32.775  1.00  0.00     0.049 A 
BRANCH  28  30
HETATM   30  O1  UNL     1      11.131  -3.811  34.725  1.00  0.00    -0.356 OA
HETATM   31  C1  UNL     1      12.281  -3.256  35.352  1.00  0.00     0.210 C 
ENDBRANCH  28  30
ENDBRANCH   1  24
BRANCH  10  32
HETATM   32  N5  UNL     1       6.180  -2.444  31.849  1.00  0.00    -0.385 N 
HETATM   33  H21 UNL     1       7.033  -2.374  32.385  1.00  0.00     0.157 HD
HETATM   34  H22 UNL     1       5.313  -2.167  32.288  1.00  0.00     0.157 HD
ENDBRANCH  10  32
TORSDOF 8
ENDMDL
MODEL 5
REMARK minimizedAffinity -8.28825474
REMARK  8 active torsions:
REMARK  status: ('A' for Active; 'I' for Inactive)
REMARK    1  A    between atoms: O1_2  and  C2_3 
REMARK    2  A    between atoms: C6_7  and  C7_8 
REMARK    3  A    between atoms: N1_10  and  C9_11 
REMARK    4  A    between atoms: C11_13  and  C12_14 
REMARK       I    between atoms: C12_14  and  N2_16 
REMARK    5  A    between atoms: N2_16  and  C13_17 
REMARK    6  A    between atoms: C13_17  and  C14_18 
REMARK    7  A    between atoms: C14_18  and  O3_19 
REMARK    8  A    between atoms: C18_27  and  N5_28 
ROOT
HETATM    1  C7  UNL     1       7.960  -4.855  30.284  1.00  0.00     0.007 A 
HETATM    2  C8  UNL     1       9.007  -5.626  29.812  1.00  0.00     0.106 A 
HETATM    3  N1  UNL     1      10.170  -5.059  30.259  1.00  0.00    -0.337 N 
HETATM    4  C16 UNL     1       9.896  -3.947  31.016  1.00  0.00     0.123 A 
HETATM    5  N3  UNL     1      10.809  -3.151  31.603  1.00  0.00    -0.338 N 
ATOM      6  H3  UNL     1      11.817  -3.296  31.543  1.00  0.00     0.168 HD
HETATM    7  C17 UNL     1      10.230  -2.145  32.275  1.00  0.00     0.183 A 
HETATM    8  N4  UNL     1       8.916  -1.881  32.406  1.00  0.00    -0.338 N 
ATOM      9  H4  UNL     1       8.597  -1.072  32.939  1.00  0.00     0.168 HD
HETATM   10  C18 UNL     1       8.032  -2.709  31.815  1.00  0.00     0.114 A 
HETATM   11  C19 UNL     1       8.515  -3.793  31.062  1.00  0.00     0.064 A 
ENDROOT
BRANCH   3  12
HETATM   12  C9  UNL     1      11.558  -5.534  30.018  1.00  0.00     0.092 C 
HETATM   13  C10 UNL     1      12.102  -6.634  30.956  1.00  0.00     0.039 C 
HETATM   14  C11 UNL     1      11.603  -7.700  29.943  1.00  0.00     0.081 C 
HETATM   15  C15 UNL     1      11.622  -6.576  28.874  1.00  0.00     0.039 C 
BRANCH  14  16
HETATM   16  C12 UNL     1      12.520  -8.930  29.689  1.00  0.00     0.222 C 
HETATM   17  O2  UNL     1      12.942  -9.272  28.582  1.00  0.00    -0.273 OA
HETATM   18  N2  UNL     1      12.824  -9.645  30.830  1.00  0.00    -0.359 N 
HETATM   19  H12 UNL     1      12.282  -9.469  31.667  1.00  0.00     0.162 HD
BRANCH  18  20
HETATM   20  C13 UNL     1      13.505 -10.926  30.762  1.00  0.00     0.148 C 
BRANCH  20  21
HETATM   21  C14 UNL     1      12.518 -12.079  30.576  1.00  0.00     0.183 C 
BRANCH  21  22
HETATM   22  O3  UNL     1      11.909 -12.391  31.831  1.00  0.00    -0.399 OA
HETATM   23  H17 UNL     1      11.254 -13.089  31.653  1.00  0.00     0.209 HD
ENDBRANCH  21  22
ENDBRANCH  20  21
ENDBRANCH  18  20
ENDBRANCH  14  16
ENDBRANCH   3  12
BRANCH   1  24
HETATM   24  C6  UNL     1       6.581  -5.151  29.964  1.00  0.00    -0.021 A 
HETATM   25  C5  UNL     1       5.552  -4.428  30.575  1.00  0.00     0.012 A 
HETATM   26  C4  UNL     1       4.222  -4.718  30.269  1.00  0.00     0.004 A 
HETATM   27  C3  UNL     1       3.916  -5.729  29.354  1.00  0.00     0.037 A 
HETATM   28  C2  UNL     1       4.938  -6.455  28.739  1.00  0.00     0.069 A 
HETATM   29  C20 UNL     1       6.270  -6.160  29.047  1.00  0.00     0.049 A 
BRANCH  28  30
HETATM   30  O1  UNL     1       4.773  -7.463  27.830  1.00  0.00    -0.356 OA
HETATM   31  C1  UNL     1       3.447  -7.932  27.620  1.00  0.00     0.210 C 
ENDBRANCH  28  30
ENDBRANCH   1  24
BRANCH  10  32
HETATM   32  N5  UNL     1       6.691  -2.425  31.998  1.00  0.00    -0.385 N 
HETATM   33  H21 UNL     1       6.038  -2.822  31.338  1.00  0.00     0.157 HD
HETATM   34  H22 UNL     1       6.532  -1.481  32.322  1.00  0.00     0.157 HD
ENDBRANCH  10  32
TORSDOF 8
ENDMDL
MODEL 6
REMARK minimizedAffinity -8.28386593
REMARK  8 active torsions:
REMARK  status: ('A' for Active; 'I' for Inactive)
REMARK    1  A    between atoms: O1_2  and  C2_3 
REMARK    2  A    between atoms: C6_7  and  C7_8 
REMARK    3  A    between atoms: N1_10  and  C9_11 
REMARK    4  A    between atoms: C11_13  and  C12_14 
REMARK       I    between atoms: C12_14  and  N2_16 
REMARK    5  A    between atoms: N2_16  and  C13_17 
REMARK    6  A    between atoms: C13_17  and  C14_18 
REMARK    7  A    between atoms: C14_18  and  O3_19 
REMARK    8  A    between atoms: C18_27  and  N5_28 
ROOT
HETATM    1  C7  UNL     1       5.884  -7.559  28.490  1.00  0.00     0.007 A 
HETATM    2  C8  UNL     1       7.205  -7.608  28.897  1.00  0.00     0.106 A 
HETATM    3  N1  UNL     1       7.434  -6.512  29.685  1.00  0.00    -0.337 N 
HETATM    4  C16 UNL     1       6.289  -5.764  29.803  1.00  0.00     0.123 A 
HETATM    5  N3  UNL     1       6.166  -4.620  30.501  1.00  0.00    -0.338 N 
ATOM      6  H3  UNL     1       6.926  -4.184  31.023  1.00  0.00     0.168 HD
HETATM    7  C17 UNL     1       4.922  -4.126  30.426  1.00  0.00     0.183 A 
HETATM    8  N4  UNL     1       3.864  -4.633  29.764  1.00  0.00    -0.338 N 
ATOM      9  H4  UNL     1       2.964  -4.155  29.774  1.00  0.00     0.168 HD
HETATM   10  C18 UNL     1       4.024  -5.788  29.087  1.00  0.00     0.114 A 
HETATM   11  C19 UNL     1       5.290  -6.397  29.073  1.00  0.00     0.064 A 
ENDROOT
BRANCH   3  12
HETATM   12  C9  UNL     1       8.703  -6.135  30.362  1.00  0.00     0.092 C 
HETATM   13  C10 UNL     1       9.376  -4.816  29.921  1.00  0.00     0.039 C 
HETATM   14  C11 UNL     1       8.601  -4.082  31.049  1.00  0.00     0.081 C 
HETATM   15  C15 UNL     1       8.448  -5.466  31.735  1.00  0.00     0.039 C 
BRANCH  14  16
HETATM   16  C12 UNL     1       9.363  -2.983  31.843  1.00  0.00     0.222 C 
HETATM   17  O2  UNL     1       9.116  -2.661  33.007  1.00  0.00    -0.273 OA
HETATM   18  N2  UNL     1      10.359  -2.361  31.117  1.00  0.00    -0.359 N 
HETATM   19  H12 UNL     1      10.377  -2.492  30.113  1.00  0.00     0.162 HD
BRANCH  18  20
HETATM   20  C13 UNL     1      11.045  -1.186  31.625  1.00  0.00     0.148 C 
BRANCH  20  21
HETATM   21  C14 UNL     1      12.259  -1.565  32.474  1.00  0.00     0.183 C 
BRANCH  21  22
HETATM   22  O3  UNL     1      13.384  -0.782  32.072  1.00  0.00    -0.399 OA
HETATM   23  H17 UNL     1      14.113  -1.019  32.672  1.00  0.00     0.209 HD
ENDBRANCH  21  22
ENDBRANCH  20  21
ENDBRANCH  18  20
ENDBRANCH  14  16
ENDBRANCH   3  12
BRANCH   1  24
HETATM   24  C6  UNL     1       5.313  -8.553  27.608  1.00  0.00    -0.021 A 
HETATM   25  C5  UNL     1       3.938  -8.807  27.639  1.00  0.00     0.012 A 
HETATM   26  C4  UNL     1       3.390  -9.770  26.791  1.00  0.00     0.004 A 
HETATM   27  C3  UNL     1       4.211 -10.480  25.910  1.00  0.00     0.037 A 
HETATM   28  C2  UNL     1       5.585 -10.231  25.873  1.00  0.00     0.069 A 
HETATM   29  C20 UNL     1       6.130  -9.264  26.723  1.00  0.00     0.049 A 
BRANCH  28  30
HETATM   30  O1  UNL     1       6.492 -10.853  25.061  1.00  0.00    -0.356 OA
HETATM   31  C1  UNL     1       6.221 -12.204  24.706  1.00  0.00     0.210 C 
ENDBRANCH  28  30
ENDBRANCH   1  24
BRANCH  10  32
HETATM   32  N5  UNL     1       2.908  -6.296  28.447  1.00  0.00    -0.385 N 
HETATM   33  H21 UNL     1       3.063  -6.961  27.703  1.00  0.00     0.157 HD
HETATM   34  H22 UNL     1       2.176  -5.608  28.332  1.00  0.00     0.157 HD
ENDBRANCH  10  32
TORSDOF 8
ENDMDL
MODEL 7
REMARK minimizedAffinity -8.27334404
REMARK  8 active torsions:
REMARK  status: ('A' for Active; 'I' for Inactive)
REMARK    1  A    between atoms: O1_2  and  C2_3 
REMARK    2  A    between atoms: C6_7  and  C7_8 
REMARK    3  A    between atoms: N1_10  and  C9_11 
REMARK    4  A    between atoms: C11_13  and  C12_14 
REMARK       I    between atoms: C12_14  and  N2_16 
REMARK    5  A    between atoms: N2_16  and  C13_17 
REMARK    6  A    between atoms: C13_17  and  C14_18 
REMARK    7  A    between atoms: C14_18  and  O3_19 
REMARK    8  A    between atoms: C18_27  and  N5_28 
ROOT
HETATM    1  C7  UNL     1       8.595  -4.060  31.253  1.00  0.00     0.007 A 
HETATM    2  C8  UNL     1       7.322  -3.526  31.170  1.00  0.00     0.106 A 
HETATM    3  N1  UNL     1       6.551  -4.408  30.462  1.00  0.00    -0.337 N 
HETATM    4  C16 UNL     1       7.296  -5.503  30.097  1.00  0.00     0.123 A 
HETATM    5  N3  UNL     1       6.849  -6.555  29.388  1.00  0.00    -0.338 N 
ATOM      6  H3  UNL     1       5.894  -6.650  29.043  1.00  0.00     0.168 HD
HETATM    7  C17 UNL     1       7.815  -7.465  29.191  1.00  0.00     0.183 A 
HETATM    8  N4  UNL     1       9.094  -7.423  29.608  1.00  0.00    -0.338 N 
ATOM      9  H4  UNL     1       9.741  -8.178  29.385  1.00  0.00     0.168 HD
HETATM   10  C18 UNL     1       9.500  -6.357  30.328  1.00  0.00     0.114 A 
HETATM   11  C19 UNL     1       8.584  -5.323  30.586  1.00  0.00     0.064 A 
ENDROOT
BRANCH   3  12
HETATM   12  C9  UNL     1       5.110  -4.277  30.121  1.00  0.00     0.092 C 
HETATM   13  C10 UNL     1       4.700  -4.568  28.660  1.00  0.00     0.039 C 
HETATM   14  C11 UNL     1       4.430  -6.043  29.064  1.00  0.00     0.081 C 
HETATM   15  C15 UNL     1       4.304  -5.537  30.525  1.00  0.00     0.039 C 
BRANCH  14  16
HETATM   16  C12 UNL     1       3.182  -6.737  28.448  1.00  0.00     0.222 C 
HETATM   17  O2  UNL     1       2.021  -6.350  28.597  1.00  0.00    -0.273 OA
HETATM   18  N2  UNL     1       3.479  -7.866  27.711  1.00  0.00    -0.359 N 
HETATM   19  H12 UNL     1       4.401  -8.272  27.802  1.00  0.00     0.162 HD
BRANCH  18  20
HETATM   20  C13 UNL     1       2.433  -8.748  27.224  1.00  0.00     0.148 C 
BRANCH  20  21
HETATM   21  C14 UNL     1       1.939  -8.325  25.840  1.00  0.00     0.183 C 
BRANCH  21  22
HETATM   22  O3  UNL     1       0.733  -7.571  25.975  1.00  0.00    -0.399 OA
HETATM   23  H17 UNL     1       0.488  -7.279  25.079  1.00  0.00     0.209 HD
ENDBRANCH  21  22
ENDBRANCH  20  21
ENDBRANCH  18  20
ENDBRANCH  14  16
ENDBRANCH   3  12
BRANCH   1  24
HETATM   24  C6  UNL     1       9.681  -3.363  31.907  1.00  0.00    -0.021 A 
HETATM   25  C5  UNL     1      10.309  -2.290  31.266  1.00  0.00     0.012 A 
HETATM   26  C4  UNL     1      11.360  -1.623  31.895  1.00  0.00     0.004 A 
HETATM   27  C3  UNL     1      11.786  -2.022  33.165  1.00  0.00     0.037 A 
HETATM   28  C2  UNL     1      11.163  -3.091  33.812  1.00  0.00     0.069 A 
HETATM   29  C20 UNL     1      10.110  -3.757  33.179  1.00  0.00     0.049 A 
BRANCH  28  30
HETATM   30  O1  UNL     1      11.483  -3.578  35.050  1.00  0.00    -0.356 OA
HETATM   31  C1  UNL     1      12.672  -3.081  35.651  1.00  0.00     0.210 C 
ENDBRANCH  28  30
ENDBRANCH   1  24
BRANCH  10  32
HETATM   32  N5  UNL     1      10.811  -6.363  30.767  1.00  0.00    -0.385 N 
HETATM   33  H21 UNL     1      11.218  -5.476  31.025  1.00  0.00     0.157 HD
HETATM   34  H22 UNL     1      11.387  -7.029  30.270  1.00  0.00     0.157 HD
ENDBRANCH  10  32
TORSDOF 8
ENDMDL
MODEL 8
REMARK minimizedAffinity -8.265625
REMARK  8 active torsions:
REMARK  status: ('A' for Active; 'I' for Inactive)
REMARK    1  A    between atoms: O1_2  and  C2_3 
REMARK    2  A    between atoms: C6_7  and  C7_8 
REMARK    3  A    between atoms: N1_10  and  C9_11 
REMARK    4  A    between atoms: C11_13  and  C12_14 
REMARK       I    between atoms: C12_14  and  N2_16 
REMARK    5  A    between atoms: N2_16  and  C13_17 
REMARK    6  A    between atoms: C13_17  and  C14_18 
REMARK    7  A    between atoms: C14_18  and  O3_19 
REMARK    8  A    between atoms: C18_27  and  N5_28 
ROOT
HETATM    1  C7  UNL     1       9.043  -4.977  30.985  1.00  0.00     0.007 A 
HETATM    2  C8  UNL     1       7.726  -4.995  30.560  1.00  0.00     0.106 A 
HETATM    3  N1  UNL     1       7.731  -5.277  29.220  1.00  0.00    -0.337 N 
HETATM    4  C16 UNL     1       9.019  -5.452  28.776  1.00  0.00     0.123 A 
HETATM    5  N3  UNL     1       9.382  -5.736  27.512  1.00  0.00    -0.338 N 
ATOM      6  H3  UNL     1       8.725  -5.852  26.740  1.00  0.00     0.168 HD
HETATM    7  C17 UNL     1      10.713  -5.847  27.392  1.00  0.00     0.183 A 
HETATM    8  N4  UNL     1      11.648  -5.712  28.352  1.00  0.00    -0.338 N 
ATOM      9  H4  UNL     1      12.639  -5.811  28.133  1.00  0.00     0.168 HD
HETATM   10  C18 UNL     1      11.243  -5.441  29.609  1.00  0.00     0.114 A 
HETATM   11  C19 UNL     1       9.870  -5.281  29.861  1.00  0.00     0.064 A 
ENDROOT
BRANCH   3  12
HETATM   12  C9  UNL     1       6.555  -5.412  28.321  1.00  0.00     0.092 C 
HETATM   13  C10 UNL     1       6.583  -6.558  27.286  1.00  0.00     0.039 C 
HETATM   14  C11 UNL     1       5.851  -7.461  28.315  1.00  0.00     0.081 C 
HETATM   15  C15 UNL     1       5.383  -6.155  29.009  1.00  0.00     0.039 C 
BRANCH  14  16
HETATM   16  C12 UNL     1       4.741  -8.408  27.775  1.00  0.00     0.222 C 
HETATM   17  O2  UNL     1       4.942  -9.540  27.330  1.00  0.00    -0.273 OA
HETATM   18  N2  UNL     1       3.474  -7.862  27.817  1.00  0.00    -0.359 N 
HETATM   19  H12 UNL     1       3.383  -6.866  27.972  1.00  0.00     0.162 HD
BRANCH  18  20
HETATM   20  C13 UNL     1       2.345  -8.519  27.182  1.00  0.00     0.148 C 
BRANCH  20  21
HETATM   21  C14 UNL     1       1.092  -7.644  27.217  1.00  0.00     0.183 C 
BRANCH  21  22
HETATM   22  O3  UNL     1       1.334  -6.498  28.035  1.00  0.00    -0.399 OA
HETATM   23  H17 UNL     1       0.533  -5.947  27.982  1.00  0.00     0.209 HD
ENDBRANCH  21  22
ENDBRANCH  20  21
ENDBRANCH  18  20
ENDBRANCH  14  16
ENDBRANCH   3  12
BRANCH   1  24
HETATM   24  C6  UNL     1       9.406  -4.669  32.352  1.00  0.00    -0.021 A 
HETATM   25  C5  UNL     1       8.675  -5.220  33.409  1.00  0.00     0.012 A 
HETATM   26  C4  UNL     1       9.022  -4.917  34.726  1.00  0.00     0.004 A 
HETATM   27  C3  UNL     1      10.099  -4.067  34.991  1.00  0.00     0.037 A 
HETATM   28  C2  UNL     1      10.835  -3.514  33.940  1.00  0.00     0.069 A 
HETATM   29  C20 UNL     1      10.484  -3.820  32.622  1.00  0.00     0.049 A 
BRANCH  28  30
HETATM   30  O1  UNL     1      11.906  -2.673  34.064  1.00  0.00    -0.356 OA
HETATM   31  C1  UNL     1      12.506  -2.578  35.350  1.00  0.00     0.210 C 
ENDBRANCH  28  30
ENDBRANCH   1  24
BRANCH  10  32
HETATM   32  N5  UNL     1      12.229  -5.342  30.574  1.00  0.00    -0.385 N 
HETATM   33  H21 UNL     1      11.997  -4.849  31.425  1.00  0.00     0.157 HD
HETATM   34  H22 UNL     1      13.151  -5.212  30.180  1.00  0.00     0.157 HD
ENDBRANCH  10  32
TORSDOF 8
ENDMDL
MODEL 9
REMARK minimizedAffinity -8.23288918
REMARK  8 active torsions:
REMARK  status: ('A' for Active; 'I' for Inactive)
REMARK    1  A    between atoms: O1_2  and  C2_3 
REMARK    2  A    between atoms: C6_7  and  C7_8 
REMARK    3  A    between atoms: N1_10  and  C9_11 
REMARK    4  A    between atoms: C11_13  and  C12_14 
REMARK       I    between atoms: C12_14  and  N2_16 
REMARK    5  A    between atoms: N2_16  and  C13_17 
REMARK    6  A    between atoms: C13_17  and  C14_18 
REMARK    7  A    between atoms: C14_18  and  O3_19 
REMARK    8  A    between atoms: C18_27  and  N5_28 
ROOT
HETATM    1  C7  UNL     1       6.104  -7.195  28.808  1.00  0.00     0.007 A 
HETATM    2  C8  UNL     1       7.433  -7.276  29.184  1.00  0.00     0.106 A 
HETATM    3  N1  UNL     1       7.704  -6.192  29.974  1.00  0.00    -0.337 N 
HETATM    4  C16 UNL     1       6.578  -5.420  30.124  1.00  0.00     0.123 A 
HETATM    5  N3  UNL     1       6.496  -4.280  30.834  1.00  0.00    -0.338 N 
ATOM      6  H3  UNL     1       7.277  -3.864  31.342  1.00  0.00     0.168 HD
HETATM    7  C17 UNL     1       5.261  -3.758  30.792  1.00  0.00     0.183 A 
HETATM    8  N4  UNL     1       4.178  -4.237  30.151  1.00  0.00    -0.338 N 
ATOM      9  H4  UNL     1       3.289  -3.739  30.186  1.00  0.00     0.168 HD
HETATM   10  C18 UNL     1       4.297  -5.389  29.462  1.00  0.00     0.114 A 
HETATM   11  C19 UNL     1       5.549  -6.026  29.413  1.00  0.00     0.064 A 
ENDROOT
BRANCH   3  12
HETATM   12  C9  UNL     1       8.996  -5.848  30.625  1.00  0.00     0.092 C 
HETATM   13  C10 UNL     1       9.786  -4.655  30.042  1.00  0.00     0.039 C 
HETATM   14  C11 UNL     1       9.071  -3.726  31.060  1.00  0.00     0.081 C 
HETATM   15  C15 UNL     1       8.791  -4.998  31.903  1.00  0.00     0.039 C 
BRANCH  14  16
HETATM   16  C12 UNL     1       9.921  -2.609  31.731  1.00  0.00     0.222 C 
HETATM   17  O2  UNL     1       9.847  -1.411  31.453  1.00  0.00    -0.273 OA
HETATM   18  N2  UNL     1      10.806  -3.077  32.681  1.00  0.00    -0.359 N 
HETATM   19  H12 UNL     1      10.995  -4.071  32.715  1.00  0.00     0.162 HD
BRANCH  18  20
HETATM   20  C13 UNL     1      11.811  -2.211  33.271  1.00  0.00     0.148 C 
BRANCH  20  21
HETATM   21  C14 UNL     1      12.030  -2.530  34.751  1.00  0.00     0.183 C 
BRANCH  21  22
HETATM   22  O3  UNL     1      11.395  -3.769  35.070  1.00  0.00    -0.399 OA
HETATM   23  H17 UNL     1      11.606  -3.955  36.002  1.00  0.00     0.209 HD
ENDBRANCH  21  22
ENDBRANCH  20  21
ENDBRANCH  18  20
ENDBRANCH  14  16
ENDBRANCH   3  12
BRANCH   1  24
HETATM   24  C6  UNL     1       5.491  -8.169  27.931  1.00  0.00    -0.021 A 
HETATM   25  C5  UNL     1       6.247  -9.238  27.440  1.00  0.00     0.012 A 
HETATM   26  C4  UNL     1       5.656 -10.173  26.590  1.00  0.00     0.004 A 
HETATM   27  C3  UNL     1       4.312 -10.045  26.229  1.00  0.00     0.037 A 
HETATM   28  C2  UNL     1       3.551  -8.980  26.716  1.00  0.00     0.069 A 
HETATM   29  C20 UNL     1       4.146  -8.045  27.569  1.00  0.00     0.049 A 
BRANCH  28  30
HETATM   30  O1  UNL     1       2.233  -8.742  26.441  1.00  0.00    -0.356 OA
HETATM   31  C1  UNL     1       1.850  -8.739  25.071  1.00  0.00     0.210 C 
ENDBRANCH  28  30
ENDBRANCH   1  24
BRANCH  10  32
HETATM   32  N5  UNL     1       3.156  -5.868  28.844  1.00  0.00    -0.385 N 
HETATM   33  H21 UNL     1       3.279  -6.530  28.092  1.00  0.00     0.157 HD
HETATM   34  H22 UNL     1       2.437  -5.163  28.751  1.00  0.00     0.157 HD
ENDBRANCH  10  32
TORSDOF 8
ENDMDL
