MODEL 1
REMARK minimizedAffinity -7.28940821
REMARK  8 active torsions:
REMARK  status: ('A' for Active; 'I' for Inactive)
REMARK    1  A    between atoms: C2_2  and  C3_3 
REMARK    2  A    between atoms: C3_3  and  O1_4 
REMARK    3  A    between atoms: O1_4  and  C4_5 
REMARK    4  A    between atoms: C9_14  and  N3_15 
REMARK    5  A    between atoms: N3_15  and  C10_16 
REMARK    6  A    between atoms: C13_19  and  O2_20 
REMARK    7  A    between atoms: O2_20  and  C14_21 
REMARK    8  A    between atoms: C14_21  and  C15_22 
ROOT
HETATM    1  C4  UNL     1       7.842  34.410  20.928  1.00  0.00     0.070 A 
HETATM    2  C5  UNL     1       7.545  35.138  22.070  1.00  0.00     0.039 A 
HETATM    3  C6  UNL     1       8.578  35.748  22.795  1.00  0.00     0.033 A 
HETATM    4  C7  UNL     1       9.908  35.657  22.406  1.00  0.00     0.047 A 
HETATM    5  N1  UNL     1      10.833  36.261  23.155  1.00  0.00    -0.352 N 
ATOM      6  H1  UNL     1      10.586  36.787  23.993  1.00  0.00     0.166 HD
HETATM    7  C8  UNL     1      12.102  36.141  22.750  1.00  0.00     0.182 A 
HETATM    8  N2  UNL     1      12.526  35.486  21.666  1.00  0.00    -0.338 N 
ATOM      9  H2  UNL     1      13.515  35.441  21.424  1.00  0.00     0.168 HD
HETATM   10  C9  UNL     1      11.588  34.890  20.908  1.00  0.00     0.119 A 
HETATM   11  C23 UNL     1      10.220  34.935  21.248  1.00  0.00     0.037 A 
HETATM   12  C24 UNL     1       9.174  34.307  20.522  1.00  0.00     0.054 A 
ENDROOT
BRANCH  10  13
HETATM   13  N3  UNL     1      11.976  34.208  19.722  1.00  0.00    -0.342 N 
HETATM   14  H9  UNL     1      11.190  33.662  19.386  1.00  0.00     0.167 HD
BRANCH  13  15
HETATM   15  C10 UNL     1      12.776  34.674  18.657  1.00  0.00     0.033 A 
HETATM   16  C11 UNL     1      14.098  34.217  18.548  1.00  0.00     0.032 A 
HETATM   17  C12 UNL     1      14.956  34.693  17.548  1.00  0.00     0.039 A 
HETATM   18  C13 UNL     1      14.511  35.653  16.644  1.00  0.00     0.069 A 
HETATM   19  C21 UNL     1      13.216  36.152  16.774  1.00  0.00     0.039 A 
HETATM   20  C22 UNL     1      12.361  35.673  17.774  1.00  0.00     0.032 A 
BRANCH  18  21
HETATM   21  O2  UNL     1      15.246  36.211  15.636  1.00  0.00    -0.347 OA
BRANCH  21  22
HETATM   22  C14 UNL     1      16.623  35.842  15.526  1.00  0.00     0.214 C 
BRANCH  22  23
HETATM   23  C15 UNL     1      16.915  34.923  14.360  1.00  0.00    -0.034 A 
HETATM   24  C16 UNL     1      18.047  34.095  14.345  1.00  0.00     0.009 A 
HETATM   25  C17 UNL     1      18.312  33.274  13.248  1.00  0.00     0.001 A 
HETATM   26  C18 UNL     1      17.457  33.280  12.148  1.00  0.00     0.000 A 
HETATM   27  C19 UNL     1      16.337  34.110  12.143  1.00  0.00     0.001 A 
HETATM   28  C20 UNL     1      16.070  34.931  13.240  1.00  0.00     0.009 A 
ENDBRANCH  22  23
ENDBRANCH  21  22
ENDBRANCH  18  21
ENDBRANCH  13  15
ENDBRANCH  10  13
BRANCH   1  29
HETATM   29  O1  UNL     1       6.948  33.758  20.126  1.00  0.00    -0.347 OA
BRANCH  29  30
HETATM   30  C3  UNL     1       6.023  34.561  19.395  1.00  0.00     0.202 C 
BRANCH  30  31
HETATM   31  C2  UNL     1       5.280  33.652  18.464  1.00  0.00    -0.011 C 
HETATM   32  C1  UNL     1       4.661  32.521  18.829  1.00  0.00     0.009 C 
ENDBRANCH  30  31
ENDBRANCH  29  30
ENDBRANCH   1  29
TORSDOF 8
ENDMDL
MODEL 2
REMARK minimizedAffinity -7.17884254
REMARK  8 active torsions:
REMARK  status: ('A' for Active; 'I' for Inactive)
REMARK    1  A    between atoms: C2_2  and  C3_3 
REMARK    2  A    between atoms: C3_3  and  O1_4 
REMARK    3  A    between atoms: O1_4  and  C4_5 
REMARK    4  A    between atoms: C9_14  and  N3_15 
REMARK    5  A    between atoms: N3_15  and  C10_16 
REMARK    6  A    between atoms: C13_19  and  O2_20 
REMARK    7  A    between atoms: O2_20  and  C14_21 
REMARK    8  A    between atoms: C14_21  and  C15_22 
ROOT
HETATM    1  C4  UNL     1      11.040  35.274  21.477  1.00  0.00     0.070 A 
HETATM    2  C5  UNL     1       9.698  35.470  21.769  1.00  0.00     0.039 A 
HETATM    3  C6  UNL     1       8.784  35.689  20.730  1.00  0.00     0.033 A 
HETATM    4  C7  UNL     1       9.173  35.714  19.396  1.00  0.00     0.047 A 
HETATM    5  N1  UNL     1       8.242  35.937  18.466  1.00  0.00    -0.352 N 
ATOM      6  H1  UNL     1       7.262  36.081  18.711  1.00  0.00     0.166 HD
HETATM    7  C8  UNL     1       8.659  35.961  17.196  1.00  0.00     0.182 A 
HETATM    8  N2  UNL     1       9.912  35.773  16.774  1.00  0.00    -0.338 N 
ATOM      9  H2  UNL     1      10.151  35.807  15.783  1.00  0.00     0.168 HD
HETATM   10  C9  UNL     1      10.844  35.536  17.715  1.00  0.00     0.119 A 
HETATM   11  C23 UNL     1      10.522  35.506  19.088  1.00  0.00     0.037 A 
HETATM   12  C24 UNL     1      11.448  35.296  20.143  1.00  0.00     0.054 A 
ENDROOT
BRANCH  10  13
HETATM   13  N3  UNL     1      12.189  35.294  17.323  1.00  0.00    -0.342 N 
HETATM   14  H9  UNL     1      12.200  34.552  16.631  1.00  0.00     0.167 HD
BRANCH  13  15
HETATM   15  C10 UNL     1      13.226  36.226  17.099  1.00  0.00     0.033 A 
HETATM   16  C11 UNL     1      14.050  36.596  18.172  1.00  0.00     0.032 A 
HETATM   17  C12 UNL     1      15.054  37.563  18.023  1.00  0.00     0.039 A 
HETATM   18  C13 UNL     1      15.239  38.194  16.796  1.00  0.00     0.069 A 
HETATM   19  C21 UNL     1      14.392  37.871  15.737  1.00  0.00     0.039 A 
HETATM   20  C22 UNL     1      13.392  36.904  15.889  1.00  0.00     0.032 A 
BRANCH  18  21
HETATM   21  O2  UNL     1      16.165  39.160  16.520  1.00  0.00    -0.347 OA
BRANCH  21  22
HETATM   22  C14 UNL     1      15.798  40.524  16.743  1.00  0.00     0.214 C 
BRANCH  22  23
HETATM   23  C15 UNL     1      16.363  41.481  15.715  1.00  0.00    -0.034 A 
HETATM   24  C16 UNL     1      16.609  41.077  14.395  1.00  0.00     0.009 A 
HETATM   25  C17 UNL     1      17.155  41.968  13.470  1.00  0.00     0.001 A 
HETATM   26  C18 UNL     1      17.474  43.268  13.856  1.00  0.00     0.000 A 
HETATM   27  C19 UNL     1      17.250  43.678  15.168  1.00  0.00     0.001 A 
HETATM   28  C20 UNL     1      16.702  42.789  16.095  1.00  0.00     0.009 A 
ENDBRANCH  22  23
ENDBRANCH  21  22
ENDBRANCH  18  21
ENDBRANCH  13  15
ENDBRANCH  10  13
BRANCH   1  29
HETATM   29  O1  UNL     1      12.042  35.056  22.379  1.00  0.00    -0.347 OA
BRANCH  29  30
HETATM   30  C3  UNL     1      13.098  36.015  22.425  1.00  0.00     0.202 C 
BRANCH  30  31
HETATM   31  C2  UNL     1      14.282  35.408  21.736  1.00  0.00    -0.011 C 
HETATM   32  C1  UNL     1      15.552  35.530  22.145  1.00  0.00     0.009 C 
ENDBRANCH  30  31
ENDBRANCH  29  30
ENDBRANCH   1  29
TORSDOF 8
ENDMDL
MODEL 3
REMARK minimizedAffinity -7.16920757
REMARK  8 active torsions:
REMARK  status: ('A' for Active; 'I' for Inactive)
REMARK    1  A    between atoms: C2_2  and  C3_3 
REMARK    2  A    between atoms: C3_3  and  O1_4 
REMARK    3  A    between atoms: O1_4  and  C4_5 
REMARK    4  A    between atoms: C9_14  and  N3_15 
REMARK    5  A    between atoms: N3_15  and  C10_16 
REMARK    6  A    between atoms: C13_19  and  O2_20 
REMARK    7  A    between atoms: O2_20  and  C14_21 
REMARK    8  A    between atoms: C14_21  and  C15_22 
ROOT
HETATM    1  C4  UNL     1       9.474  34.894  22.266  1.00  0.00     0.070 A 
HETATM    2  C5  UNL     1       8.188  35.395  22.129  1.00  0.00     0.039 A 
HETATM    3  C6  UNL     1       7.728  35.796  20.868  1.00  0.00     0.033 A 
HETATM    4  C7  UNL     1       8.519  35.706  19.729  1.00  0.00     0.047 A 
HETATM    5  N1  UNL     1       8.008  36.115  18.566  1.00  0.00    -0.352 N 
ATOM      6  H1  UNL     1       7.059  36.483  18.496  1.00  0.00     0.166 HD
HETATM    7  C8  UNL     1       8.805  36.018  17.497  1.00  0.00     0.182 A 
HETATM    8  N2  UNL     1      10.052  35.542  17.483  1.00  0.00    -0.338 N 
ATOM      9  H2  UNL     1      10.598  35.501  16.622  1.00  0.00     0.168 HD
HETATM   10  C9  UNL     1      10.557  35.118  18.655  1.00  0.00     0.119 A 
HETATM   11  C23 UNL     1       9.814  35.190  19.852  1.00  0.00     0.037 A 
HETATM   12  C24 UNL     1      10.283  34.796  21.133  1.00  0.00     0.054 A 
ENDROOT
BRANCH  10  13
HETATM   13  N3  UNL     1      11.868  34.569  18.696  1.00  0.00    -0.342 N 
HETATM   14  H9  UNL     1      11.801  33.558  18.648  1.00  0.00     0.167 HD
BRANCH  13  15
HETATM   15  C10 UNL     1      13.043  35.041  18.072  1.00  0.00     0.033 A 
HETATM   16  C11 UNL     1      12.959  36.143  17.208  1.00  0.00     0.032 A 
HETATM   17  C12 UNL     1      14.082  36.615  16.514  1.00  0.00     0.039 A 
HETATM   18  C13 UNL     1      15.311  35.977  16.658  1.00  0.00     0.069 A 
HETATM   19  C21 UNL     1      15.395  34.850  17.474  1.00  0.00     0.039 A 
HETATM   20  C22 UNL     1      14.272  34.383  18.167  1.00  0.00     0.032 A 
BRANCH  18  21
HETATM   21  O2  UNL     1      16.475  36.323  16.031  1.00  0.00    -0.347 OA
BRANCH  21  22
HETATM   22  C14 UNL     1      17.440  35.295  15.795  1.00  0.00     0.214 C 
BRANCH  22  23
HETATM   23  C15 UNL     1      17.359  34.692  14.410  1.00  0.00    -0.034 A 
HETATM   24  C16 UNL     1      16.315  35.013  13.531  1.00  0.00     0.009 A 
HETATM   25  C17 UNL     1      16.244  34.425  12.267  1.00  0.00     0.001 A 
HETATM   26  C18 UNL     1      17.207  33.499  11.872  1.00  0.00     0.000 A 
HETATM   27  C19 UNL     1      18.241  33.158  12.742  1.00  0.00     0.001 A 
HETATM   28  C20 UNL     1      18.314  33.746  14.006  1.00  0.00     0.009 A 
ENDBRANCH  22  23
ENDBRANCH  21  22
ENDBRANCH  18  21
ENDBRANCH  13  15
ENDBRANCH  10  13
BRANCH   1  29
HETATM   29  O1  UNL     1      10.060  34.471  23.426  1.00  0.00    -0.347 OA
BRANCH  29  30
HETATM   30  C3  UNL     1      11.029  35.335  24.019  1.00  0.00     0.202 C 
BRANCH  30  31
HETATM   31  C2  UNL     1      10.354  36.645  24.287  1.00  0.00    -0.011 C 
HETATM   32  C1  UNL     1      10.954  37.841  24.237  1.00  0.00     0.009 C 
ENDBRANCH  30  31
ENDBRANCH  29  30
ENDBRANCH   1  29
TORSDOF 8
ENDMDL
MODEL 4
REMARK minimizedAffinity -6.84552717
REMARK  8 active torsions:
REMARK  status: ('A' for Active; 'I' for Inactive)
REMARK    1  A    between atoms: C2_2  and  C3_3 
REMARK    2  A    between atoms: C3_3  and  O1_4 
REMARK    3  A    between atoms: O1_4  and  C4_5 
REMARK    4  A    between atoms: C9_14  and  N3_15 
REMARK    5  A    between atoms: N3_15  and  C10_16 
REMARK    6  A    between atoms: C13_19  and  O2_20 
REMARK    7  A    between atoms: O2_20  and  C14_21 
REMARK    8  A    between atoms: C14_21  and  C15_22 
ROOT
HETATM    1  C4  UNL     1      17.621  47.466   5.375  1.00  0.00     0.070 A 
HETATM    2  C5  UNL     1      18.626  47.052   6.237  1.00  0.00     0.039 A 
HETATM    3  C6  UNL     1      19.242  47.980   7.086  1.00  0.00     0.033 A 
HETATM    4  C7  UNL     1      18.878  49.321   7.104  1.00  0.00     0.047 A 
HETATM    5  N1  UNL     1      19.519  50.143   7.937  1.00  0.00    -0.352 N 
ATOM      6  H1  UNL     1      20.257  49.810   8.558  1.00  0.00     0.166 HD
HETATM    7  C8  UNL     1      19.144  51.426   7.916  1.00  0.00     0.182 A 
HETATM    8  N2  UNL     1      18.186  51.956   7.152  1.00  0.00    -0.338 N 
ATOM      9  H2  UNL     1      17.958  52.949   7.195  1.00  0.00     0.168 HD
HETATM   10  C9  UNL     1      17.534  51.121   6.324  1.00  0.00     0.119 A 
HETATM   11  C23 UNL     1      17.858  49.750   6.247  1.00  0.00     0.037 A 
HETATM   12  C24 UNL     1      17.243  48.810   5.379  1.00  0.00     0.054 A 
ENDROOT
BRANCH  10  13
HETATM   13  N3  UNL     1      16.480  51.621   5.510  1.00  0.00    -0.342 N 
HETATM   14  H9  UNL     1      15.646  51.069   5.679  1.00  0.00     0.167 HD
BRANCH  13  15
HETATM   15  C10 UNL     1      16.162  52.962   5.204  1.00  0.00     0.033 A 
HETATM   16  C11 UNL     1      14.825  53.379   5.287  1.00  0.00     0.032 A 
HETATM   17  C12 UNL     1      14.443  54.681   4.935  1.00  0.00     0.039 A 
HETATM   18  C13 UNL     1      15.393  55.588   4.473  1.00  0.00     0.069 A 
HETATM   19  C21 UNL     1      16.715  55.168   4.339  1.00  0.00     0.039 A 
HETATM   20  C22 UNL     1      17.094  53.868   4.693  1.00  0.00     0.032 A 
BRANCH  18  21
HETATM   21  O2  UNL     1      15.154  56.876   4.084  1.00  0.00    -0.347 OA
BRANCH  21  22
HETATM   22  C14 UNL     1      13.884  57.173   3.496  1.00  0.00     0.214 C 
BRANCH  22  23
HETATM   23  C15 UNL     1      13.877  57.081   1.986  1.00  0.00    -0.034 A 
HETATM   24  C16 UNL     1      14.846  56.341   1.292  1.00  0.00     0.009 A 
HETATM   25  C17 UNL     1      14.837  56.290  -0.102  1.00  0.00     0.001 A 
HETATM   26  C18 UNL     1      13.870  56.989  -0.821  1.00  0.00     0.000 A 
HETATM   27  C19 UNL     1      12.911  57.741  -0.146  1.00  0.00     0.001 A 
HETATM   28  C20 UNL     1      12.918  57.792   1.250  1.00  0.00     0.009 A 
ENDBRANCH  22  23
ENDBRANCH  21  22
ENDBRANCH  18  21
ENDBRANCH  13  15
ENDBRANCH  10  13
BRANCH   1  29
HETATM   29  O1  UNL     1      16.937  46.682   4.490  1.00  0.00    -0.347 OA
BRANCH  29  30
HETATM   30  C3  UNL     1      15.624  47.105   4.125  1.00  0.00     0.202 C 
BRANCH  30  31
HETATM   31  C2  UNL     1      15.244  46.360   2.882  1.00  0.00    -0.011 C 
HETATM   32  C1  UNL     1      15.818  45.224   2.464  1.00  0.00     0.009 C 
ENDBRANCH  30  31
ENDBRANCH  29  30
ENDBRANCH   1  29
TORSDOF 8
ENDMDL
MODEL 5
REMARK minimizedAffinity -6.82041168
REMARK  8 active torsions:
REMARK  status: ('A' for Active; 'I' for Inactive)
REMARK    1  A    between atoms: C2_2  and  C3_3 
REMARK    2  A    between atoms: C3_3  and  O1_4 
REMARK    3  A    between atoms: O1_4  and  C4_5 
REMARK    4  A    between atoms: C9_14  and  N3_15 
REMARK    5  A    between atoms: N3_15  and  C10_16 
REMARK    6  A    between atoms: C13_19  and  O2_20 
REMARK    7  A    between atoms: O2_20  and  C14_21 
REMARK    8  A    between atoms: C14_21  and  C15_22 
ROOT
HETATM    1  C4  UNL     1      17.169  47.542   5.920  1.00  0.00     0.070 A 
HETATM    2  C5  UNL     1      18.272  47.174   6.678  1.00  0.00     0.039 A 
HETATM    3  C6  UNL     1      19.071  48.160   7.270  1.00  0.00     0.033 A 
HETATM    4  C7  UNL     1      18.796  49.515   7.133  1.00  0.00     0.047 A 
HETATM    5  N1  UNL     1      19.610  50.393   7.724  1.00  0.00    -0.352 N 
ATOM      6  H1  UNL     1      20.416  50.092   8.272  1.00  0.00     0.166 HD
HETATM    7  C8  UNL     1      19.314  51.686   7.560  1.00  0.00     0.182 A 
HETATM    8  N2  UNL     1      18.280  52.178   6.874  1.00  0.00    -0.338 N 
ATOM      9  H2  UNL     1      18.122  53.183   6.795  1.00  0.00     0.168 HD
HETATM   10  C9  UNL     1      17.455  51.290   6.292  1.00  0.00     0.119 A 
HETATM   11  C23 UNL     1      17.679  49.900   6.382  1.00  0.00     0.037 A 
HETATM   12  C24 UNL     1      16.878  48.899   5.772  1.00  0.00     0.054 A 
ENDROOT
BRANCH  10  13
HETATM   13  N3  UNL     1      16.317  51.754   5.577  1.00  0.00    -0.342 N 
HETATM   14  H9  UNL     1      15.501  51.239   5.890  1.00  0.00     0.167 HD
BRANCH  13  15
HETATM   15  C10 UNL     1      15.985  53.075   5.207  1.00  0.00     0.033 A 
HETATM   16  C11 UNL     1      14.651  53.497   5.312  1.00  0.00     0.032 A 
HETATM   17  C12 UNL     1      14.255  54.776   4.901  1.00  0.00     0.039 A 
HETATM   18  C13 UNL     1      15.186  55.655   4.356  1.00  0.00     0.069 A 
HETATM   19  C21 UNL     1      16.504  55.229   4.198  1.00  0.00     0.039 A 
HETATM   20  C22 UNL     1      16.897  53.951   4.612  1.00  0.00     0.032 A 
BRANCH  18  21
HETATM   21  O2  UNL     1      14.931  56.919   3.902  1.00  0.00    -0.347 OA
BRANCH  21  22
HETATM   22  C14 UNL     1      13.820  57.104   3.021  1.00  0.00     0.214 C 
BRANCH  22  23
HETATM   23  C15 UNL     1      13.463  58.556   2.789  1.00  0.00    -0.034 A 
HETATM   24  C16 UNL     1      13.152  59.039   1.510  1.00  0.00     0.009 A 
HETATM   25  C17 UNL     1      12.851  60.387   1.313  1.00  0.00     0.001 A 
HETATM   26  C18 UNL     1      12.872  61.272   2.389  1.00  0.00     0.000 A 
HETATM   27  C19 UNL     1      13.195  60.809   3.663  1.00  0.00     0.001 A 
HETATM   28  C20 UNL     1      13.495  59.460   3.862  1.00  0.00     0.009 A 
ENDBRANCH  22  23
ENDBRANCH  21  22
ENDBRANCH  18  21
ENDBRANCH  13  15
ENDBRANCH  10  13
BRANCH   1  29
HETATM   29  O1  UNL     1      16.306  46.699   5.281  1.00  0.00    -0.347 OA
BRANCH  29  30
HETATM   30  C3  UNL     1      15.647  47.199   4.118  1.00  0.00     0.202 C 
BRANCH  30  31
HETATM   31  C2  UNL     1      16.162  46.424   2.944  1.00  0.00    -0.011 C 
HETATM   32  C1  UNL     1      15.492  45.449   2.316  1.00  0.00     0.009 C 
ENDBRANCH  30  31
ENDBRANCH  29  30
ENDBRANCH   1  29
TORSDOF 8
ENDMDL
MODEL 6
REMARK minimizedAffinity -6.64251566
REMARK  8 active torsions:
REMARK  status: ('A' for Active; 'I' for Inactive)
REMARK    1  A    between atoms: C2_2  and  C3_3 
REMARK    2  A    between atoms: C3_3  and  O1_4 
REMARK    3  A    between atoms: O1_4  and  C4_5 
REMARK    4  A    between atoms: C9_14  and  N3_15 
REMARK    5  A    between atoms: N3_15  and  C10_16 
REMARK    6  A    between atoms: C13_19  and  O2_20 
REMARK    7  A    between atoms: O2_20  and  C14_21 
REMARK    8  A    between atoms: C14_21  and  C15_22 
ROOT
HETATM    1  C4  UNL     1      15.943  38.723  16.219  1.00  0.00     0.070 A 
HETATM    2  C5  UNL     1      16.492  38.733  14.945  1.00  0.00     0.039 A 
HETATM    3  C6  UNL     1      17.141  37.591  14.457  1.00  0.00     0.033 A 
HETATM    4  C7  UNL     1      17.255  36.428  15.208  1.00  0.00     0.047 A 
HETATM    5  N1  UNL     1      17.895  35.386  14.673  1.00  0.00    -0.352 N 
ATOM      6  H1  UNL     1      18.291  35.424  13.734  1.00  0.00     0.166 HD
HETATM    7  C8  UNL     1      17.989  34.289  15.432  1.00  0.00     0.182 A 
HETATM    8  N2  UNL     1      17.495  34.137  16.663  1.00  0.00    -0.338 N 
ATOM      9  H2  UNL     1      17.610  33.265  17.179  1.00  0.00     0.168 HD
HETATM   10  C9  UNL     1      16.840  35.186  17.192  1.00  0.00     0.119 A 
HETATM   11  C23 UNL     1      16.695  36.400  16.490  1.00  0.00     0.037 A 
HETATM   12  C24 UNL     1      16.048  37.562  16.987  1.00  0.00     0.054 A 
ENDROOT
BRANCH  10  13
HETATM   13  N3  UNL     1      16.262  35.070  18.486  1.00  0.00    -0.342 N 
HETATM   14  H9  UNL     1      16.510  35.890  19.030  1.00  0.00     0.167 HD
BRANCH  13  15
HETATM   15  C10 UNL     1      14.989  34.578  18.845  1.00  0.00     0.033 A 
HETATM   16  C11 UNL     1      14.049  34.323  17.835  1.00  0.00     0.032 A 
HETATM   17  C12 UNL     1      12.750  33.892  18.137  1.00  0.00     0.039 A 
HETATM   18  C13 UNL     1      12.360  33.726  19.462  1.00  0.00     0.069 A 
HETATM   19  C21 UNL     1      13.268  34.026  20.476  1.00  0.00     0.039 A 
HETATM   20  C22 UNL     1      14.566  34.454  20.170  1.00  0.00     0.032 A 
BRANCH  18  21
HETATM   21  O2  UNL     1      11.125  33.329  19.894  1.00  0.00    -0.347 OA
BRANCH  21  22
HETATM   22  C14 UNL     1      10.414  34.196  20.781  1.00  0.00     0.214 C 
BRANCH  22  23
HETATM   23  C15 UNL     1       9.292  34.961  20.113  1.00  0.00    -0.034 A 
HETATM   24  C16 UNL     1       9.550  35.984  19.190  1.00  0.00     0.009 A 
HETATM   25  C17 UNL     1       8.502  36.695  18.605  1.00  0.00     0.001 A 
HETATM   26  C18 UNL     1       7.183  36.402  18.946  1.00  0.00     0.000 A 
HETATM   27  C19 UNL     1       6.912  35.399  19.874  1.00  0.00     0.001 A 
HETATM   28  C20 UNL     1       7.960  34.685  20.459  1.00  0.00     0.009 A 
ENDBRANCH  22  23
ENDBRANCH  21  22
ENDBRANCH  18  21
ENDBRANCH  13  15
ENDBRANCH  10  13
BRANCH   1  29
HETATM   29  O1  UNL     1      15.290  39.756  16.829  1.00  0.00    -0.347 OA
BRANCH  29  30
HETATM   30  C3  UNL     1      16.091  40.807  17.367  1.00  0.00     0.202 C 
BRANCH  30  31
HETATM   31  C2  UNL     1      15.766  42.053  16.601  1.00  0.00    -0.011 C 
HETATM   32  C1  UNL     1      16.663  42.969  16.214  1.00  0.00     0.009 C 
ENDBRANCH  30  31
ENDBRANCH  29  30
ENDBRANCH   1  29
TORSDOF 8
ENDMDL
MODEL 7
REMARK minimizedAffinity -6.62271118
REMARK  8 active torsions:
REMARK  status: ('A' for Active; 'I' for Inactive)
REMARK    1  A    between atoms: C2_2  and  C3_3 
REMARK    2  A    between atoms: C3_3  and  O1_4 
REMARK    3  A    between atoms: O1_4  and  C4_5 
REMARK    4  A    between atoms: C9_14  and  N3_15 
REMARK    5  A    between atoms: N3_15  and  C10_16 
REMARK    6  A    between atoms: C13_19  and  O2_20 
REMARK    7  A    between atoms: O2_20  and  C14_21 
REMARK    8  A    between atoms: C14_21  and  C15_22 
ROOT
HETATM    1  C4  UNL     1      15.983  40.509  15.858  1.00  0.00     0.070 A 
HETATM    2  C5  UNL     1      16.362  40.892  14.579  1.00  0.00     0.039 A 
HETATM    3  C6  UNL     1      16.741  39.919  13.645  1.00  0.00     0.033 A 
HETATM    4  C7  UNL     1      16.748  38.564  13.950  1.00  0.00     0.047 A 
HETATM    5  N1  UNL     1      17.129  37.701  13.005  1.00  0.00    -0.352 N 
ATOM      6  H1  UNL     1      17.407  38.013  12.074  1.00  0.00     0.166 HD
HETATM    7  C8  UNL     1      17.129  36.407  13.342  1.00  0.00     0.182 A 
HETATM    8  N2  UNL     1      16.774  35.900  14.525  1.00  0.00    -0.338 N 
ATOM      9  H2  UNL     1      16.802  34.897  14.705  1.00  0.00     0.168 HD
HETATM   10  C9  UNL     1      16.378  36.773  15.469  1.00  0.00     0.119 A 
HETATM   11  C23 UNL     1      16.356  38.163  15.232  1.00  0.00     0.037 A 
HETATM   12  C24 UNL     1      15.984  39.151  16.181  1.00  0.00     0.054 A 
ENDROOT
BRANCH  10  13
HETATM   13  N3  UNL     1      15.955  36.289  16.738  1.00  0.00    -0.342 N 
HETATM   14  H9  UNL     1      16.329  36.895  17.461  1.00  0.00     0.167 HD
BRANCH  13  15
HETATM   15  C10 UNL     1      14.701  35.755  17.106  1.00  0.00     0.033 A 
HETATM   16  C11 UNL     1      13.546  36.520  16.887  1.00  0.00     0.032 A 
HETATM   17  C12 UNL     1      12.282  36.066  17.289  1.00  0.00     0.039 A 
HETATM   18  C13 UNL     1      12.153  34.842  17.939  1.00  0.00     0.069 A 
HETATM   19  C21 UNL     1      13.301  34.098  18.208  1.00  0.00     0.039 A 
HETATM   20  C22 UNL     1      14.561  34.553  17.803  1.00  0.00     0.032 A 
BRANCH  18  21
HETATM   21  O2  UNL     1      10.988  34.292  18.395  1.00  0.00    -0.347 OA
BRANCH  21  22
HETATM   22  C14 UNL     1      10.792  34.217  19.810  1.00  0.00     0.214 C 
BRANCH  22  23
HETATM   23  C15 UNL     1       9.449  34.745  20.265  1.00  0.00    -0.034 A 
HETATM   24  C16 UNL     1       8.680  35.591  19.452  1.00  0.00     0.009 A 
HETATM   25  C17 UNL     1       7.456  36.089  19.902  1.00  0.00     0.001 A 
HETATM   26  C18 UNL     1       6.992  35.758  21.173  1.00  0.00     0.000 A 
HETATM   27  C19 UNL     1       7.753  34.932  21.998  1.00  0.00     0.001 A 
HETATM   28  C20 UNL     1       8.977  34.432  21.549  1.00  0.00     0.009 A 
ENDBRANCH  22  23
ENDBRANCH  21  22
ENDBRANCH  18  21
ENDBRANCH  13  15
ENDBRANCH  10  13
BRANCH   1  29
HETATM   29  O1  UNL     1      15.596  41.338  16.872  1.00  0.00    -0.347 OA
BRANCH  29  30
HETATM   30  C3  UNL     1      16.586  42.214  17.411  1.00  0.00     0.202 C 
BRANCH  30  31
HETATM   31  C2  UNL     1      16.699  41.912  18.874  1.00  0.00    -0.011 C 
HETATM   32  C1  UNL     1      17.771  42.179  19.631  1.00  0.00     0.009 C 
ENDBRANCH  30  31
ENDBRANCH  29  30
ENDBRANCH   1  29
TORSDOF 8
ENDMDL
MODEL 8
REMARK minimizedAffinity -6.61776924
REMARK  8 active torsions:
REMARK  status: ('A' for Active; 'I' for Inactive)
REMARK    1  A    between atoms: C2_2  and  C3_3 
REMARK    2  A    between atoms: C3_3  and  O1_4 
REMARK    3  A    between atoms: O1_4  and  C4_5 
REMARK    4  A    between atoms: C9_14  and  N3_15 
REMARK    5  A    between atoms: N3_15  and  C10_16 
REMARK    6  A    between atoms: C13_19  and  O2_20 
REMARK    7  A    between atoms: O2_20  and  C14_21 
REMARK    8  A    between atoms: C14_21  and  C15_22 
ROOT
HETATM    1  C4  UNL     1       9.016  34.590  21.192  1.00  0.00     0.070 A 
HETATM    2  C5  UNL     1       8.815  35.188  22.428  1.00  0.00     0.039 A 
HETATM    3  C6  UNL     1       9.904  35.722  23.128  1.00  0.00     0.033 A 
HETATM    4  C7  UNL     1      11.199  35.681  22.626  1.00  0.00     0.047 A 
HETATM    5  N1  UNL     1      12.183  36.207  23.358  1.00  0.00    -0.352 N 
ATOM      6  H1  UNL     1      12.005  36.637  24.266  1.00  0.00     0.166 HD
HETATM    7  C8  UNL     1      13.414  36.139  22.841  1.00  0.00     0.182 A 
HETATM    8  N2  UNL     1      13.747  35.609  21.662  1.00  0.00    -0.338 N 
ATOM      9  H2  UNL     1      14.713  35.596  21.337  1.00  0.00     0.168 HD
HETATM   10  C9  UNL     1      12.749  35.093  20.922  1.00  0.00     0.119 A 
HETATM   11  C23 UNL     1      11.413  35.092  21.375  1.00  0.00     0.037 A 
HETATM   12  C24 UNL     1      10.310  34.540  20.672  1.00  0.00     0.054 A 
ENDROOT
BRANCH  10  13
HETATM   13  N3  UNL     1      13.038  34.545  19.642  1.00  0.00    -0.342 N 
HETATM   14  H9  UNL     1      12.171  34.240  19.213  1.00  0.00     0.167 HD
BRANCH  13  15
HETATM   15  C10 UNL     1      13.962  34.998  18.675  1.00  0.00     0.033 A 
HETATM   16  C11 UNL     1      13.641  36.124  17.902  1.00  0.00     0.032 A 
HETATM   17  C12 UNL     1      14.493  36.581  16.887  1.00  0.00     0.039 A 
HETATM   18  C13 UNL     1      15.678  35.904  16.613  1.00  0.00     0.069 A 
HETATM   19  C21 UNL     1      15.983  34.755  17.340  1.00  0.00     0.039 A 
HETATM   20  C22 UNL     1      15.131  34.303  18.354  1.00  0.00     0.032 A 
BRANCH  18  21
HETATM   21  O2  UNL     1      16.586  36.232  15.645  1.00  0.00    -0.347 OA
BRANCH  21  22
HETATM   22  C14 UNL     1      16.993  35.208  14.733  1.00  0.00     0.214 C 
BRANCH  22  23
HETATM   23  C15 UNL     1      17.311  35.721  13.346  1.00  0.00    -0.034 A 
HETATM   24  C16 UNL     1      17.523  34.846  12.271  1.00  0.00     0.009 A 
HETATM   25  C17 UNL     1      17.842  35.339  11.005  1.00  0.00     0.001 A 
HETATM   26  C18 UNL     1      17.966  36.711  10.801  1.00  0.00     0.000 A 
HETATM   27  C19 UNL     1      17.775  37.592  11.863  1.00  0.00     0.001 A 
HETATM   28  C20 UNL     1      17.455  37.101  13.130  1.00  0.00     0.009 A 
ENDBRANCH  22  23
ENDBRANCH  21  22
ENDBRANCH  18  21
ENDBRANCH  13  15
ENDBRANCH  10  13
BRANCH   1  29
HETATM   29  O1  UNL     1       8.059  34.023  20.400  1.00  0.00    -0.347 OA
BRANCH  29  30
HETATM   30  C3  UNL     1       6.785  34.665  20.358  1.00  0.00     0.202 C 
BRANCH  30  31
HETATM   31  C2  UNL     1       6.737  35.481  19.102  1.00  0.00    -0.011 C 
HETATM   32  C1  UNL     1       7.487  36.565  18.864  1.00  0.00     0.009 C 
ENDBRANCH  30  31
ENDBRANCH  29  30
ENDBRANCH   1  29
TORSDOF 8
ENDMDL
MODEL 9
REMARK minimizedAffinity -6.61553717
REMARK  8 active torsions:
REMARK  status: ('A' for Active; 'I' for Inactive)
REMARK    1  A    between atoms: C2_2  and  C3_3 
REMARK    2  A    between atoms: C3_3  and  O1_4 
REMARK    3  A    between atoms: O1_4  and  C4_5 
REMARK    4  A    between atoms: C9_14  and  N3_15 
REMARK    5  A    between atoms: N3_15  and  C10_16 
REMARK    6  A    between atoms: C13_19  and  O2_20 
REMARK    7  A    between atoms: O2_20  and  C14_21 
REMARK    8  A    between atoms: C14_21  and  C15_22 
ROOT
HETATM    1  C4  UNL     1      13.851  56.983   1.923  1.00  0.00     0.070 A 
HETATM    2  C5  UNL     1      13.416  56.719   0.632  1.00  0.00     0.039 A 
HETATM    3  C6  UNL     1      12.862  57.747  -0.141  1.00  0.00     0.033 A 
HETATM    4  C7  UNL     1      12.734  59.045   0.338  1.00  0.00     0.047 A 
HETATM    5  N1  UNL     1      12.189  59.967  -0.459  1.00  0.00    -0.352 N 
ATOM      6  H1  UNL     1      11.874  59.742  -1.403  1.00  0.00     0.166 HD
HETATM    7  C8  UNL     1      12.077  61.201   0.044  1.00  0.00     0.182 A 
HETATM    8  N2  UNL     1      12.467  61.597   1.258  1.00  0.00    -0.338 N 
ATOM      9  H2  UNL     1      12.346  62.560   1.569  1.00  0.00     0.168 HD
HETATM   10  C9  UNL     1      13.028  60.667   2.052  1.00  0.00     0.119 A 
HETATM   11  C23 UNL     1      13.180  59.328   1.634  1.00  0.00     0.037 A 
HETATM   12  C24 UNL     1      13.730  58.282   2.420  1.00  0.00     0.054 A 
ENDROOT
BRANCH  10  13
HETATM   13  N3  UNL     1      13.495  61.038   3.343  1.00  0.00    -0.342 N 
HETATM   14  H9  UNL     1      14.078  61.863   3.256  1.00  0.00     0.167 HD
BRANCH  13  15
HETATM   15  C10 UNL     1      12.799  61.022   4.572  1.00  0.00     0.033 A 
HETATM   16  C11 UNL     1      12.838  59.863   5.361  1.00  0.00     0.032 A 
HETATM   17  C12 UNL     1      12.117  59.770   6.559  1.00  0.00     0.039 A 
HETATM   18  C13 UNL     1      11.324  60.833   6.982  1.00  0.00     0.069 A 
HETATM   19  C21 UNL     1      11.237  61.969   6.180  1.00  0.00     0.039 A 
HETATM   20  C22 UNL     1      11.960  62.060   4.985  1.00  0.00     0.032 A 
BRANCH  18  21
HETATM   21  O2  UNL     1      10.561  60.867   8.115  1.00  0.00    -0.347 OA
BRANCH  21  22
HETATM   22  C14 UNL     1      11.184  61.295   9.329  1.00  0.00     0.214 C 
BRANCH  22  23
HETATM   23  C15 UNL     1      12.276  60.366   9.812  1.00  0.00    -0.034 A 
HETATM   24  C16 UNL     1      13.580  60.826  10.044  1.00  0.00     0.009 A 
HETATM   25  C17 UNL     1      14.580  59.948  10.464  1.00  0.00     0.001 A 
HETATM   26  C18 UNL     1      14.292  58.597  10.644  1.00  0.00     0.000 A 
HETATM   27  C19 UNL     1      13.005  58.122  10.401  1.00  0.00     0.001 A 
HETATM   28  C20 UNL     1      12.003  59.000   9.982  1.00  0.00     0.009 A 
ENDBRANCH  22  23
ENDBRANCH  21  22
ENDBRANCH  18  21
ENDBRANCH  13  15
ENDBRANCH  10  13
BRANCH   1  29
HETATM   29  O1  UNL     1      14.403  56.086   2.792  1.00  0.00    -0.347 OA
BRANCH  29  30
HETATM   30  C3  UNL     1      13.659  55.778   3.970  1.00  0.00     0.202 C 
BRANCH  30  31
HETATM   31  C2  UNL     1      14.587  55.075   4.913  1.00  0.00    -0.011 C 
HETATM   32  C1  UNL     1      14.430  53.818   5.349  1.00  0.00     0.009 C 
ENDBRANCH  30  31
ENDBRANCH  29  30
ENDBRANCH   1  29
TORSDOF 8
ENDMDL
