MODEL 1
REMARK minimizedAffinity -7.57967615
REMARK CNNscore 0.835367262
REMARK CNNaffinity 5.59071541
REMARK  3 active torsions:
REMARK  status: ('A' for Active; 'I' for Inactive)
REMARK    1  A    between atoms: C4_4  and  C5_5 
REMARK    2  A    between atoms: N2_8  and  C6_9 
REMARK    3  A    between atoms: C12_15  and  C13_16 
ROOT
HETATM    1  C5  UNL     1      17.162  52.279   5.466  1.00  0.00     0.038 C 
HETATM    2  N1  UNL     1      16.685  51.099   5.721  1.00  0.00    -0.301 N 
ATOM      3  H1  UNL     1      15.709  50.813   5.651  1.00  0.00     0.187 HD
HETATM    4  N2  UNL     1      17.734  50.311   6.102  1.00  0.00    -0.283 N 
HETATM    5  C12 UNL     1      18.997  51.045   6.207  1.00  0.00     0.147 C 
HETATM    6  C23 UNL     1      18.655  52.403   5.591  1.00  0.00     0.091 C 
ENDROOT
BRANCH   5   7
HETATM    7  C13 UNL     1      19.488  51.210   7.638  1.00  0.00    -0.032 A 
HETATM    8  C14 UNL     1      20.138  50.177   8.327  1.00  0.00     0.010 A 
HETATM    9  C15 UNL     1      20.554  50.353   9.649  1.00  0.00     0.013 A 
HETATM   10  C16 UNL     1      20.325  51.562  10.320  1.00  0.00    -0.026 A 
HETATM   11  C17 UNL     1      20.737  51.752  11.649  1.00  0.00     0.012 A 
HETATM   12  C21 UNL     1      19.664  52.611   9.643  1.00  0.00    -0.025 A 
HETATM   13  C18 UNL     1      20.501  52.962  12.303  1.00  0.00     0.001 A 
HETATM   14  C19 UNL     1      19.849  53.995  11.638  1.00  0.00     0.001 A 
HETATM   15  C20 UNL     1      19.434  53.822  10.317  1.00  0.00     0.012 A 
HETATM   16  C22 UNL     1      19.253  52.421   8.313  1.00  0.00     0.021 A 
ENDBRANCH   5   7
BRANCH   4  17
HETATM   17  C6  UNL     1      17.583  48.930   6.227  1.00  0.00     0.051 A 
HETATM   18  C7  UNL     1      18.680  48.112   6.546  1.00  0.00     0.031 A 
HETATM   19  C8  UNL     1      18.559  46.724   6.677  1.00  0.00     0.002 A 
HETATM   20  C9  UNL     1      17.325  46.116   6.487  1.00  0.00     0.000 A 
HETATM   21  C10 UNL     1      16.218  46.895   6.166  1.00  0.00     0.002 A 
HETATM   22  C11 UNL     1      16.350  48.284   6.039  1.00  0.00     0.031 A 
ENDBRANCH   4  17
BRANCH   1  23
HETATM   23  C4  UNL     1      16.316  53.421   5.046  1.00  0.00    -0.012 A 
HETATM   24  C3  UNL     1      14.933  53.424   5.255  1.00  0.00     0.013 A 
HETATM   25  C2  UNL     1      14.165  54.518   4.846  1.00  0.00     0.001 A 
HETATM   26  C1  UNL     1      14.774  55.609   4.229  1.00  0.00     0.000 A 
HETATM   27  C25 UNL     1      16.152  55.613   4.019  1.00  0.00     0.001 A 
HETATM   28  C24 UNL     1      16.922  54.522   4.428  1.00  0.00     0.013 A 
ENDBRANCH   1  23
TORSDOF 3
ENDMDL
MODEL 2
REMARK minimizedAffinity -7.61419678
REMARK CNNscore 0.80176115
REMARK CNNaffinity 5.60504293
REMARK  3 active torsions:
REMARK  status: ('A' for Active; 'I' for Inactive)
REMARK    1  A    between atoms: C4_4  and  C5_5 
REMARK    2  A    between atoms: N2_8  and  C6_9 
REMARK    3  A    between atoms: C12_15  and  C13_16 
ROOT
HETATM    1  C5  UNL     1      17.138  52.331   5.473  1.00  0.00     0.038 C 
HETATM    2  N1  UNL     1      16.665  51.149   5.727  1.00  0.00    -0.301 N 
ATOM      3  H1  UNL     1      15.691  50.857   5.646  1.00  0.00     0.187 HD
HETATM    4  N2  UNL     1      17.714  50.368   6.123  1.00  0.00    -0.283 N 
HETATM    5  C12 UNL     1      18.971  51.110   6.241  1.00  0.00     0.147 C 
HETATM    6  C23 UNL     1      18.629  52.464   5.615  1.00  0.00     0.091 C 
ENDROOT
BRANCH   5   7
HETATM    7  C13 UNL     1      19.445  51.284   7.677  1.00  0.00    -0.032 A 
HETATM    8  C14 UNL     1      19.088  52.397   8.450  1.00  0.00     0.010 A 
HETATM    9  C15 UNL     1      19.560  52.539   9.757  1.00  0.00     0.013 A 
HETATM   10  C16 UNL     1      20.408  51.577  10.324  1.00  0.00    -0.026 A 
HETATM   11  C17 UNL     1      20.891  51.707  11.635  1.00  0.00     0.012 A 
HETATM   12  C21 UNL     1      20.784  50.452   9.555  1.00  0.00    -0.025 A 
HETATM   13  C18 UNL     1      21.734  50.740  12.185  1.00  0.00     0.001 A 
HETATM   14  C19 UNL     1      22.106  49.633  11.429  1.00  0.00     0.001 A 
HETATM   15  C20 UNL     1      21.634  49.489  10.123  1.00  0.00     0.012 A 
HETATM   16  C22 UNL     1      20.300  50.322   8.243  1.00  0.00     0.021 A 
ENDBRANCH   5   7
BRANCH   4  17
HETATM   17  C6  UNL     1      17.569  48.987   6.252  1.00  0.00     0.051 A 
HETATM   18  C7  UNL     1      18.655  48.183   6.639  1.00  0.00     0.031 A 
HETATM   19  C8  UNL     1      18.540  46.795   6.776  1.00  0.00     0.002 A 
HETATM   20  C9  UNL     1      17.325  46.172   6.522  1.00  0.00     0.000 A 
HETATM   21  C10 UNL     1      16.231  46.938   6.132  1.00  0.00     0.002 A 
HETATM   22  C11 UNL     1      16.356  48.327   6.000  1.00  0.00     0.031 A 
ENDBRANCH   4  17
BRANCH   1  23
HETATM   23  C4  UNL     1      16.291  53.466   5.038  1.00  0.00    -0.012 A 
HETATM   24  C3  UNL     1      14.908  53.472   5.253  1.00  0.00     0.013 A 
HETATM   25  C2  UNL     1      14.139  54.560   4.830  1.00  0.00     0.001 A 
HETATM   26  C1  UNL     1      14.746  55.641   4.193  1.00  0.00     0.000 A 
HETATM   27  C25 UNL     1      16.122  55.641   3.978  1.00  0.00     0.001 A 
HETATM   28  C24 UNL     1      16.894  54.556   4.400  1.00  0.00     0.013 A 
ENDBRANCH   1  23
TORSDOF 3
ENDMDL
MODEL 3
REMARK minimizedAffinity -6.40877771
REMARK CNNscore 0.659685075
REMARK CNNaffinity 5.45169592
REMARK  3 active torsions:
REMARK  status: ('A' for Active; 'I' for Inactive)
REMARK    1  A    between atoms: C4_4  and  C5_5 
REMARK    2  A    between atoms: N2_8  and  C6_9 
REMARK    3  A    between atoms: C12_15  and  C13_16 
ROOT
HETATM    1  C5  UNL     1      11.367  53.898  -5.252  1.00  0.00     0.038 C 
HETATM    2  N1  UNL     1      11.022  52.870  -4.538  1.00  0.00    -0.301 N 
ATOM      3  H1  UNL     1      10.186  52.299  -4.664  1.00  0.00     0.187 HD
HETATM    4  N2  UNL     1      11.987  52.694  -3.587  1.00  0.00    -0.283 N 
HETATM    5  C12 UNL     1      13.006  53.746  -3.599  1.00  0.00     0.147 C 
HETATM    6  C23 UNL     1      12.689  54.514  -4.883  1.00  0.00     0.091 C 
ENDROOT
BRANCH   5   7
HETATM    7  C13 UNL     1      12.945  54.668  -2.390  1.00  0.00    -0.032 A 
HETATM    8  C14 UNL     1      11.758  55.297  -1.991  1.00  0.00     0.010 A 
HETATM    9  C15 UNL     1      11.742  56.158  -0.891  1.00  0.00     0.013 A 
HETATM   10  C16 UNL     1      12.912  56.420  -0.165  1.00  0.00    -0.026 A 
HETATM   11  C17 UNL     1      12.911  57.283   0.942  1.00  0.00     0.012 A 
HETATM   12  C21 UNL     1      14.120  55.799  -0.558  1.00  0.00    -0.025 A 
HETATM   13  C18 UNL     1      14.085  57.533   1.654  1.00  0.00     0.001 A 
HETATM   14  C19 UNL     1      15.275  56.924   1.266  1.00  0.00     0.001 A 
HETATM   15  C20 UNL     1      15.292  56.063   0.168  1.00  0.00     0.012 A 
HETATM   16  C22 UNL     1      14.121  54.935  -1.666  1.00  0.00     0.021 A 
ENDBRANCH   5   7
BRANCH   4  17
HETATM   17  C6  UNL     1      12.019  51.538  -2.805  1.00  0.00     0.051 A 
HETATM   18  C7  UNL     1      10.835  50.851  -2.491  1.00  0.00     0.031 A 
HETATM   19  C8  UNL     1      10.836  49.690  -1.709  1.00  0.00     0.002 A 
HETATM   20  C9  UNL     1      12.033  49.188  -1.215  1.00  0.00     0.000 A 
HETATM   21  C10 UNL     1      13.224  49.847  -1.505  1.00  0.00     0.002 A 
HETATM   22  C11 UNL     1      13.212  51.007  -2.290  1.00  0.00     0.031 A 
ENDBRANCH   4  17
BRANCH   1  23
HETATM   23  C4  UNL     1      10.549  54.416  -6.373  1.00  0.00    -0.012 A 
HETATM   24  C3  UNL     1       9.657  53.595  -7.070  1.00  0.00     0.013 A 
HETATM   25  C2  UNL     1       8.901  54.118  -8.123  1.00  0.00     0.001 A 
HETATM   26  C1  UNL     1       9.033  55.458  -8.482  1.00  0.00     0.000 A 
HETATM   27  C25 UNL     1       9.919  56.282  -7.790  1.00  0.00     0.001 A 
HETATM   28  C24 UNL     1      10.675  55.763  -6.737  1.00  0.00     0.013 A 
ENDBRANCH   1  23
TORSDOF 3
ENDMDL
MODEL 4
REMARK minimizedAffinity -6.49708605
REMARK CNNscore 0.580572546
REMARK CNNaffinity 4.98283815
REMARK  3 active torsions:
REMARK  status: ('A' for Active; 'I' for Inactive)
REMARK    1  A    between atoms: C4_4  and  C5_5 
REMARK    2  A    between atoms: N2_8  and  C6_9 
REMARK    3  A    between atoms: C12_15  and  C13_16 
ROOT
HETATM    1  C5  UNL     1       7.794  62.363  -6.460  1.00  0.00     0.038 C 
HETATM    2  N1  UNL     1       6.620  62.770  -6.085  1.00  0.00    -0.301 N 
ATOM      3  H1  UNL     1       5.875  62.191  -5.697  1.00  0.00     0.187 HD
HETATM    4  N2  UNL     1       6.568  64.117  -6.304  1.00  0.00    -0.283 N 
HETATM    5  C12 UNL     1       7.761  64.639  -6.972  1.00  0.00     0.147 C 
HETATM    6  C23 UNL     1       8.722  63.448  -6.935  1.00  0.00     0.091 C 
ENDROOT
BRANCH   5   7
HETATM    7  C13 UNL     1       7.511  65.086  -8.405  1.00  0.00    -0.032 A 
HETATM    8  C14 UNL     1       6.486  64.538  -9.189  1.00  0.00     0.010 A 
HETATM    9  C15 UNL     1       6.299  64.952 -10.510  1.00  0.00     0.013 A 
HETATM   10  C16 UNL     1       7.137  65.918 -11.086  1.00  0.00    -0.026 A 
HETATM   11  C17 UNL     1       6.961  66.343 -12.412  1.00  0.00     0.012 A 
HETATM   12  C21 UNL     1       8.181  66.474 -10.313  1.00  0.00    -0.025 A 
HETATM   13  C18 UNL     1       7.804  67.305 -12.971  1.00  0.00     0.001 A 
HETATM   14  C19 UNL     1       8.833  67.852 -12.211  1.00  0.00     0.001 A 
HETATM   15  C20 UNL     1       9.020  67.440 -10.891  1.00  0.00     0.012 A 
HETATM   16  C22 UNL     1       8.356  66.049  -8.985  1.00  0.00     0.021 A 
ENDBRANCH   5   7
BRANCH   4  17
HETATM   17  C6  UNL     1       5.519  64.884  -5.796  1.00  0.00     0.051 A 
HETATM   18  C7  UNL     1       5.187  64.835  -4.431  1.00  0.00     0.031 A 
HETATM   19  C8  UNL     1       4.140  65.592  -3.894  1.00  0.00     0.002 A 
HETATM   20  C9  UNL     1       3.390  66.421  -4.718  1.00  0.00     0.000 A 
HETATM   21  C10 UNL     1       3.689  66.490  -6.075  1.00  0.00     0.002 A 
HETATM   22  C11 UNL     1       4.740  65.730  -6.603  1.00  0.00     0.031 A 
ENDBRANCH   4  17
BRANCH   1  23
HETATM   23  C4  UNL     1       8.218  60.945  -6.399  1.00  0.00    -0.012 A 
HETATM   24  C3  UNL     1       8.824  60.313  -7.490  1.00  0.00     0.013 A 
HETATM   25  C2  UNL     1       9.211  58.974  -7.398  1.00  0.00     0.001 A 
HETATM   26  C1  UNL     1       8.997  58.263  -6.218  1.00  0.00     0.000 A 
HETATM   27  C25 UNL     1       8.396  58.887  -5.127  1.00  0.00     0.001 A 
HETATM   28  C24 UNL     1       8.008  60.226  -5.216  1.00  0.00     0.013 A 
ENDBRANCH   1  23
TORSDOF 3
ENDMDL
MODEL 5
REMARK minimizedAffinity -7.25696516
REMARK CNNscore 0.520280004
REMARK CNNaffinity 4.63755369
REMARK  3 active torsions:
REMARK  status: ('A' for Active; 'I' for Inactive)
REMARK    1  A    between atoms: C4_4  and  C5_5 
REMARK    2  A    between atoms: N2_8  and  C6_9 
REMARK    3  A    between atoms: C12_15  and  C13_16 
ROOT
HETATM    1  C5  UNL     1       5.182  65.019  -5.198  1.00  0.00     0.038 C 
HETATM    2  N1  UNL     1       5.058  64.910  -6.485  1.00  0.00    -0.301 N 
ATOM      3  H1  UNL     1       4.211  65.081  -7.028  1.00  0.00     0.187 HD
HETATM    4  N2  UNL     1       6.271  64.523  -6.980  1.00  0.00    -0.283 N 
HETATM    5  C12 UNL     1       7.259  64.254  -5.933  1.00  0.00     0.147 C 
HETATM    6  C23 UNL     1       6.567  64.769  -4.669  1.00  0.00     0.091 C 
ENDROOT
BRANCH   5   7
HETATM    7  C13 UNL     1       7.613  62.781  -5.793  1.00  0.00    -0.032 A 
HETATM    8  C14 UNL     1       6.677  61.826  -5.372  1.00  0.00     0.010 A 
HETATM    9  C15 UNL     1       7.041  60.485  -5.229  1.00  0.00     0.013 A 
HETATM   10  C16 UNL     1       8.352  60.063  -5.494  1.00  0.00    -0.026 A 
HETATM   11  C17 UNL     1       8.731  58.719  -5.354  1.00  0.00     0.012 A 
HETATM   12  C21 UNL     1       9.310  61.014  -5.912  1.00  0.00    -0.025 A 
HETATM   13  C18 UNL     1      10.040  58.315  -5.622  1.00  0.00     0.001 A 
HETATM   14  C19 UNL     1      10.985  59.251  -6.031  1.00  0.00     0.001 A 
HETATM   15  C20 UNL     1      10.623  60.591  -6.176  1.00  0.00     0.012 A 
HETATM   16  C22 UNL     1       8.929  62.359  -6.053  1.00  0.00     0.021 A 
ENDBRANCH   5   7
BRANCH   4  17
HETATM   17  C6  UNL     1       6.522  64.536  -8.352  1.00  0.00     0.051 A 
HETATM   18  C7  UNL     1       6.847  65.733  -9.012  1.00  0.00     0.031 A 
HETATM   19  C8  UNL     1       7.103  65.776 -10.387  1.00  0.00     0.002 A 
HETATM   20  C9  UNL     1       7.033  64.613 -11.142  1.00  0.00     0.000 A 
HETATM   21  C10 UNL     1       6.709  63.411 -10.521  1.00  0.00     0.002 A 
HETATM   22  C11 UNL     1       6.457  63.378  -9.143  1.00  0.00     0.031 A 
ENDBRANCH   4  17
BRANCH   1  23
HETATM   23  C4  UNL     1       4.062  65.397  -4.305  1.00  0.00    -0.012 A 
HETATM   24  C3  UNL     1       3.828  64.727  -3.099  1.00  0.00     0.013 A 
HETATM   25  C2  UNL     1       2.762  65.110  -2.281  1.00  0.00     0.001 A 
HETATM   26  C1  UNL     1       1.928  66.160  -2.662  1.00  0.00     0.000 A 
HETATM   27  C25 UNL     1       2.157  66.832  -3.862  1.00  0.00     0.001 A 
HETATM   28  C24 UNL     1       3.222  66.453  -4.681  1.00  0.00     0.013 A 
ENDBRANCH   1  23
TORSDOF 3
ENDMDL
MODEL 6
REMARK minimizedAffinity -7.2244978
REMARK CNNscore 0.512660146
REMARK CNNaffinity 4.84267187
REMARK  3 active torsions:
REMARK  status: ('A' for Active; 'I' for Inactive)
REMARK    1  A    between atoms: C4_4  and  C5_5 
REMARK    2  A    between atoms: N2_8  and  C6_9 
REMARK    3  A    between atoms: C12_15  and  C13_16 
ROOT
HETATM    1  C5  UNL     1      12.650  52.937  -2.849  1.00  0.00     0.038 C 
HETATM    2  N1  UNL     1      11.435  52.988  -3.304  1.00  0.00    -0.301 N 
ATOM      3  H1  UNL     1      10.772  53.751  -3.171  1.00  0.00     0.187 HD
HETATM    4  N2  UNL     1      11.210  51.830  -3.993  1.00  0.00    -0.283 N 
HETATM    5  C12 UNL     1      12.325  50.885  -3.909  1.00  0.00     0.147 C 
HETATM    6  C23 UNL     1      13.429  51.716  -3.252  1.00  0.00     0.091 C 
ENDROOT
BRANCH   5   7
HETATM    7  C13 UNL     1      12.015  49.648  -3.078  1.00  0.00    -0.032 A 
HETATM    8  C14 UNL     1      12.748  48.461  -3.206  1.00  0.00     0.010 A 
HETATM    9  C15 UNL     1      12.421  47.335  -2.447  1.00  0.00     0.013 A 
HETATM   10  C16 UNL     1      11.347  47.362  -1.546  1.00  0.00    -0.026 A 
HETATM   11  C17 UNL     1      11.006  46.238  -0.777  1.00  0.00     0.012 A 
HETATM   12  C21 UNL     1      10.591  48.549  -1.411  1.00  0.00    -0.025 A 
HETATM   13  C18 UNL     1       9.934  46.281   0.115  1.00  0.00     0.001 A 
HETATM   14  C19 UNL     1       9.188  47.449   0.247  1.00  0.00     0.001 A 
HETATM   15  C20 UNL     1       9.515  48.575  -0.510  1.00  0.00     0.012 A 
HETATM   16  C22 UNL     1      10.933  49.674  -2.180  1.00  0.00     0.021 A 
ENDBRANCH   5   7
BRANCH   4  17
HETATM   17  C6  UNL     1      10.074  51.681  -4.789  1.00  0.00     0.051 A 
HETATM   18  C7  UNL     1       9.764  52.624  -5.783  1.00  0.00     0.031 A 
HETATM   19  C8  UNL     1       8.631  52.501  -6.596  1.00  0.00     0.002 A 
HETATM   20  C9  UNL     1       7.772  51.422  -6.428  1.00  0.00     0.000 A 
HETATM   21  C10 UNL     1       8.048  50.473  -5.449  1.00  0.00     0.002 A 
HETATM   22  C11 UNL     1       9.185  50.604  -4.643  1.00  0.00     0.031 A 
ENDBRANCH   4  17
BRANCH   1  23
HETATM   23  C4  UNL     1      13.251  54.010  -2.023  1.00  0.00    -0.012 A 
HETATM   24  C3  UNL     1      12.460  54.913  -1.305  1.00  0.00     0.013 A 
HETATM   25  C2  UNL     1      13.061  55.913  -0.535  1.00  0.00     0.001 A 
HETATM   26  C1  UNL     1      14.450  56.015  -0.481  1.00  0.00     0.000 A 
HETATM   27  C25 UNL     1      15.244  55.117  -1.193  1.00  0.00     0.001 A 
HETATM   28  C24 UNL     1      14.647  54.116  -1.962  1.00  0.00     0.013 A 
ENDBRANCH   1  23
TORSDOF 3
ENDMDL
MODEL 7
REMARK minimizedAffinity -6.28556299
REMARK CNNscore 0.503422022
REMARK CNNaffinity 4.47316217
REMARK  3 active torsions:
REMARK  status: ('A' for Active; 'I' for Inactive)
REMARK    1  A    between atoms: C4_4  and  C5_5 
REMARK    2  A    between atoms: N2_8  and  C6_9 
REMARK    3  A    between atoms: C12_15  and  C13_16 
ROOT
HETATM    1  C5  UNL     1      13.783  56.971   3.022  1.00  0.00     0.038 C 
HETATM    2  N1  UNL     1      14.380  57.760   3.862  1.00  0.00    -0.301 N 
ATOM      3  H1  UNL     1      14.652  58.728   3.694  1.00  0.00     0.187 HD
HETATM    4  N2  UNL     1      14.576  57.053   5.015  1.00  0.00    -0.283 N 
HETATM    5  C12 UNL     1      14.171  55.650   4.906  1.00  0.00     0.147 C 
HETATM    6  C23 UNL     1      13.441  55.609   3.561  1.00  0.00     0.091 C 
ENDROOT
BRANCH   5   7
HETATM    7  C13 UNL     1      15.339  54.676   4.915  1.00  0.00    -0.032 A 
HETATM    8  C14 UNL     1      15.203  53.352   5.356  1.00  0.00     0.010 A 
HETATM    9  C15 UNL     1      16.302  52.490   5.376  1.00  0.00     0.013 A 
HETATM   10  C16 UNL     1      17.568  52.929   4.965  1.00  0.00    -0.026 A 
HETATM   11  C17 UNL     1      18.681  52.074   4.981  1.00  0.00     0.012 A 
HETATM   12  C21 UNL     1      17.725  54.263   4.525  1.00  0.00    -0.025 A 
HETATM   13  C18 UNL     1      19.935  52.527   4.569  1.00  0.00     0.001 A 
HETATM   14  C19 UNL     1      20.091  53.840   4.137  1.00  0.00     0.001 A 
HETATM   15  C20 UNL     1      18.994  54.703   4.115  1.00  0.00     0.012 A 
HETATM   16  C22 UNL     1      16.611  55.118   4.509  1.00  0.00     0.021 A 
ENDBRANCH   5   7
BRANCH   4  17
HETATM   17  C6  UNL     1      14.993  57.691   6.183  1.00  0.00     0.051 A 
HETATM   18  C7  UNL     1      16.360  57.880   6.451  1.00  0.00     0.031 A 
HETATM   19  C8  UNL     1      16.807  58.516   7.614  1.00  0.00     0.002 A 
HETATM   20  C9  UNL     1      15.890  58.978   8.549  1.00  0.00     0.000 A 
HETATM   21  C10 UNL     1      14.529  58.803   8.317  1.00  0.00     0.002 A 
HETATM   22  C11 UNL     1      14.091  58.167   7.149  1.00  0.00     0.031 A 
ENDBRANCH   4  17
BRANCH   1  23
HETATM   23  C4  UNL     1      13.425  57.377   1.643  1.00  0.00    -0.012 A 
HETATM   24  C3  UNL     1      13.308  56.440   0.611  1.00  0.00     0.013 A 
HETATM   25  C2  UNL     1      12.968  56.859  -0.679  1.00  0.00     0.001 A 
HETATM   26  C1  UNL     1      12.745  58.210  -0.941  1.00  0.00     0.000 A 
HETATM   27  C25 UNL     1      12.859  59.147   0.084  1.00  0.00     0.001 A 
HETATM   28  C24 UNL     1      13.197  58.732   1.374  1.00  0.00     0.013 A 
ENDBRANCH   1  23
TORSDOF 3
ENDMDL
MODEL 8
REMARK minimizedAffinity -7.25553322
REMARK CNNscore 0.499456614
REMARK CNNaffinity 4.93537188
REMARK  3 active torsions:
REMARK  status: ('A' for Active; 'I' for Inactive)
REMARK    1  A    between atoms: C4_4  and  C5_5 
REMARK    2  A    between atoms: N2_8  and  C6_9 
REMARK    3  A    between atoms: C12_15  and  C13_16 
ROOT
HETATM    1  C5  UNL     1       0.047  66.434  -0.337  1.00  0.00     0.038 C 
HETATM    2  N1  UNL     1       0.933  67.111   0.326  1.00  0.00    -0.301 N 
ATOM      3  H1  UNL     1       1.946  67.037   0.232  1.00  0.00     0.187 HD
HETATM    4  N2  UNL     1       0.258  67.943   1.173  1.00  0.00    -0.283 N 
HETATM    5  C12 UNL     1      -1.192  67.736   1.150  1.00  0.00     0.147 C 
HETATM    6  C23 UNL     1      -1.383  66.794  -0.042  1.00  0.00     0.091 C 
ENDROOT
BRANCH   5   7
HETATM    7  C13 UNL     1      -1.739  67.110   2.424  1.00  0.00    -0.032 A 
HETATM    8  C14 UNL     1      -0.967  66.260   3.229  1.00  0.00     0.010 A 
HETATM    9  C15 UNL     1      -1.507  65.682   4.379  1.00  0.00     0.013 A 
HETATM   10  C16 UNL     1      -2.836  65.930   4.753  1.00  0.00    -0.026 A 
HETATM   11  C17 UNL     1      -3.392  65.355   5.907  1.00  0.00     0.012 A 
HETATM   12  C21 UNL     1      -3.631  66.778   3.949  1.00  0.00    -0.025 A 
HETATM   13  C18 UNL     1      -4.716  65.611   6.265  1.00  0.00     0.001 A 
HETATM   14  C19 UNL     1      -5.501  66.445   5.473  1.00  0.00     0.001 A 
HETATM   15  C20 UNL     1      -4.962  67.025   4.323  1.00  0.00     0.012 A 
HETATM   16  C22 UNL     1      -3.073  67.354   2.795  1.00  0.00     0.021 A 
ENDBRANCH   5   7
BRANCH   4  17
HETATM   17  C6  UNL     1       0.924  68.958   1.861  1.00  0.00     0.051 A 
HETATM   18  C7  UNL     1       1.764  68.660   2.947  1.00  0.00     0.031 A 
HETATM   19  C8  UNL     1       2.444  69.657   3.655  1.00  0.00     0.002 A 
HETATM   20  C9  UNL     1       2.293  70.989   3.293  1.00  0.00     0.000 A 
HETATM   21  C10 UNL     1       1.465  71.320   2.226  1.00  0.00     0.002 A 
HETATM   22  C11 UNL     1       0.791  70.315   1.522  1.00  0.00     0.031 A 
ENDBRANCH   4  17
BRANCH   1  23
HETATM   23  C4  UNL     1       0.400  65.403  -1.341  1.00  0.00    -0.012 A 
HETATM   24  C3  UNL     1       1.602  65.456  -2.055  1.00  0.00     0.013 A 
HETATM   25  C2  UNL     1       1.903  64.467  -2.995  1.00  0.00     0.001 A 
HETATM   26  C1  UNL     1       1.008  63.423  -3.224  1.00  0.00     0.000 A 
HETATM   27  C25 UNL     1      -0.190  63.363  -2.515  1.00  0.00     0.001 A 
HETATM   28  C24 UNL     1      -0.493  64.350  -1.574  1.00  0.00     0.013 A 
ENDBRANCH   1  23
TORSDOF 3
ENDMDL
MODEL 9
REMARK minimizedAffinity -7.64826965
REMARK CNNscore 0.461093098
REMARK CNNaffinity 4.62013006
REMARK  3 active torsions:
REMARK  status: ('A' for Active; 'I' for Inactive)
REMARK    1  A    between atoms: C4_4  and  C5_5 
REMARK    2  A    between atoms: N2_8  and  C6_9 
REMARK    3  A    between atoms: C12_15  and  C13_16 
ROOT
HETATM    1  C5  UNL     1      13.541  58.745   5.635  1.00  0.00     0.038 C 
HETATM    2  N1  UNL     1      12.949  58.474   4.512  1.00  0.00    -0.301 N 
ATOM      3  H1  UNL     1      11.970  58.652   4.287  1.00  0.00     0.187 HD
HETATM    4  N2  UNL     1      13.879  57.906   3.688  1.00  0.00    -0.283 N 
HETATM    5  C12 UNL     1      15.170  57.687   4.344  1.00  0.00     0.147 C 
HETATM    6  C23 UNL     1      15.012  58.435   5.670  1.00  0.00     0.091 C 
ENDROOT
BRANCH   5   7
HETATM    7  C13 UNL     1      15.489  56.219   4.587  1.00  0.00    -0.032 A 
HETATM    8  C14 UNL     1      14.502  55.292   4.948  1.00  0.00     0.010 A 
HETATM    9  C15 UNL     1      14.833  53.956   5.189  1.00  0.00     0.013 A 
HETATM   10  C16 UNL     1      16.158  53.513   5.084  1.00  0.00    -0.026 A 
HETATM   11  C17 UNL     1      16.505  52.174   5.324  1.00  0.00     0.012 A 
HETATM   12  C21 UNL     1      17.167  54.436   4.728  1.00  0.00    -0.025 A 
HETATM   13  C18 UNL     1      17.829  51.748   5.215  1.00  0.00     0.001 A 
HETATM   14  C19 UNL     1      18.824  52.657   4.867  1.00  0.00     0.001 A 
HETATM   15  C20 UNL     1      18.496  53.992   4.625  1.00  0.00     0.012 A 
HETATM   16  C22 UNL     1      16.820  55.776   4.488  1.00  0.00     0.021 A 
ENDBRANCH   5   7
BRANCH   4  17
HETATM   17  C6  UNL     1      13.609  57.707   2.334  1.00  0.00     0.051 A 
HETATM   18  C7  UNL     1      13.696  56.425   1.765  1.00  0.00     0.031 A 
HETATM   19  C8  UNL     1      13.432  56.196   0.410  1.00  0.00     0.002 A 
HETATM   20  C9  UNL     1      13.076  57.254  -0.416  1.00  0.00     0.000 A 
HETATM   21  C10 UNL     1      12.985  58.537   0.115  1.00  0.00     0.002 A 
HETATM   22  C11 UNL     1      13.250  58.756   1.473  1.00  0.00     0.031 A 
ENDBRANCH   4  17
BRANCH   1  23
HETATM   23  C4  UNL     1      12.844  59.350   6.794  1.00  0.00    -0.012 A 
HETATM   24  C3  UNL     1      13.120  58.949   8.105  1.00  0.00     0.013 A 
HETATM   25  C2  UNL     1      12.442  59.541   9.175  1.00  0.00     0.001 A 
HETATM   26  C1  UNL     1      11.490  60.531   8.940  1.00  0.00     0.000 A 
HETATM   27  C25 UNL     1      11.212  60.935   7.636  1.00  0.00     0.001 A 
HETATM   28  C24 UNL     1      11.888  60.347   6.564  1.00  0.00     0.013 A 
ENDBRANCH   1  23
TORSDOF 3
ENDMDL
