MODEL 1
REMARK minimizedAffinity -7.45407677
REMARK  4 active torsions:
REMARK  status: ('A' for Active; 'I' for Inactive)
REMARK    1  A    between atoms: C2_2  and  C3_3 
REMARK       I    between atoms: C3_3  and  N1_5 
REMARK    2  A    between atoms: N1_5  and  C4_6 
REMARK    3  A    between atoms: C9_15  and  N4_16 
REMARK    4  A    between atoms: N4_16  and  C10_17 
ROOT
HETATM    1  C4  UNL     1      16.462  35.713  14.080  1.00  0.00     0.036 A 
HETATM    2  C5  UNL     1      17.382  36.745  14.216  1.00  0.00     0.032 A 
HETATM    3  C6  UNL     1      17.214  37.713  15.216  1.00  0.00     0.033 A 
HETATM    4  C7  UNL     1      16.147  37.682  16.103  1.00  0.00     0.047 A 
HETATM    5  N2  UNL     1      16.047  38.647  17.020  1.00  0.00    -0.352 N 
ATOM      6  H2  UNL     1      16.737  39.396  17.087  1.00  0.00     0.166 HD
HETATM    7  C8  UNL     1      14.999  38.582  17.846  1.00  0.00     0.182 A 
HETATM    8  N3  UNL     1      14.056  37.636  17.851  1.00  0.00    -0.338 N 
ATOM      9  H3  UNL     1      13.286  37.653  18.520  1.00  0.00     0.168 HD
HETATM   10  C9  UNL     1      14.171  36.660  16.934  1.00  0.00     0.119 A 
HETATM   11  C18 UNL     1      15.222  36.638  15.994  1.00  0.00     0.037 A 
HETATM   12  C19 UNL     1      15.385  35.664  14.971  1.00  0.00     0.047 A 
ENDROOT
BRANCH  10  13
HETATM   13  N4  UNL     1      13.227  35.595  16.928  1.00  0.00    -0.342 N 
HETATM   14  H8  UNL     1      13.671  34.782  16.513  1.00  0.00     0.167 HD
BRANCH  13  15
HETATM   15  C10 UNL     1      12.335  35.217  17.961  1.00  0.00     0.034 A 
HETATM   16  C11 UNL     1      12.724  34.211  18.858  1.00  0.00     0.032 A 
HETATM   17  C12 UNL     1      11.872  33.737  19.864  1.00  0.00     0.033 A 
HETATM   18  C13 UNL     1      10.589  34.287  19.935  1.00  0.00     0.043 A 
HETATM   19  N5  UNL     1       9.554  34.017  20.806  1.00  0.00    -0.364 N 
HETATM   20  C16 UNL     1      10.141  35.263  19.044  1.00  0.00     0.011 A 
HETATM   21  C14 UNL     1       8.462  34.783  20.495  1.00  0.00     0.108 A 
HETATM   22  H11 UNL     1       9.601  33.347  21.561  1.00  0.00     0.165 HD
HETATM   23  C15 UNL     1       8.804  35.554  19.413  1.00  0.00     0.038 A 
HETATM   24 BR1  UNL     1       7.695  36.799  18.552  1.00  0.00    -0.049 Br
HETATM   25  C17 UNL     1      11.025  35.716  18.040  1.00  0.00     0.044 A 
ENDBRANCH  13  15
ENDBRANCH  10  13
BRANCH   1  26
HETATM   26  N1  UNL     1      16.535  34.709  13.091  1.00  0.00    -0.324 N 
HETATM   27  C3  UNL     1      17.436  33.664  13.031  1.00  0.00     0.244 C 
HETATM   28  O1  UNL     1      18.323  33.403  13.832  1.00  0.00    -0.268 OA
HETATM   29  H4  UNL     1      15.853  34.773  12.349  1.00  0.00     0.169 HD
BRANCH  27  30
HETATM   30  C2  UNL     1      17.218  32.814  11.823  1.00  0.00     0.064 C 
HETATM   31  C1  UNL     1      17.878  31.658  11.674  1.00  0.00     0.017 C 
ENDBRANCH  27  30
ENDBRANCH   1  26
TORSDOF 4
ENDMDL
MODEL 2
REMARK minimizedAffinity -7.41474962
REMARK  4 active torsions:
REMARK  status: ('A' for Active; 'I' for Inactive)
REMARK    1  A    between atoms: C2_2  and  C3_3 
REMARK       I    between atoms: C3_3  and  N1_5 
REMARK    2  A    between atoms: N1_5  and  C4_6 
REMARK    3  A    between atoms: C9_15  and  N4_16 
REMARK    4  A    between atoms: N4_16  and  C10_17 
ROOT
HETATM    1  C4  UNL     1      15.511  35.910  15.724  1.00  0.00     0.036 A 
HETATM    2  C5  UNL     1      16.568  36.656  16.232  1.00  0.00     0.032 A 
HETATM    3  C6  UNL     1      16.558  37.075  17.568  1.00  0.00     0.033 A 
HETATM    4  C7  UNL     1      15.516  36.766  18.432  1.00  0.00     0.047 A 
HETATM    5  N2  UNL     1      15.571  37.213  19.689  1.00  0.00    -0.352 N 
ATOM      6  H2  UNL     1      16.358  37.767  20.027  1.00  0.00     0.166 HD
HETATM    7  C8  UNL     1      14.542  36.898  20.482  1.00  0.00     0.182 A 
HETATM    8  N3  UNL     1      13.478  36.167  20.140  1.00  0.00    -0.338 N 
ATOM      9  H3  UNL     1      12.732  35.966  20.807  1.00  0.00     0.168 HD
HETATM   10  C9  UNL     1      13.436  35.708  18.878  1.00  0.00     0.119 A 
HETATM   11  C18 UNL     1      14.454  35.997  17.944  1.00  0.00     0.037 A 
HETATM   12  C19 UNL     1      14.458  35.583  16.584  1.00  0.00     0.047 A 
ENDROOT
BRANCH  10  13
HETATM   13  N4  UNL     1      12.355  34.876  18.474  1.00  0.00    -0.342 N 
HETATM   14  H8  UNL     1      12.599  33.915  18.689  1.00  0.00     0.167 HD
BRANCH  13  15
HETATM   15  C10 UNL     1      10.969  35.104  18.652  1.00  0.00     0.034 A 
HETATM   16  C11 UNL     1      10.256  35.771  17.645  1.00  0.00     0.032 A 
HETATM   17  C12 UNL     1       8.898  36.091  17.778  1.00  0.00     0.033 A 
HETATM   18  C13 UNL     1       8.268  35.744  18.975  1.00  0.00     0.043 A 
HETATM   19  N5  UNL     1       6.962  35.932  19.378  1.00  0.00    -0.364 N 
HETATM   20  C16 UNL     1       8.941  35.113  20.022  1.00  0.00     0.011 A 
HETATM   21  C14 UNL     1       6.784  35.448  20.647  1.00  0.00     0.108 A 
HETATM   22  H11 UNL     1       6.246  36.368  18.814  1.00  0.00     0.165 HD
HETATM   23  C15 UNL     1       7.990  34.942  21.059  1.00  0.00     0.038 A 
HETATM   24 BR1  UNL     1       8.341  34.147  22.723  1.00  0.00    -0.049 Br
HETATM   25  C17 UNL     1      10.309  34.807  19.856  1.00  0.00     0.044 A 
ENDBRANCH  13  15
ENDBRANCH  10  13
BRANCH   1  26
HETATM   26  N1  UNL     1      15.423  35.463  14.388  1.00  0.00    -0.324 N 
HETATM   27  C3  UNL     1      16.417  34.853  13.647  1.00  0.00     0.244 C 
HETATM   28  O1  UNL     1      17.548  34.570  14.015  1.00  0.00    -0.268 OA
HETATM   29  H4  UNL     1      14.534  35.614  13.932  1.00  0.00     0.169 HD
BRANCH  27  30
HETATM   30  C2  UNL     1      15.959  34.542  12.260  1.00  0.00     0.064 C 
HETATM   31  C1  UNL     1      14.722  34.079  12.038  1.00  0.00     0.017 C 
ENDBRANCH  27  30
ENDBRANCH   1  26
TORSDOF 4
ENDMDL
MODEL 3
REMARK minimizedAffinity -7.39207602
REMARK  4 active torsions:
REMARK  status: ('A' for Active; 'I' for Inactive)
REMARK    1  A    between atoms: C2_2  and  C3_3 
REMARK       I    between atoms: C3_3  and  N1_5 
REMARK    2  A    between atoms: N1_5  and  C4_6 
REMARK    3  A    between atoms: C9_15  and  N4_16 
REMARK    4  A    between atoms: N4_16  and  C10_17 
ROOT
HETATM    1  C4  UNL     1      12.609  35.111  17.421  1.00  0.00     0.036 A 
HETATM    2  C5  UNL     1      13.071  34.016  18.140  1.00  0.00     0.032 A 
HETATM    3  C6  UNL     1      14.447  33.779  18.259  1.00  0.00     0.033 A 
HETATM    4  C7  UNL     1      15.394  34.614  17.681  1.00  0.00     0.047 A 
HETATM    5  N2  UNL     1      16.686  34.315  17.826  1.00  0.00    -0.352 N 
ATOM      6  H2  UNL     1      16.991  33.496  18.353  1.00  0.00     0.166 HD
HETATM    7  C8  UNL     1      17.561  35.141  17.245  1.00  0.00     0.182 A 
HETATM    8  N3  UNL     1      17.264  36.243  16.551  1.00  0.00    -0.338 N 
ATOM      9  H3  UNL     1      17.992  36.827  16.139  1.00  0.00     0.168 HD
HETATM   10  C9  UNL     1      15.961  36.546  16.421  1.00  0.00     0.119 A 
HETATM   11  C18 UNL     1      14.947  35.733  16.970  1.00  0.00     0.037 A 
HETATM   12  C19 UNL     1      13.551  35.966  16.839  1.00  0.00     0.047 A 
ENDROOT
BRANCH  10  13
HETATM   13  N4  UNL     1      15.587  37.738  15.740  1.00  0.00    -0.342 N 
HETATM   14  H8  UNL     1      14.644  37.617  15.385  1.00  0.00     0.167 HD
BRANCH  13  15
HETATM   15  C10 UNL     1      15.812  39.077  16.144  1.00  0.00     0.034 A 
HETATM   16  C11 UNL     1      15.344  39.495  17.398  1.00  0.00     0.032 A 
HETATM   17  C12 UNL     1      15.470  40.819  17.839  1.00  0.00     0.033 A 
HETATM   18  C13 UNL     1      16.063  41.735  16.967  1.00  0.00     0.043 A 
HETATM   19  N5  UNL     1      16.313  43.082  17.130  1.00  0.00    -0.364 N 
HETATM   20  C16 UNL     1      16.511  41.378  15.695  1.00  0.00     0.011 A 
HETATM   21  C14 UNL     1      16.898  43.594  16.003  1.00  0.00     0.108 A 
HETATM   22  H11 UNL     1      16.090  43.609  17.963  1.00  0.00     0.165 HD
HETATM   23  C15 UNL     1      17.027  42.562  15.109  1.00  0.00     0.038 A 
HETATM   24 BR1  UNL     1      17.766  42.680  13.388  1.00  0.00    -0.049 Br
HETATM   25  C17 UNL     1      16.367  40.036  15.281  1.00  0.00     0.044 A 
ENDBRANCH  13  15
ENDBRANCH  10  13
BRANCH   1  26
HETATM   26  N1  UNL     1      11.245  35.418  17.229  1.00  0.00    -0.324 N 
HETATM   27  C3  UNL     1      10.341  35.831  18.188  1.00  0.00     0.244 C 
HETATM   28  O1  UNL     1      10.559  36.027  19.375  1.00  0.00    -0.268 OA
HETATM   29  H4  UNL     1      10.901  35.316  16.284  1.00  0.00     0.169 HD
BRANCH  27  30
HETATM   30  C2  UNL     1       8.980  36.039  17.611  1.00  0.00     0.064 C 
HETATM   31  C1  UNL     1       8.064  36.763  18.269  1.00  0.00     0.017 C 
ENDBRANCH  27  30
ENDBRANCH   1  26
TORSDOF 4
ENDMDL
MODEL 4
REMARK minimizedAffinity -7.06327629
REMARK  4 active torsions:
REMARK  status: ('A' for Active; 'I' for Inactive)
REMARK    1  A    between atoms: C2_2  and  C3_3 
REMARK       I    between atoms: C3_3  and  N1_5 
REMARK    2  A    between atoms: N1_5  and  C4_6 
REMARK    3  A    between atoms: C9_15  and  N4_16 
REMARK    4  A    between atoms: N4_16  and  C10_17 
ROOT
HETATM    1  C4  UNL     1      13.828  56.609   2.758  1.00  0.00     0.036 A 
HETATM    2  C5  UNL     1      13.500  56.406   1.423  1.00  0.00     0.032 A 
HETATM    3  C6  UNL     1      13.080  57.481   0.629  1.00  0.00     0.033 A 
HETATM    4  C7  UNL     1      12.981  58.773   1.126  1.00  0.00     0.047 A 
HETATM    5  N2  UNL     1      12.560  59.744   0.311  1.00  0.00    -0.352 N 
ATOM      6  H2  UNL     1      12.318  59.558  -0.663  1.00  0.00     0.166 HD
HETATM    7  C8  UNL     1      12.471  60.970   0.835  1.00  0.00     0.182 A 
HETATM    8  N3  UNL     1      12.780  61.316   2.087  1.00  0.00    -0.338 N 
ATOM      9  H3  UNL     1      12.689  62.279   2.413  1.00  0.00     0.168 HD
HETATM   10  C9  UNL     1      13.217  60.337   2.898  1.00  0.00     0.119 A 
HETATM   11  C18 UNL     1      13.327  59.000   2.462  1.00  0.00     0.037 A 
HETATM   12  C19 UNL     1      13.740  57.907   3.272  1.00  0.00     0.047 A 
ENDROOT
BRANCH  10  13
HETATM   13  N4  UNL     1      13.614  60.658   4.226  1.00  0.00    -0.342 N 
HETATM   14  H8  UNL     1      14.301  61.404   4.179  1.00  0.00     0.167 HD
BRANCH  13  15
HETATM   15  C10 UNL     1      12.793  60.792   5.372  1.00  0.00     0.034 A 
HETATM   16  C11 UNL     1      11.856  61.835   5.416  1.00  0.00     0.032 A 
HETATM   17  C12 UNL     1      11.055  62.073   6.540  1.00  0.00     0.033 A 
HETATM   18  C13 UNL     1      11.237  61.242   7.649  1.00  0.00     0.043 A 
HETATM   19  N5  UNL     1      10.601  61.243   8.873  1.00  0.00    -0.364 N 
HETATM   20  C16 UNL     1      12.180  60.214   7.669  1.00  0.00     0.011 A 
HETATM   21  C14 UNL     1      11.113  60.256   9.673  1.00  0.00     0.108 A 
HETATM   22  H11 UNL     1       9.866  61.885   9.136  1.00  0.00     0.165 HD
HETATM   23  C15 UNL     1      12.086  59.614   8.950  1.00  0.00     0.038 A 
HETATM   24 BR1  UNL     1      13.129  58.172   9.544  1.00  0.00    -0.049 Br
HETATM   25  C17 UNL     1      12.973  60.004   6.520  1.00  0.00     0.044 A 
ENDBRANCH  13  15
ENDBRANCH  10  13
BRANCH   1  26
HETATM   26  N1  UNL     1      14.238  55.586   3.640  1.00  0.00    -0.324 N 
HETATM   27  C3  UNL     1      15.534  55.257   3.988  1.00  0.00     0.244 C 
HETATM   28  O1  UNL     1      16.563  55.803   3.615  1.00  0.00    -0.268 OA
HETATM   29  H4  UNL     1      13.496  55.037   4.051  1.00  0.00     0.169 HD
BRANCH  27  30
HETATM   30  C2  UNL     1      15.576  54.101   4.932  1.00  0.00     0.064 C 
HETATM   31  C1  UNL     1      14.445  53.604   5.452  1.00  0.00     0.017 C 
ENDBRANCH  27  30
ENDBRANCH   1  26
TORSDOF 4
ENDMDL
MODEL 5
REMARK minimizedAffinity -7.0512104
REMARK  4 active torsions:
REMARK  status: ('A' for Active; 'I' for Inactive)
REMARK    1  A    between atoms: C2_2  and  C3_3 
REMARK       I    between atoms: C3_3  and  N1_5 
REMARK    2  A    between atoms: N1_5  and  C4_6 
REMARK    3  A    between atoms: C9_15  and  N4_16 
REMARK    4  A    between atoms: N4_16  and  C10_17 
ROOT
HETATM    1  C4  UNL     1       8.800  34.928  21.179  1.00  0.00     0.036 A 
HETATM    2  C5  UNL     1       8.694  35.586  22.398  1.00  0.00     0.032 A 
HETATM    3  C6  UNL     1       9.846  36.010  23.073  1.00  0.00     0.033 A 
HETATM    4  C7  UNL     1      11.120  35.804  22.563  1.00  0.00     0.047 A 
HETATM    5  N2  UNL     1      12.170  36.225  23.272  1.00  0.00    -0.352 N 
ATOM      6  H2  UNL     1      12.057  36.697  24.169  1.00  0.00     0.166 HD
HETATM    7  C8  UNL     1      13.378  35.997  22.746  1.00  0.00     0.182 A 
HETATM    8  N3  UNL     1      13.629  35.406  21.575  1.00  0.00    -0.338 N 
ATOM      9  H3  UNL     1      14.583  35.271  21.239  1.00  0.00     0.168 HD
HETATM   10  C9  UNL     1      12.566  34.997  20.861  1.00  0.00     0.119 A 
HETATM   11  C18 UNL     1      11.245  35.162  21.326  1.00  0.00     0.037 A 
HETATM   12  C19 UNL     1      10.077  34.720  20.648  1.00  0.00     0.047 A 
ENDROOT
BRANCH  10  13
HETATM   13  N4  UNL     1      12.771  34.412  19.580  1.00  0.00    -0.342 N 
HETATM   14  H8  UNL     1      11.950  33.863  19.349  1.00  0.00     0.167 HD
BRANCH  13  15
HETATM   15  C10 UNL     1      13.321  35.019  18.424  1.00  0.00     0.034 A 
HETATM   16  C11 UNL     1      12.481  35.763  17.584  1.00  0.00     0.032 A 
HETATM   17  C12 UNL     1      12.936  36.336  16.389  1.00  0.00     0.033 A 
HETATM   18  C13 UNL     1      14.271  36.120  16.038  1.00  0.00     0.043 A 
HETATM   19  N5  UNL     1      14.981  36.555  14.939  1.00  0.00    -0.364 N 
HETATM   20  C16 UNL     1      15.138  35.357  16.821  1.00  0.00     0.011 A 
HETATM   21  C14 UNL     1      16.268  36.088  14.992  1.00  0.00     0.108 A 
HETATM   22  H11 UNL     1      14.599  37.131  14.201  1.00  0.00     0.165 HD
HETATM   23  C15 UNL     1      16.382  35.349  16.142  1.00  0.00     0.038 A 
HETATM   24 BR1  UNL     1      17.928  34.466  16.734  1.00  0.00    -0.049 Br
HETATM   25  C17 UNL     1      14.646  34.791  18.017  1.00  0.00     0.044 A 
ENDBRANCH  13  15
ENDBRANCH  10  13
BRANCH   1  26
HETATM   26  N1  UNL     1       7.700  34.446  20.437  1.00  0.00    -0.324 N 
HETATM   27  C3  UNL     1       6.873  35.173  19.604  1.00  0.00     0.244 C 
HETATM   28  O1  UNL     1       6.952  36.365  19.338  1.00  0.00    -0.268 OA
HETATM   29  H4  UNL     1       7.502  33.460  20.539  1.00  0.00     0.169 HD
BRANCH  27  30
HETATM   30  C2  UNL     1       5.801  34.322  19.008  1.00  0.00     0.064 C 
HETATM   31  C1  UNL     1       5.402  33.200  19.622  1.00  0.00     0.017 C 
ENDBRANCH  27  30
ENDBRANCH   1  26
TORSDOF 4
ENDMDL
MODEL 6
REMARK minimizedAffinity -7.03151703
REMARK  4 active torsions:
REMARK  status: ('A' for Active; 'I' for Inactive)
REMARK    1  A    between atoms: C2_2  and  C3_3 
REMARK       I    between atoms: C3_3  and  N1_5 
REMARK    2  A    between atoms: N1_5  and  C4_6 
REMARK    3  A    between atoms: C9_15  and  N4_16 
REMARK    4  A    between atoms: N4_16  and  C10_17 
ROOT
HETATM    1  C4  UNL     1      16.661  53.612   5.188  1.00  0.00     0.036 A 
HETATM    2  C5  UNL     1      17.762  54.363   5.580  1.00  0.00     0.032 A 
HETATM    3  C6  UNL     1      18.830  53.754   6.251  1.00  0.00     0.033 A 
HETATM    4  C7  UNL     1      18.842  52.397   6.543  1.00  0.00     0.047 A 
HETATM    5  N2  UNL     1      19.890  51.890   7.197  1.00  0.00    -0.352 N 
ATOM      6  H2  UNL     1      20.678  52.473   7.479  1.00  0.00     0.166 HD
HETATM    7  C8  UNL     1      19.854  50.582   7.465  1.00  0.00     0.182 A 
HETATM    8  N3  UNL     1      18.879  49.734   7.124  1.00  0.00    -0.338 N 
ATOM      9  H3  UNL     1      18.927  48.743   7.361  1.00  0.00     0.168 HD
HETATM   10  C9  UNL     1      17.834  50.248   6.453  1.00  0.00     0.119 A 
HETATM   11  C18 UNL     1      17.751  51.620   6.137  1.00  0.00     0.037 A 
HETATM   12  C19 UNL     1      16.661  52.241   5.468  1.00  0.00     0.047 A 
ENDROOT
BRANCH  10  13
HETATM   13  N4  UNL     1      16.794  49.382   6.014  1.00  0.00    -0.342 N 
HETATM   14  H8  UNL     1      16.177  49.912   5.407  1.00  0.00     0.167 HD
BRANCH  13  15
HETATM   15  C10 UNL     1      16.904  48.038   5.582  1.00  0.00     0.034 A 
HETATM   16  C11 UNL     1      16.313  47.666   4.366  1.00  0.00     0.032 A 
HETATM   17  C12 UNL     1      16.322  46.343   3.905  1.00  0.00     0.033 A 
HETATM   18  C13 UNL     1      16.927  45.380   4.718  1.00  0.00     0.043 A 
HETATM   19  N5  UNL     1      17.081  44.024   4.523  1.00  0.00    -0.364 N 
HETATM   20  C16 UNL     1      17.497  45.693   5.953  1.00  0.00     0.011 A 
HETATM   21  C14 UNL     1      17.723  43.462   5.595  1.00  0.00     0.108 A 
HETATM   22  H11 UNL     1      16.761  43.522   3.706  1.00  0.00     0.165 HD
HETATM   23  C15 UNL     1      17.985  44.473   6.484  1.00  0.00     0.038 A 
HETATM   24 BR1  UNL     1      18.851  44.288   8.139  1.00  0.00    -0.049 Br
HETATM   25  C17 UNL     1      17.467  47.035   6.389  1.00  0.00     0.044 A 
ENDBRANCH  13  15
ENDBRANCH  10  13
BRANCH   1  26
HETATM   26  N1  UNL     1      15.531  54.141   4.529  1.00  0.00    -0.324 N 
HETATM   27  C3  UNL     1      14.692  55.139   4.985  1.00  0.00     0.244 C 
HETATM   28  O1  UNL     1      14.784  55.762   6.034  1.00  0.00    -0.268 OA
HETATM   29  H4  UNL     1      15.318  53.735   3.628  1.00  0.00     0.169 HD
BRANCH  27  30
HETATM   30  C2  UNL     1      13.588  55.417   4.020  1.00  0.00     0.064 C 
HETATM   31  C1  UNL     1      13.816  56.134   2.911  1.00  0.00     0.017 C 
ENDBRANCH  27  30
ENDBRANCH   1  26
TORSDOF 4
ENDMDL
MODEL 7
REMARK minimizedAffinity -7.00177002
REMARK  4 active torsions:
REMARK  status: ('A' for Active; 'I' for Inactive)
REMARK    1  A    between atoms: C2_2  and  C3_3 
REMARK       I    between atoms: C3_3  and  N1_5 
REMARK    2  A    between atoms: N1_5  and  C4_6 
REMARK    3  A    between atoms: C9_15  and  N4_16 
REMARK    4  A    between atoms: N4_16  and  C10_17 
ROOT
HETATM    1  C4  UNL     1      12.656  35.971  16.819  1.00  0.00     0.036 A 
HETATM    2  C5  UNL     1      13.428  36.296  15.710  1.00  0.00     0.032 A 
HETATM    3  C6  UNL     1      14.805  36.040  15.709  1.00  0.00     0.033 A 
HETATM    4  C7  UNL     1      15.449  35.454  16.790  1.00  0.00     0.047 A 
HETATM    5  N2  UNL     1      16.767  35.253  16.720  1.00  0.00    -0.352 N 
ATOM      6  H2  UNL     1      17.305  35.513  15.894  1.00  0.00     0.166 HD
HETATM    7  C8  UNL     1      17.345  34.695  17.788  1.00  0.00     0.182 A 
HETATM    8  N3  UNL     1      16.727  34.306  18.906  1.00  0.00    -0.338 N 
ATOM      9  H3  UNL     1      17.240  33.882  19.680  1.00  0.00     0.168 HD
HETATM   10  C9  UNL     1      15.398  34.498  18.964  1.00  0.00     0.119 A 
HETATM   11  C18 UNL     1      14.684  35.100  17.907  1.00  0.00     0.037 A 
HETATM   12  C19 UNL     1      13.289  35.373  17.913  1.00  0.00     0.047 A 
ENDROOT
BRANCH  10  13
HETATM   13  N4  UNL     1      14.678  34.050  20.107  1.00  0.00    -0.342 N 
HETATM   14  H8  UNL     1      15.217  33.313  20.551  1.00  0.00     0.167 HD
BRANCH  13  15
HETATM   15  C10 UNL     1      13.998  34.836  21.069  1.00  0.00     0.034 A 
HETATM   16  C11 UNL     1      14.747  35.652  21.929  1.00  0.00     0.032 A 
HETATM   17  C12 UNL     1      14.153  36.406  22.950  1.00  0.00     0.033 A 
HETATM   18  C13 UNL     1      12.769  36.300  23.107  1.00  0.00     0.043 A 
HETATM   19  N5  UNL     1      11.928  36.915  24.011  1.00  0.00    -0.364 N 
HETATM   20  C16 UNL     1      11.983  35.474  22.301  1.00  0.00     0.011 A 
HETATM   21  C14 UNL     1      10.637  36.502  23.813  1.00  0.00     0.108 A 
HETATM   22  H11 UNL     1      12.229  37.571  24.718  1.00  0.00     0.165 HD
HETATM   23  C15 UNL     1      10.652  35.616  22.767  1.00  0.00     0.038 A 
HETATM   24 BR1  UNL     1       9.161  34.727  22.054  1.00  0.00    -0.049 Br
HETATM   25  C17 UNL     1      12.615  34.726  21.285  1.00  0.00     0.044 A 
ENDBRANCH  13  15
ENDBRANCH  10  13
BRANCH   1  26
HETATM   26  N1  UNL     1      11.269  36.211  16.920  1.00  0.00    -0.324 N 
HETATM   27  C3  UNL     1      10.357  35.515  17.688  1.00  0.00     0.244 C 
HETATM   28  O1  UNL     1      10.584  34.575  18.438  1.00  0.00    -0.268 OA
HETATM   29  H4  UNL     1      10.914  36.975  16.361  1.00  0.00     0.169 HD
BRANCH  27  30
HETATM   30  C2  UNL     1       8.972  36.046  17.520  1.00  0.00     0.064 C 
HETATM   31  C1  UNL     1       8.261  36.446  18.583  1.00  0.00     0.017 C 
ENDBRANCH  27  30
ENDBRANCH   1  26
TORSDOF 4
ENDMDL
MODEL 8
REMARK minimizedAffinity -6.92841625
REMARK  4 active torsions:
REMARK  status: ('A' for Active; 'I' for Inactive)
REMARK    1  A    between atoms: C2_2  and  C3_3 
REMARK       I    between atoms: C3_3  and  N1_5 
REMARK    2  A    between atoms: N1_5  and  C4_6 
REMARK    3  A    between atoms: C9_15  and  N4_16 
REMARK    4  A    between atoms: N4_16  and  C10_17 
ROOT
HETATM    1  C4  UNL     1      15.475  38.104  16.882  1.00  0.00     0.036 A 
HETATM    2  C5  UNL     1      16.604  37.300  16.965  1.00  0.00     0.032 A 
HETATM    3  C6  UNL     1      16.488  35.957  17.350  1.00  0.00     0.033 A 
HETATM    4  C7  UNL     1      15.263  35.378  17.653  1.00  0.00     0.047 A 
HETATM    5  N2  UNL     1      15.234  34.097  18.026  1.00  0.00    -0.352 N 
ATOM      6  H2  UNL     1      16.085  33.537  18.086  1.00  0.00     0.166 HD
HETATM    7  C8  UNL     1      14.035  33.585  18.317  1.00  0.00     0.182 A 
HETATM    8  N3  UNL     1      12.866  34.228  18.253  1.00  0.00    -0.338 N 
ATOM      9  H3  UNL     1      11.988  33.765  18.488  1.00  0.00     0.168 HD
HETATM   10  C9  UNL     1      12.901  35.515  17.863  1.00  0.00     0.119 A 
HETATM   11  C18 UNL     1      14.113  36.168  17.554  1.00  0.00     0.037 A 
HETATM   12  C19 UNL     1      14.232  37.534  17.177  1.00  0.00     0.047 A 
ENDROOT
BRANCH  10  13
HETATM   13  N4  UNL     1      11.682  36.234  17.722  1.00  0.00    -0.342 N 
HETATM   14  H8  UNL     1      11.486  36.331  16.731  1.00  0.00     0.167 HD
BRANCH  13  15
HETATM   15  C10 UNL     1      10.487  36.074  18.466  1.00  0.00     0.034 A 
HETATM   16  C11 UNL     1       9.256  36.174  17.800  1.00  0.00     0.032 A 
HETATM   17  C12 UNL     1       8.032  36.095  18.477  1.00  0.00     0.033 A 
HETATM   18  C13 UNL     1       8.072  35.936  19.865  1.00  0.00     0.043 A 
HETATM   19  N5  UNL     1       7.042  35.831  20.776  1.00  0.00    -0.364 N 
HETATM   20  C16 UNL     1       9.270  35.868  20.578  1.00  0.00     0.011 A 
HETATM   21  C14 UNL     1       7.544  35.705  22.045  1.00  0.00     0.108 A 
HETATM   22  H11 UNL     1       6.061  35.848  20.536  1.00  0.00     0.165 HD
HETATM   23  C15 UNL     1       8.912  35.728  21.942  1.00  0.00     0.038 A 
HETATM   24 BR1  UNL     1      10.125  35.593  23.367  1.00  0.00    -0.049 Br
HETATM   25  C17 UNL     1      10.485  35.955  19.865  1.00  0.00     0.044 A 
ENDBRANCH  13  15
ENDBRANCH  10  13
BRANCH   1  26
HETATM   26  N1  UNL     1      15.496  39.469  16.526  1.00  0.00    -0.324 N 
HETATM   27  C3  UNL     1      15.443  40.554  17.379  1.00  0.00     0.244 C 
HETATM   28  O1  UNL     1      15.389  40.533  18.601  1.00  0.00    -0.268 OA
HETATM   29  H4  UNL     1      15.550  39.664  15.535  1.00  0.00     0.169 HD
BRANCH  27  30
HETATM   30  C2  UNL     1      15.465  41.847  16.632  1.00  0.00     0.064 C 
HETATM   31  C1  UNL     1      16.533  42.653  16.696  1.00  0.00     0.017 C 
ENDBRANCH  27  30
ENDBRANCH   1  26
TORSDOF 4
ENDMDL
MODEL 9
REMARK minimizedAffinity -6.91975737
REMARK  4 active torsions:
REMARK  status: ('A' for Active; 'I' for Inactive)
REMARK    1  A    between atoms: C2_2  and  C3_3 
REMARK       I    between atoms: C3_3  and  N1_5 
REMARK    2  A    between atoms: N1_5  and  C4_6 
REMARK    3  A    between atoms: C9_15  and  N4_16 
REMARK    4  A    between atoms: N4_16  and  C10_17 
ROOT
HETATM    1  C4  UNL     1      11.882  35.803  21.147  1.00  0.00     0.036 A 
HETATM    2  C5  UNL     1      10.631  35.838  21.750  1.00  0.00     0.032 A 
HETATM    3  C6  UNL     1       9.470  35.884  20.966  1.00  0.00     0.033 A 
HETATM    4  C7  UNL     1       9.515  35.890  19.579  1.00  0.00     0.047 A 
HETATM    5  N2  UNL     1       8.367  35.949  18.900  1.00  0.00    -0.352 N 
ATOM      6  H2  UNL     1       7.465  35.983  19.375  1.00  0.00     0.166 HD
HETATM    7  C8  UNL     1       8.459  35.961  17.567  1.00  0.00     0.182 A 
HETATM    8  N3  UNL     1       9.587  35.903  16.854  1.00  0.00    -0.338 N 
ATOM      9  H3  UNL     1       9.575  35.913  15.834  1.00  0.00     0.168 HD
HETATM   10  C9  UNL     1      10.739  35.829  17.544  1.00  0.00     0.119 A 
HETATM   11  C18 UNL     1      10.766  35.834  18.954  1.00  0.00     0.037 A 
HETATM   12  C19 UNL     1      11.943  35.801  19.750  1.00  0.00     0.047 A 
ENDROOT
BRANCH  10  13
HETATM   13  N4  UNL     1      11.968  35.707  16.837  1.00  0.00    -0.342 N 
HETATM   14  H8  UNL     1      12.039  36.487  16.191  1.00  0.00     0.167 HD
BRANCH  13  15
HETATM   15  C10 UNL     1      13.238  35.355  17.355  1.00  0.00     0.034 A 
HETATM   16  C11 UNL     1      13.456  34.035  17.776  1.00  0.00     0.032 A 
HETATM   17  C12 UNL     1      14.662  33.626  18.360  1.00  0.00     0.033 A 
HETATM   18  C13 UNL     1      15.653  34.596  18.539  1.00  0.00     0.043 A 
HETATM   19  N5  UNL     1      16.917  34.484  19.079  1.00  0.00    -0.364 N 
HETATM   20  C16 UNL     1      15.472  35.930  18.172  1.00  0.00     0.011 A 
HETATM   21  C14 UNL     1      17.543  35.703  19.073  1.00  0.00     0.108 A 
HETATM   22  H11 UNL     1      17.316  33.625  19.429  1.00  0.00     0.165 HD
HETATM   23  C15 UNL     1      16.669  36.604  18.520  1.00  0.00     0.038 A 
HETATM   24 BR1  UNL     1      16.992  38.433  18.259  1.00  0.00    -0.049 Br
HETATM   25  C17 UNL     1      14.243  36.308  17.588  1.00  0.00     0.044 A 
ENDBRANCH  13  15
ENDBRANCH  10  13
BRANCH   1  26
HETATM   26  N1  UNL     1      13.104  35.778  21.853  1.00  0.00    -0.324 N 
HETATM   27  C3  UNL     1      14.161  36.657  21.720  1.00  0.00     0.244 C 
HETATM   28  O1  UNL     1      14.226  37.631  20.982  1.00  0.00    -0.268 OA
HETATM   29  H4  UNL     1      13.209  35.028  22.522  1.00  0.00     0.169 HD
BRANCH  27  30
HETATM   30  C2  UNL     1      15.296  36.297  22.620  1.00  0.00     0.064 C 
HETATM   31  C1  UNL     1      16.540  36.710  22.346  1.00  0.00     0.017 C 
ENDBRANCH  27  30
ENDBRANCH   1  26
TORSDOF 4
ENDMDL
