MODEL 1
REMARK minimizedAffinity -7.09736633
REMARK CNNscore 0.444353223
REMARK CNNaffinity 6.05103445
REMARK  10 active torsions:
REMARK  status: ('A' for Active; 'I' for Inactive)
REMARK    1  A    between atoms: C1_2  and  C2_3 
REMARK       I    between atoms: C1_2  and  N1_5 
REMARK    2  A    between atoms: C2_3  and  O2_4 
REMARK    3  A    between atoms: C6_9  and  C7_10 
REMARK    4  A    between atoms: C7_10  and  O3_11 
REMARK    5  A    between atoms: O3_11  and  C8_12 
REMARK    6  A    between atoms: C14_22  and  N4_23 
REMARK    7  A    between atoms: N4_23  and  C15_24 
REMARK    8  A    between atoms: C18_27  and  O4_28 
REMARK    9  A    between atoms: O4_28  and  C19_29 
REMARK   10  A    between atoms: C19_29  and  C20_30 
ROOT
HETATM    1  C8  UNL     1      11.439  56.528  -2.048  1.00  0.00     0.085 A 
HETATM    2  C9  UNL     1      10.453  56.261  -3.001  1.00  0.00     0.038 A 
HETATM    3  C10 UNL     1      10.020  57.277  -3.837  1.00  0.00     0.005 A 
HETATM    4  C11 UNL     1      10.566  58.553  -3.702  1.00  0.00     0.030 A 
HETATM    5  C12 UNL     1      11.518  58.853  -2.735  1.00  0.00     0.049 A 
HETATM    6  N2  UNL     1      11.957  60.111  -2.688  1.00  0.00    -0.351 N 
ATOM      7  H2  UNL     1      11.624  60.819  -3.342  1.00  0.00     0.166 HD
HETATM    8  C13 UNL     1      12.854  60.399  -1.744  1.00  0.00     0.182 A 
HETATM    9  N3  UNL     1      13.344  59.548  -0.843  1.00  0.00    -0.338 N 
ATOM     10  H3  UNL     1      14.021  59.848  -0.142  1.00  0.00     0.168 HD
HETATM   11  C14 UNL     1      12.907  58.275  -0.896  1.00  0.00     0.122 A 
HETATM   12  C27 UNL     1      11.963  57.844  -1.866  1.00  0.00     0.068 A 
ENDROOT
BRANCH  11  13
HETATM   13  N4  UNL     1      13.375  57.358   0.075  1.00  0.00    -0.342 N 
HETATM   14  H17 UNL     1      14.082  56.756  -0.333  1.00  0.00     0.167 HD
BRANCH  13  15
HETATM   15  C15 UNL     1      13.503  57.496   1.470  1.00  0.00     0.035 A 
HETATM   16  C16 UNL     1      13.355  58.718   2.131  1.00  0.00     0.032 A 
HETATM   17  C17 UNL     1      13.446  58.815   3.527  1.00  0.00     0.041 A 
HETATM   18  C18 UNL     1      13.665  57.678   4.303  1.00  0.00     0.091 A 
HETATM   19  C25 UNL     1      13.810  56.446   3.648  1.00  0.00     0.069 A 
HETATM   20 CL1  UNL     1      14.082  54.983   4.535  1.00  0.00    -0.081 Cl
HETATM   21  C26 UNL     1      13.721  56.356   2.253  1.00  0.00     0.056 A 
BRANCH  18  22
HETATM   22  O4  UNL     1      13.772  57.672   5.669  1.00  0.00    -0.344 OA
BRANCH  22  23
HETATM   23  C19 UNL     1      13.907  58.925   6.348  1.00  0.00     0.232 C 
BRANCH  23  24
HETATM   24  C20 UNL     1      12.781  59.196   7.319  1.00  0.00     0.033 A 
HETATM   25  C21 UNL     1      12.901  58.847   8.663  1.00  0.00     0.027 A 
HETATM   26  C22 UNL     1      11.835  59.104   9.523  1.00  0.00     0.003 A 
HETATM   27  C23 UNL     1      10.682  59.694   9.021  1.00  0.00     0.017 A 
HETATM   28  C24 UNL     1      10.639  60.002   7.672  1.00  0.00     0.088 A 
HETATM   29  N5  UNL     1      11.655  59.763   6.813  1.00  0.00    -0.367 N 
ATOM     30  H5  UNL     1      11.578  59.998   5.823  1.00  0.00     0.165 HD
ENDBRANCH  23  24
ENDBRANCH  22  23
ENDBRANCH  18  22
ENDBRANCH  13  15
ENDBRANCH  11  13
BRANCH   1  31
HETATM   31  O3  UNL     1      11.850  55.499  -1.230  1.00  0.00    -0.348 OA
BRANCH  31  32
HETATM   32  C7  UNL     1      13.134  54.989  -1.625  1.00  0.00     0.201 C 
BRANCH  32  33
HETATM   33  C6  UNL     1      13.015  54.416  -3.049  1.00  0.00     0.111 C 
HETATM   34  N1  UNL     1      13.568  53.063  -3.145  1.00  0.00    -0.344 N 
HETATM   35  C1  UNL     1      12.898  51.980  -2.633  1.00  0.00     0.243 C 
HETATM   36  C3  UNL     1      14.783  53.034  -3.948  1.00  0.00     0.126 C 
HETATM   37  O1  UNL     1      11.820  52.094  -2.043  1.00  0.00    -0.271 OA
HETATM   38  C4  UNL     1      15.181  54.498  -4.079  1.00  0.00     0.022 C 
HETATM   39  C5  UNL     1      13.834  55.219  -4.069  1.00  0.00     0.029 C 
BRANCH  35  40
HETATM   40  C2  UNL     1      13.549  50.605  -2.805  1.00  0.00     0.267 C 
BRANCH  40  41
HETATM   41  O2  UNL     1      13.731  49.941  -1.563  1.00  0.00    -0.392 OA
HETATM   42  H3  UNL     1      13.572  50.615  -0.870  1.00  0.00     0.210 HD
ENDBRANCH  40  41
ENDBRANCH  35  40
ENDBRANCH  32  33
ENDBRANCH  31  32
ENDBRANCH   1  31
TORSDOF 10
ENDMDL
MODEL 2
REMARK minimizedAffinity -6.7248764
REMARK CNNscore 0.411556989
REMARK CNNaffinity 6.33451414
REMARK  10 active torsions:
REMARK  status: ('A' for Active; 'I' for Inactive)
REMARK    1  A    between atoms: C1_2  and  C2_3 
REMARK       I    between atoms: C1_2  and  N1_5 
REMARK    2  A    between atoms: C2_3  and  O2_4 
REMARK    3  A    between atoms: C6_9  and  C7_10 
REMARK    4  A    between atoms: C7_10  and  O3_11 
REMARK    5  A    between atoms: O3_11  and  C8_12 
REMARK    6  A    between atoms: C14_22  and  N4_23 
REMARK    7  A    between atoms: N4_23  and  C15_24 
REMARK    8  A    between atoms: C18_27  and  O4_28 
REMARK    9  A    between atoms: O4_28  and  C19_29 
REMARK   10  A    between atoms: C19_29  and  C20_30 
ROOT
HETATM    1  C8  UNL     1       9.645  51.942  -5.008  1.00  0.00     0.085 A 
HETATM    2  C9  UNL     1       8.647  51.259  -5.707  1.00  0.00     0.038 A 
HETATM    3  C10 UNL     1       8.072  51.846  -6.822  1.00  0.00     0.005 A 
HETATM    4  C11 UNL     1       8.491  53.114  -7.220  1.00  0.00     0.030 A 
HETATM    5  C12 UNL     1       9.452  53.831  -6.519  1.00  0.00     0.049 A 
HETATM    6  N2  UNL     1       9.763  55.042  -6.982  1.00  0.00    -0.351 N 
ATOM      7  H2  UNL     1       9.328  55.421  -7.823  1.00  0.00     0.166 HD
HETATM    8  C13 UNL     1      10.671  55.735  -6.292  1.00  0.00     0.182 A 
HETATM    9  N3  UNL     1      11.288  55.330  -5.183  1.00  0.00    -0.338 N 
ATOM     10  H3  UNL     1      11.964  55.924  -4.704  1.00  0.00     0.168 HD
HETATM   11  C14 UNL     1      10.981  54.102  -4.720  1.00  0.00     0.122 A 
HETATM   12  C27 UNL     1      10.041  53.265  -5.376  1.00  0.00     0.068 A 
ENDROOT
BRANCH  11  13
HETATM   13  N4  UNL     1      11.587  53.661  -3.520  1.00  0.00    -0.342 N 
HETATM   14  H17 UNL     1      11.797  52.671  -3.584  1.00  0.00     0.167 HD
BRANCH  13  15
HETATM   15  C15 UNL     1      12.422  54.346  -2.616  1.00  0.00     0.035 A 
HETATM   16  C16 UNL     1      11.935  55.246  -1.663  1.00  0.00     0.032 A 
HETATM   17  C17 UNL     1      12.789  55.880  -0.749  1.00  0.00     0.041 A 
HETATM   18  C18 UNL     1      14.156  55.608  -0.749  1.00  0.00     0.091 A 
HETATM   19  C25 UNL     1      14.651  54.702  -1.698  1.00  0.00     0.069 A 
HETATM   20 CL1  UNL     1      16.336  54.304  -1.768  1.00  0.00    -0.081 Cl
HETATM   21  C26 UNL     1      13.795  54.074  -2.612  1.00  0.00     0.056 A 
BRANCH  18  22
HETATM   22  O4  UNL     1      15.067  56.178   0.100  1.00  0.00    -0.344 OA
BRANCH  22  23
HETATM   23  C19 UNL     1      14.581  56.889   1.244  1.00  0.00     0.232 C 
BRANCH  23  24
HETATM   24  C20 UNL     1      14.757  56.123   2.535  1.00  0.00     0.033 A 
HETATM   25  C21 UNL     1      13.659  55.816   3.336  1.00  0.00     0.027 A 
HETATM   26  C22 UNL     1      13.866  55.118   4.525  1.00  0.00     0.003 A 
HETATM   27  C23 UNL     1      15.157  54.752   4.883  1.00  0.00     0.017 A 
HETATM   28  C24 UNL     1      16.196  55.103   4.037  1.00  0.00     0.088 A 
HETATM   29  N5  UNL     1      16.026  55.782   2.880  1.00  0.00    -0.367 N 
ATOM     30  H5  UNL     1      16.821  56.028   2.290  1.00  0.00     0.165 HD
ENDBRANCH  23  24
ENDBRANCH  22  23
ENDBRANCH  18  22
ENDBRANCH  13  15
ENDBRANCH  11  13
BRANCH   1  31
HETATM   31  O3  UNL     1      10.198  51.336  -3.903  1.00  0.00    -0.348 OA
BRANCH  31  32
HETATM   32  C7  UNL     1      10.597  49.983  -4.185  1.00  0.00     0.201 C 
BRANCH  32  33
HETATM   33  C6  UNL     1      10.460  49.156  -2.894  1.00  0.00     0.111 C 
HETATM   34  N1  UNL     1      11.741  48.587  -2.467  1.00  0.00    -0.344 N 
HETATM   35  C1  UNL     1      12.710  49.366  -1.887  1.00  0.00     0.243 C 
HETATM   36  C3  UNL     1      11.759  47.137  -2.608  1.00  0.00     0.126 C 
HETATM   37  O1  UNL     1      12.567  50.581  -1.725  1.00  0.00    -0.271 OA
HETATM   38  C4  UNL     1      10.545  46.829  -3.476  1.00  0.00     0.022 C 
HETATM   39  C5  UNL     1       9.560  47.927  -3.083  1.00  0.00     0.029 C 
BRANCH  35  40
HETATM   40  C2  UNL     1      14.005  48.671  -1.455  1.00  0.00     0.267 C 
BRANCH  40  41
HETATM   41  O2  UNL     1      15.120  49.092  -2.227  1.00  0.00    -0.392 OA
HETATM   42  H3  UNL     1      14.751  49.586  -2.988  1.00  0.00     0.210 HD
ENDBRANCH  40  41
ENDBRANCH  35  40
ENDBRANCH  32  33
ENDBRANCH  31  32
ENDBRANCH   1  31
TORSDOF 10
ENDMDL
MODEL 3
REMARK minimizedAffinity -6.62807608
REMARK CNNscore 0.362582117
REMARK CNNaffinity 5.98110819
REMARK  10 active torsions:
REMARK  status: ('A' for Active; 'I' for Inactive)
REMARK    1  A    between atoms: C1_2  and  C2_3 
REMARK       I    between atoms: C1_2  and  N1_5 
REMARK    2  A    between atoms: C2_3  and  O2_4 
REMARK    3  A    between atoms: C6_9  and  C7_10 
REMARK    4  A    between atoms: C7_10  and  O3_11 
REMARK    5  A    between atoms: O3_11  and  C8_12 
REMARK    6  A    between atoms: C14_22  and  N4_23 
REMARK    7  A    between atoms: N4_23  and  C15_24 
REMARK    8  A    between atoms: C18_27  and  O4_28 
REMARK    9  A    between atoms: O4_28  and  C19_29 
REMARK   10  A    between atoms: C19_29  and  C20_30 
ROOT
HETATM    1  C8  UNL     1       9.486  52.449  -5.533  1.00  0.00     0.085 A 
HETATM    2  C9  UNL     1       8.542  51.809  -6.340  1.00  0.00     0.038 A 
HETATM    3  C10 UNL     1       8.070  52.447  -7.475  1.00  0.00     0.005 A 
HETATM    4  C11 UNL     1       8.536  53.724  -7.784  1.00  0.00     0.030 A 
HETATM    5  C12 UNL     1       9.444  54.398  -6.976  1.00  0.00     0.049 A 
HETATM    6  N2  UNL     1       9.807  55.621  -7.362  1.00  0.00    -0.351 N 
ATOM      7  H2  UNL     1       9.449  56.039  -8.221  1.00  0.00     0.166 HD
HETATM    8  C13 UNL     1      10.661  56.272  -6.572  1.00  0.00     0.182 A 
HETATM    9  N3  UNL     1      11.178  55.815  -5.432  1.00  0.00    -0.338 N 
ATOM     10  H3  UNL     1      11.818  56.379  -4.875  1.00  0.00     0.168 HD
HETATM   11  C14 UNL     1      10.819  54.575  -5.046  1.00  0.00     0.122 A 
HETATM   12  C27 UNL     1       9.927  53.778  -5.812  1.00  0.00     0.068 A 
ENDROOT
BRANCH  11  13
HETATM   13  N4  UNL     1      11.316  54.077  -3.818  1.00  0.00    -0.342 N 
HETATM   14  H17 UNL     1      11.629  53.120  -3.936  1.00  0.00     0.167 HD
BRANCH  13  15
HETATM   15  C15 UNL     1      11.963  54.745  -2.761  1.00  0.00     0.035 A 
HETATM   16  C16 UNL     1      11.296  55.597  -1.877  1.00  0.00     0.032 A 
HETATM   17  C17 UNL     1      11.961  56.214  -0.808  1.00  0.00     0.041 A 
HETATM   18  C18 UNL     1      13.315  55.971  -0.581  1.00  0.00     0.091 A 
HETATM   19  C25 UNL     1      13.991  55.113  -1.461  1.00  0.00     0.069 A 
HETATM   20 CL1  UNL     1      15.673  54.754  -1.251  1.00  0.00    -0.081 Cl
HETATM   21  C26 UNL     1      13.322  54.502  -2.529  1.00  0.00     0.056 A 
BRANCH  18  22
HETATM   22  O4  UNL     1      14.051  56.527   0.432  1.00  0.00    -0.344 OA
BRANCH  22  23
HETATM   23  C19 UNL     1      13.585  56.375   1.777  1.00  0.00     0.232 C 
BRANCH  23  24
HETATM   24  C20 UNL     1      13.467  57.689   2.515  1.00  0.00     0.033 A 
HETATM   25  C21 UNL     1      13.576  58.900   1.835  1.00  0.00     0.027 A 
HETATM   26  C22 UNL     1      13.473  60.089   2.556  1.00  0.00     0.003 A 
HETATM   27  C23 UNL     1      13.272  60.037   3.929  1.00  0.00     0.017 A 
HETATM   28  C24 UNL     1      13.184  58.794   4.531  1.00  0.00     0.088 A 
HETATM   29  N5  UNL     1      13.282  57.624   3.860  1.00  0.00    -0.367 N 
ATOM     30  H5  UNL     1      13.220  56.729   4.345  1.00  0.00     0.165 HD
ENDBRANCH  23  24
ENDBRANCH  22  23
ENDBRANCH  18  22
ENDBRANCH  13  15
ENDBRANCH  11  13
BRANCH   1  31
HETATM   31  O3  UNL     1       9.937  51.791  -4.411  1.00  0.00    -0.348 OA
BRANCH  31  32
HETATM   32  C7  UNL     1       9.446  50.441  -4.355  1.00  0.00     0.201 C 
BRANCH  32  33
HETATM   33  C6  UNL     1      10.583  49.527  -3.862  1.00  0.00     0.111 C 
HETATM   34  N1  UNL     1      10.415  49.151  -2.456  1.00  0.00    -0.344 N 
HETATM   35  C1  UNL     1       9.479  48.223  -2.072  1.00  0.00     0.243 C 
HETATM   36  C3  UNL     1      11.433  49.761  -1.611  1.00  0.00     0.126 C 
HETATM   37  O1  UNL     1       8.715  47.688  -2.880  1.00  0.00    -0.271 OA
HETATM   38  C4  UNL     1      12.060  50.832  -2.494  1.00  0.00     0.022 C 
HETATM   39  C5  UNL     1      11.947  50.230  -3.892  1.00  0.00     0.029 C 
BRANCH  35  40
HETATM   40  C2  UNL     1       9.399  47.882  -0.582  1.00  0.00     0.267 C 
BRANCH  40  41
HETATM   41  O2  UNL     1       9.394  49.045   0.234  1.00  0.00    -0.392 OA
HETATM   42  H3  UNL     1       9.644  49.788  -0.354  1.00  0.00     0.210 HD
ENDBRANCH  40  41
ENDBRANCH  35  40
ENDBRANCH  32  33
ENDBRANCH  31  32
ENDBRANCH   1  31
TORSDOF 10
ENDMDL
MODEL 4
REMARK minimizedAffinity -6.73974419
REMARK CNNscore 0.354638994
REMARK CNNaffinity 5.71384668
REMARK  10 active torsions:
REMARK  status: ('A' for Active; 'I' for Inactive)
REMARK    1  A    between atoms: C1_2  and  C2_3 
REMARK       I    between atoms: C1_2  and  N1_5 
REMARK    2  A    between atoms: C2_3  and  O2_4 
REMARK    3  A    between atoms: C6_9  and  C7_10 
REMARK    4  A    between atoms: C7_10  and  O3_11 
REMARK    5  A    between atoms: O3_11  and  C8_12 
REMARK    6  A    between atoms: C14_22  and  N4_23 
REMARK    7  A    between atoms: N4_23  and  C15_24 
REMARK    8  A    between atoms: C18_27  and  O4_28 
REMARK    9  A    between atoms: O4_28  and  C19_29 
REMARK   10  A    between atoms: C19_29  and  C20_30 
ROOT
HETATM    1  C8  UNL     1      14.909  55.462  -1.131  1.00  0.00     0.085 A 
HETATM    2  C9  UNL     1      15.432  54.315  -1.733  1.00  0.00     0.038 A 
HETATM    3  C10 UNL     1      14.590  53.474  -2.444  1.00  0.00     0.005 A 
HETATM    4  C11 UNL     1      13.233  53.781  -2.532  1.00  0.00     0.030 A 
HETATM    5  C12 UNL     1      12.682  54.893  -1.908  1.00  0.00     0.049 A 
HETATM    6  N2  UNL     1      11.369  55.078  -2.048  1.00  0.00    -0.351 N 
ATOM      7  H2  UNL     1      10.796  54.442  -2.602  1.00  0.00     0.166 HD
HETATM    8  C13 UNL     1      10.842  56.135  -1.428  1.00  0.00     0.182 A 
HETATM    9  N3  UNL     1      11.505  57.015  -0.679  1.00  0.00    -0.338 N 
ATOM     10  H3  UNL     1      11.027  57.794  -0.226  1.00  0.00     0.168 HD
HETATM   11  C14 UNL     1      12.833  56.834  -0.546  1.00  0.00     0.122 A 
HETATM   12  C27 UNL     1      13.511  55.754  -1.170  1.00  0.00     0.068 A 
ENDROOT
BRANCH  11  13
HETATM   13  N4  UNL     1      13.559  57.727   0.279  1.00  0.00    -0.342 N 
HETATM   14  H17 UNL     1      13.611  58.638  -0.163  1.00  0.00     0.167 HD
BRANCH  13  15
HETATM   15  C15 UNL     1      13.668  57.785   1.681  1.00  0.00     0.035 A 
HETATM   16  C16 UNL     1      13.605  58.982   2.401  1.00  0.00     0.032 A 
HETATM   17  C17 UNL     1      13.674  59.001   3.801  1.00  0.00     0.041 A 
HETATM   18  C18 UNL     1      13.785  57.813   4.522  1.00  0.00     0.091 A 
HETATM   19  C25 UNL     1      13.844  56.608   3.808  1.00  0.00     0.069 A 
HETATM   20 CL1  UNL     1      13.980  55.085   4.624  1.00  0.00    -0.081 Cl
HETATM   21  C26 UNL     1      13.777  56.594   2.409  1.00  0.00     0.056 A 
BRANCH  18  22
HETATM   22  O4  UNL     1      13.863  57.731   5.887  1.00  0.00    -0.344 OA
BRANCH  22  23
HETATM   23  C19 UNL     1      14.000  58.943   6.637  1.00  0.00     0.232 C 
BRANCH  23  24
HETATM   24  C20 UNL     1      12.811  59.228   7.526  1.00  0.00     0.033 A 
HETATM   25  C21 UNL     1      12.846  58.917   8.884  1.00  0.00     0.027 A 
HETATM   26  C22 UNL     1      11.724  59.185   9.665  1.00  0.00     0.003 A 
HETATM   27  C23 UNL     1      10.601  59.748   9.074  1.00  0.00     0.017 A 
HETATM   28  C24 UNL     1      10.642  60.018   7.717  1.00  0.00     0.088 A 
HETATM   29  N5  UNL     1      11.714  59.767   6.932  1.00  0.00    -0.367 N 
ATOM     30  H5  UNL     1      11.699  59.975   5.933  1.00  0.00     0.165 HD
ENDBRANCH  23  24
ENDBRANCH  22  23
ENDBRANCH  18  22
ENDBRANCH  13  15
ENDBRANCH  11  13
BRANCH   1  31
HETATM   31  O3  UNL     1      15.768  56.279  -0.430  1.00  0.00    -0.348 OA
BRANCH  31  32
HETATM   32  C7  UNL     1      16.532  57.122  -1.309  1.00  0.00     0.201 C 
BRANCH  32  33
HETATM   33  C6  UNL     1      17.767  57.632  -0.544  1.00  0.00     0.111 C 
HETATM   34  N1  UNL     1      18.510  56.541   0.091  1.00  0.00    -0.344 N 
HETATM   35  C1  UNL     1      19.295  55.689  -0.645  1.00  0.00     0.243 C 
HETATM   36  C3  UNL     1      18.411  56.597   1.543  1.00  0.00     0.126 C 
HETATM   37  O1  UNL     1      19.389  55.777  -1.872  1.00  0.00    -0.271 OA
HETATM   38  C4  UNL     1      17.276  57.579   1.804  1.00  0.00     0.022 C 
HETATM   39  C5  UNL     1      17.387  58.547   0.628  1.00  0.00     0.029 C 
BRANCH  35  40
HETATM   40  C2  UNL     1      20.049  54.595   0.116  1.00  0.00     0.267 C 
BRANCH  40  41
HETATM   41  O2  UNL     1      20.937  53.873  -0.725  1.00  0.00    -0.392 OA
HETATM   42  H3  UNL     1      20.704  54.125  -1.643  1.00  0.00     0.210 HD
ENDBRANCH  40  41
ENDBRANCH  35  40
ENDBRANCH  32  33
ENDBRANCH  31  32
ENDBRANCH   1  31
TORSDOF 10
ENDMDL
MODEL 5
REMARK minimizedAffinity -6.53733635
REMARK CNNscore 0.344823182
REMARK CNNaffinity 5.68664789
REMARK  10 active torsions:
REMARK  status: ('A' for Active; 'I' for Inactive)
REMARK    1  A    between atoms: C1_2  and  C2_3 
REMARK       I    between atoms: C1_2  and  N1_5 
REMARK    2  A    between atoms: C2_3  and  O2_4 
REMARK    3  A    between atoms: C6_9  and  C7_10 
REMARK    4  A    between atoms: C7_10  and  O3_11 
REMARK    5  A    between atoms: O3_11  and  C8_12 
REMARK    6  A    between atoms: C14_22  and  N4_23 
REMARK    7  A    between atoms: N4_23  and  C15_24 
REMARK    8  A    between atoms: C18_27  and  O4_28 
REMARK    9  A    between atoms: O4_28  and  C19_29 
REMARK   10  A    between atoms: C19_29  and  C20_30 
ROOT
HETATM    1  C8  UNL     1      14.632  55.247  -1.338  1.00  0.00     0.085 A 
HETATM    2  C9  UNL     1      15.010  54.047  -1.947  1.00  0.00     0.038 A 
HETATM    3  C10 UNL     1      14.065  53.307  -2.639  1.00  0.00     0.005 A 
HETATM    4  C11 UNL     1      12.751  53.766  -2.704  1.00  0.00     0.030 A 
HETATM    5  C12 UNL     1      12.341  54.934  -2.073  1.00  0.00     0.049 A 
HETATM    6  N2  UNL     1      11.056  55.267  -2.190  1.00  0.00    -0.351 N 
ATOM      7  H2  UNL     1      10.404  54.700  -2.732  1.00  0.00     0.166 HD
HETATM    8  C13 UNL     1      10.664  56.378  -1.564  1.00  0.00     0.182 A 
HETATM    9  N3  UNL     1      11.436  57.178  -0.831  1.00  0.00    -0.338 N 
ATOM     10  H3  UNL     1      11.059  58.007  -0.372  1.00  0.00     0.168 HD
HETATM   11  C14 UNL     1      12.738  56.847  -0.721  1.00  0.00     0.122 A 
HETATM   12  C27 UNL     1      13.276  55.696  -1.354  1.00  0.00     0.068 A 
ENDROOT
BRANCH  11  13
HETATM   13  N4  UNL     1      13.575  57.653   0.088  1.00  0.00    -0.342 N 
HETATM   14  H17 UNL     1      13.771  58.528  -0.386  1.00  0.00     0.167 HD
BRANCH  13  15
HETATM   15  C15 UNL     1      13.669  57.748   1.489  1.00  0.00     0.035 A 
HETATM   16  C16 UNL     1      13.635  58.966   2.174  1.00  0.00     0.032 A 
HETATM   17  C17 UNL     1      13.687  59.024   3.573  1.00  0.00     0.041 A 
HETATM   18  C18 UNL     1      13.750  57.854   4.329  1.00  0.00     0.091 A 
HETATM   19  C25 UNL     1      13.779  56.628   3.650  1.00  0.00     0.069 A 
HETATM   20 CL1  UNL     1      13.854  55.125   4.511  1.00  0.00    -0.081 Cl
HETATM   21  C26 UNL     1      13.730  56.575   2.252  1.00  0.00     0.056 A 
BRANCH  18  22
HETATM   22  O4  UNL     1      13.808  57.809   5.697  1.00  0.00    -0.344 OA
BRANCH  22  23
HETATM   23  C19 UNL     1      13.961  59.039   6.414  1.00  0.00     0.232 C 
BRANCH  23  24
HETATM   24  C20 UNL     1      12.706  59.458   7.146  1.00  0.00     0.033 A 
HETATM   25  C21 UNL     1      11.962  60.554   6.714  1.00  0.00     0.027 A 
HETATM   26  C22 UNL     1      10.817  60.913   7.423  1.00  0.00     0.003 A 
HETATM   27  C23 UNL     1      10.451  60.177   8.542  1.00  0.00     0.017 A 
HETATM   28  C24 UNL     1      11.249  59.107   8.912  1.00  0.00     0.088 A 
HETATM   29  N5  UNL     1      12.365  58.736   8.246  1.00  0.00    -0.367 N 
ATOM     30  H5  UNL     1      12.930  57.946   8.558  1.00  0.00     0.165 HD
ENDBRANCH  23  24
ENDBRANCH  22  23
ENDBRANCH  18  22
ENDBRANCH  13  15
ENDBRANCH  11  13
BRANCH   1  31
HETATM   31  O3  UNL     1      15.592  55.961  -0.657  1.00  0.00    -0.348 OA
BRANCH  31  32
HETATM   32  C7  UNL     1      16.632  56.423  -1.535  1.00  0.00     0.201 C 
BRANCH  32  33
HETATM   33  C6  UNL     1      17.978  56.317  -0.795  1.00  0.00     0.111 C 
HETATM   34  N1  UNL     1      18.623  57.623  -0.636  1.00  0.00    -0.344 N 
HETATM   35  C1  UNL     1      18.169  58.536   0.282  1.00  0.00     0.243 C 
HETATM   36  C3  UNL     1      19.830  57.728  -1.444  1.00  0.00     0.126 C 
HETATM   37  O1  UNL     1      17.183  58.320   0.992  1.00  0.00    -0.271 OA
HETATM   38  C4  UNL     1      19.744  56.547  -2.403  1.00  0.00     0.022 C 
HETATM   39  C5  UNL     1      19.009  55.493  -1.578  1.00  0.00     0.029 C 
BRANCH  35  40
HETATM   40  C2  UNL     1      18.926  59.863   0.386  1.00  0.00     0.267 C 
BRANCH  40  41
HETATM   41  O2  UNL     1      19.575  60.012   1.641  1.00  0.00    -0.392 OA
HETATM   42  H3  UNL     1      19.214  59.306   2.217  1.00  0.00     0.210 HD
ENDBRANCH  40  41
ENDBRANCH  35  40
ENDBRANCH  32  33
ENDBRANCH  31  32
ENDBRANCH   1  31
TORSDOF 10
ENDMDL
MODEL 6
REMARK minimizedAffinity -6.97178221
REMARK CNNscore 0.323804796
REMARK CNNaffinity 5.98905611
REMARK  10 active torsions:
REMARK  status: ('A' for Active; 'I' for Inactive)
REMARK    1  A    between atoms: C1_2  and  C2_3 
REMARK       I    between atoms: C1_2  and  N1_5 
REMARK    2  A    between atoms: C2_3  and  O2_4 
REMARK    3  A    between atoms: C6_9  and  C7_10 
REMARK    4  A    between atoms: C7_10  and  O3_11 
REMARK    5  A    between atoms: O3_11  and  C8_12 
REMARK    6  A    between atoms: C14_22  and  N4_23 
REMARK    7  A    between atoms: N4_23  and  C15_24 
REMARK    8  A    between atoms: C18_27  and  O4_28 
REMARK    9  A    between atoms: O4_28  and  C19_29 
REMARK   10  A    between atoms: C19_29  and  C20_30 
ROOT
HETATM    1  C8  UNL     1      12.968  59.613   0.651  1.00  0.00     0.085 A 
HETATM    2  C9  UNL     1      12.712  60.657  -0.241  1.00  0.00     0.038 A 
HETATM    3  C10 UNL     1      12.379  60.367  -1.554  1.00  0.00     0.005 A 
HETATM    4  C11 UNL     1      12.319  59.037  -1.965  1.00  0.00     0.030 A 
HETATM    5  C12 UNL     1      12.608  57.982  -1.109  1.00  0.00     0.049 A 
HETATM    6  N2  UNL     1      12.534  56.751  -1.616  1.00  0.00    -0.351 N 
ATOM      7  H2  UNL     1      12.260  56.588  -2.585  1.00  0.00     0.166 HD
HETATM    8  C13 UNL     1      12.834  55.744  -0.796  1.00  0.00     0.182 A 
HETATM    9  N3  UNL     1      13.206  55.856   0.479  1.00  0.00    -0.338 N 
ATOM     10  H3  UNL     1      13.431  55.035   1.040  1.00  0.00     0.168 HD
HETATM   11  C14 UNL     1      13.272  57.098   0.994  1.00  0.00     0.122 A 
HETATM   12  C27 UNL     1      12.962  58.250   0.223  1.00  0.00     0.068 A 
ENDROOT
BRANCH  11  13
HETATM   13  N4  UNL     1      13.707  57.254   2.333  1.00  0.00    -0.342 N 
HETATM   14  H17 UNL     1      13.106  57.913   2.815  1.00  0.00     0.167 HD
BRANCH  13  15
HETATM   15  C15 UNL     1      14.330  56.335   3.199  1.00  0.00     0.035 A 
HETATM   16  C16 UNL     1      13.618  55.433   3.994  1.00  0.00     0.032 A 
HETATM   17  C17 UNL     1      14.270  54.502   4.814  1.00  0.00     0.041 A 
HETATM   18  C18 UNL     1      15.662  54.434   4.840  1.00  0.00     0.091 A 
HETATM   19  C25 UNL     1      16.385  55.332   4.042  1.00  0.00     0.069 A 
HETATM   20 CL1  UNL     1      18.118  55.315   4.013  1.00  0.00    -0.081 Cl
HETATM   21  C26 UNL     1      15.728  56.263   3.226  1.00  0.00     0.056 A 
BRANCH  18  22
HETATM   22  O4  UNL     1      16.388  53.563   5.610  1.00  0.00    -0.344 OA
BRANCH  22  23
HETATM   23  C19 UNL     1      16.511  52.206   5.172  1.00  0.00     0.232 C 
BRANCH  23  24
HETATM   24  C20 UNL     1      17.604  51.449   5.892  1.00  0.00     0.033 A 
HETATM   25  C21 UNL     1      17.974  50.170   5.481  1.00  0.00     0.027 A 
HETATM   26  C22 UNL     1      18.978  49.502   6.179  1.00  0.00     0.003 A 
HETATM   27  C23 UNL     1      19.580  50.122   7.266  1.00  0.00     0.017 A 
HETATM   28  C24 UNL     1      19.150  51.391   7.616  1.00  0.00     0.088 A 
HETATM   29  N5  UNL     1      18.177  52.062   6.960  1.00  0.00    -0.367 N 
ATOM     30  H5  UNL     1      17.884  52.994   7.257  1.00  0.00     0.165 HD
ENDBRANCH  23  24
ENDBRANCH  22  23
ENDBRANCH  18  22
ENDBRANCH  13  15
ENDBRANCH  11  13
BRANCH   1  31
HETATM   31  O3  UNL     1      13.297  59.931   1.949  1.00  0.00    -0.348 OA
BRANCH  31  32
HETATM   32  C7  UNL     1      12.791  61.223   2.323  1.00  0.00     0.201 C 
BRANCH  32  33
HETATM   33  C6  UNL     1      13.765  61.855   3.334  1.00  0.00     0.111 C 
HETATM   34  N1  UNL     1      13.064  62.469   4.463  1.00  0.00    -0.344 N 
HETATM   35  C1  UNL     1      12.501  61.705   5.455  1.00  0.00     0.243 C 
HETATM   36  C3  UNL     1      13.183  63.921   4.446  1.00  0.00     0.126 C 
HETATM   37  O1  UNL     1      12.529  60.472   5.430  1.00  0.00    -0.271 OA
HETATM   38  C4  UNL     1      13.707  64.237   3.051  1.00  0.00     0.022 C 
HETATM   39  C5  UNL     1      14.563  63.016   2.725  1.00  0.00     0.029 C 
BRANCH  35  40
HETATM   40  C2  UNL     1      11.810  62.444   6.605  1.00  0.00     0.267 C 
BRANCH  40  41
HETATM   41  O2  UNL     1      10.775  63.301   6.144  1.00  0.00    -0.392 OA
HETATM   42  H3  UNL     1      10.886  63.360   5.172  1.00  0.00     0.210 HD
ENDBRANCH  40  41
ENDBRANCH  35  40
ENDBRANCH  32  33
ENDBRANCH  31  32
ENDBRANCH   1  31
TORSDOF 10
ENDMDL
MODEL 7
REMARK minimizedAffinity -6.73629665
REMARK CNNscore 0.295926869
REMARK CNNaffinity 5.76124382
REMARK  10 active torsions:
REMARK  status: ('A' for Active; 'I' for Inactive)
REMARK    1  A    between atoms: C1_2  and  C2_3 
REMARK       I    between atoms: C1_2  and  N1_5 
REMARK    2  A    between atoms: C2_3  and  O2_4 
REMARK    3  A    between atoms: C6_9  and  C7_10 
REMARK    4  A    between atoms: C7_10  and  O3_11 
REMARK    5  A    between atoms: O3_11  and  C8_12 
REMARK    6  A    between atoms: C14_22  and  N4_23 
REMARK    7  A    between atoms: N4_23  and  C15_24 
REMARK    8  A    between atoms: C18_27  and  O4_28 
REMARK    9  A    between atoms: O4_28  and  C19_29 
REMARK   10  A    between atoms: C19_29  and  C20_30 
ROOT
HETATM    1  C8  UNL     1      13.310  63.625   4.263  1.00  0.00     0.085 A 
HETATM    2  C9  UNL     1      13.275  65.020   4.335  1.00  0.00     0.038 A 
HETATM    3  C10 UNL     1      12.581  65.632   5.366  1.00  0.00     0.005 A 
HETATM    4  C11 UNL     1      11.918  64.844   6.306  1.00  0.00     0.030 A 
HETATM    5  C12 UNL     1      11.905  63.457   6.233  1.00  0.00     0.049 A 
HETATM    6  N2  UNL     1      11.225  62.807   7.178  1.00  0.00    -0.351 N 
ATOM      7  H2  UNL     1      10.750  63.303   7.932  1.00  0.00     0.166 HD
HETATM    8  C13 UNL     1      11.197  61.476   7.091  1.00  0.00     0.182 A 
HETATM    9  N3  UNL     1      11.780  60.741   6.145  1.00  0.00    -0.338 N 
ATOM     10  H3  UNL     1      11.703  59.724   6.139  1.00  0.00     0.168 HD
HETATM   11  C14 UNL     1      12.474  61.397   5.195  1.00  0.00     0.122 A 
HETATM   12  C27 UNL     1      12.589  62.812   5.190  1.00  0.00     0.068 A 
ENDROOT
BRANCH  11  13
HETATM   13  N4  UNL     1      13.068  60.647   4.151  1.00  0.00    -0.342 N 
HETATM   14  H17 UNL     1      13.644  61.252   3.577  1.00  0.00     0.167 HD
BRANCH  13  15
HETATM   15  C15 UNL     1      13.474  59.299   4.116  1.00  0.00     0.035 A 
HETATM   16  C16 UNL     1      13.947  58.617   5.241  1.00  0.00     0.032 A 
HETATM   17  C17 UNL     1      14.303  57.262   5.182  1.00  0.00     0.041 A 
HETATM   18  C18 UNL     1      14.170  56.545   3.994  1.00  0.00     0.091 A 
HETATM   19  C25 UNL     1      13.692  57.221   2.862  1.00  0.00     0.069 A 
HETATM   20 CL1  UNL     1      13.494  56.406   1.346  1.00  0.00    -0.081 Cl
HETATM   21  C26 UNL     1      13.340  58.575   2.925  1.00  0.00     0.056 A 
BRANCH  18  22
HETATM   22  O4  UNL     1      14.495  55.223   3.838  1.00  0.00    -0.344 OA
BRANCH  22  23
HETATM   23  C19 UNL     1      14.608  54.406   5.008  1.00  0.00     0.232 C 
BRANCH  23  24
HETATM   24  C20 UNL     1      15.918  53.656   5.081  1.00  0.00     0.033 A 
HETATM   25  C21 UNL     1      17.125  54.302   4.821  1.00  0.00     0.027 A 
HETATM   26  C22 UNL     1      18.309  53.571   4.888  1.00  0.00     0.003 A 
HETATM   27  C23 UNL     1      18.258  52.220   5.206  1.00  0.00     0.017 A 
HETATM   28  C24 UNL     1      17.019  51.650   5.442  1.00  0.00     0.088 A 
HETATM   29  N5  UNL     1      15.853  52.332   5.381  1.00  0.00    -0.367 N 
ATOM     30  H5  UNL     1      14.960  51.870   5.554  1.00  0.00     0.165 HD
ENDBRANCH  23  24
ENDBRANCH  22  23
ENDBRANCH  18  22
ENDBRANCH  13  15
ENDBRANCH  11  13
BRANCH   1  31
HETATM   31  O3  UNL     1      14.007  63.044   3.227  1.00  0.00    -0.348 OA
BRANCH  31  32
HETATM   32  C7  UNL     1      14.324  63.999   2.201  1.00  0.00     0.201 C 
BRANCH  32  33
HETATM   33  C6  UNL     1      15.084  63.272   1.076  1.00  0.00     0.111 C 
HETATM   34  N1  UNL     1      14.295  62.185   0.493  1.00  0.00    -0.344 N 
HETATM   35  C1  UNL     1      13.246  62.440  -0.355  1.00  0.00     0.243 C 
HETATM   36  C3  UNL     1      14.857  60.880   0.812  1.00  0.00     0.126 C 
HETATM   37  O1  UNL     1      12.897  63.589  -0.642  1.00  0.00    -0.271 OA
HETATM   38  C4  UNL     1      15.857  61.165   1.926  1.00  0.00     0.022 C 
HETATM   39  C5  UNL     1      16.350  62.570   1.588  1.00  0.00     0.029 C 
BRANCH  35  40
HETATM   40  C2  UNL     1      12.498  61.234  -0.930  1.00  0.00     0.267 C 
BRANCH  40  41
HETATM   41  O2  UNL     1      11.425  60.822  -0.095  1.00  0.00    -0.392 OA
HETATM   42  H3  UNL     1      11.548  61.294   0.754  1.00  0.00     0.210 HD
ENDBRANCH  40  41
ENDBRANCH  35  40
ENDBRANCH  32  33
ENDBRANCH  31  32
ENDBRANCH   1  31
TORSDOF 10
ENDMDL
MODEL 8
REMARK minimizedAffinity -7.25932169
REMARK CNNscore 0.292089075
REMARK CNNaffinity 5.88651657
REMARK  10 active torsions:
REMARK  status: ('A' for Active; 'I' for Inactive)
REMARK    1  A    between atoms: C1_2  and  C2_3 
REMARK       I    between atoms: C1_2  and  N1_5 
REMARK    2  A    between atoms: C2_3  and  O2_4 
REMARK    3  A    between atoms: C6_9  and  C7_10 
REMARK    4  A    between atoms: C7_10  and  O3_11 
REMARK    5  A    between atoms: O3_11  and  C8_12 
REMARK    6  A    between atoms: C14_22  and  N4_23 
REMARK    7  A    between atoms: N4_23  and  C15_24 
REMARK    8  A    between atoms: C18_27  and  O4_28 
REMARK    9  A    between atoms: O4_28  and  C19_29 
REMARK   10  A    between atoms: C19_29  and  C20_30 
ROOT
HETATM    1  C8  UNL     1      13.664  58.594   2.006  1.00  0.00     0.085 A 
HETATM    2  C9  UNL     1      13.196  59.679   1.261  1.00  0.00     0.038 A 
HETATM    3  C10 UNL     1      12.801  60.836   1.913  1.00  0.00     0.005 A 
HETATM    4  C11 UNL     1      12.865  60.891   3.305  1.00  0.00     0.030 A 
HETATM    5  C12 UNL     1      13.288  59.812   4.071  1.00  0.00     0.049 A 
HETATM    6  N2  UNL     1      13.293  59.973   5.394  1.00  0.00    -0.351 N 
ATOM      7  H2  UNL     1      13.015  60.854   5.826  1.00  0.00     0.166 HD
HETATM    8  C13 UNL     1      13.679  58.927   6.126  1.00  0.00     0.182 A 
HETATM    9  N3  UNL     1      14.052  57.737   5.655  1.00  0.00    -0.338 N 
ATOM     10  H3  UNL     1      14.323  56.980   6.282  1.00  0.00     0.168 HD
HETATM   11  C14 UNL     1      14.056  57.577   4.318  1.00  0.00     0.122 A 
HETATM   12  C27 UNL     1      13.680  58.623   3.434  1.00  0.00     0.068 A 
ENDROOT
BRANCH  11  13
HETATM   13  N4  UNL     1      14.406  56.311   3.789  1.00  0.00    -0.342 N 
HETATM   14  H17 UNL     1      14.498  56.373   2.781  1.00  0.00     0.167 HD
BRANCH  13  15
HETATM   15  C15 UNL     1      15.166  55.268   4.352  1.00  0.00     0.035 A 
HETATM   16  C16 UNL     1      14.598  54.086   4.833  1.00  0.00     0.032 A 
HETATM   17  C17 UNL     1      15.387  53.048   5.348  1.00  0.00     0.041 A 
HETATM   18  C18 UNL     1      16.777  53.159   5.372  1.00  0.00     0.091 A 
HETATM   19  C25 UNL     1      17.355  54.341   4.886  1.00  0.00     0.069 A 
HETATM   20 CL1  UNL     1      19.074  54.562   4.877  1.00  0.00    -0.081 Cl
HETATM   21  C26 UNL     1      16.562  55.376   4.375  1.00  0.00     0.056 A 
BRANCH  18  22
HETATM   22  O4  UNL     1      17.630  52.203   5.857  1.00  0.00    -0.344 OA
BRANCH  22  23
HETATM   23  C19 UNL     1      18.192  51.260   4.938  1.00  0.00     0.232 C 
BRANCH  23  24
HETATM   24  C20 UNL     1      17.646  49.862   5.117  1.00  0.00     0.033 A 
HETATM   25  C21 UNL     1      18.068  49.063   6.178  1.00  0.00     0.027 A 
HETATM   26  C22 UNL     1      17.549  47.775   6.300  1.00  0.00     0.003 A 
HETATM   27  C23 UNL     1      16.631  47.320   5.363  1.00  0.00     0.017 A 
HETATM   28  C24 UNL     1      16.269  48.172   4.333  1.00  0.00     0.088 A 
HETATM   29  N5  UNL     1      16.757  49.424   4.187  1.00  0.00    -0.367 N 
ATOM     30  H5  UNL     1      16.470  50.017   3.408  1.00  0.00     0.165 HD
ENDBRANCH  23  24
ENDBRANCH  22  23
ENDBRANCH  18  22
ENDBRANCH  13  15
ENDBRANCH  11  13
BRANCH   1  31
HETATM   31  O3  UNL     1      14.048  57.458   1.331  1.00  0.00    -0.348 OA
BRANCH  31  32
HETATM   32  C7  UNL     1      12.977  56.927   0.533  1.00  0.00     0.201 C 
BRANCH  32  33
HETATM   33  C6  UNL     1      13.439  56.878  -0.934  1.00  0.00     0.111 C 
HETATM   34  N1  UNL     1      12.324  56.644  -1.854  1.00  0.00    -0.344 N 
HETATM   35  C1  UNL     1      11.424  57.637  -2.152  1.00  0.00     0.243 C 
HETATM   36  C3  UNL     1      12.406  55.330  -2.477  1.00  0.00     0.126 C 
HETATM   37  O1  UNL     1      11.488  58.758  -1.639  1.00  0.00    -0.271 OA
HETATM   38  C4  UNL     1      13.446  54.587  -1.648  1.00  0.00     0.022 C 
HETATM   39  C5  UNL     1      14.389  55.703  -1.206  1.00  0.00     0.029 C 
BRANCH  35  40
HETATM   40  C2  UNL     1      10.307  57.299  -3.143  1.00  0.00     0.267 C 
BRANCH  40  41
HETATM   41  O2  UNL     1       9.647  56.085  -2.811  1.00  0.00    -0.392 OA
HETATM   42  H3  UNL     1      10.203  55.653  -2.131  1.00  0.00     0.210 HD
ENDBRANCH  40  41
ENDBRANCH  35  40
ENDBRANCH  32  33
ENDBRANCH  31  32
ENDBRANCH   1  31
TORSDOF 10
ENDMDL
MODEL 9
REMARK minimizedAffinity -6.24898005
REMARK CNNscore 0.244631797
REMARK CNNaffinity 5.70603323
REMARK  10 active torsions:
REMARK  status: ('A' for Active; 'I' for Inactive)
REMARK    1  A    between atoms: C1_2  and  C2_3 
REMARK       I    between atoms: C1_2  and  N1_5 
REMARK    2  A    between atoms: C2_3  and  O2_4 
REMARK    3  A    between atoms: C6_9  and  C7_10 
REMARK    4  A    between atoms: C7_10  and  O3_11 
REMARK    5  A    between atoms: O3_11  and  C8_12 
REMARK    6  A    between atoms: C14_22  and  N4_23 
REMARK    7  A    between atoms: N4_23  and  C15_24 
REMARK    8  A    between atoms: C18_27  and  O4_28 
REMARK    9  A    between atoms: O4_28  and  C19_29 
REMARK   10  A    between atoms: C19_29  and  C20_30 
ROOT
HETATM    1  C8  UNL     1       9.564  57.638  -6.955  1.00  0.00     0.085 A 
HETATM    2  C9  UNL     1       9.492  57.780  -8.343  1.00  0.00     0.038 A 
HETATM    3  C10 UNL     1       9.532  56.652  -9.146  1.00  0.00     0.005 A 
HETATM    4  C11 UNL     1       9.658  55.396  -8.555  1.00  0.00     0.030 A 
HETATM    5  C12 UNL     1       9.772  55.231  -7.180  1.00  0.00     0.049 A 
HETATM    6  N2  UNL     1       9.904  53.984  -6.728  1.00  0.00    -0.351 N 
ATOM      7  H2  UNL     1       9.904  53.184  -7.360  1.00  0.00     0.166 HD
HETATM    8  C13 UNL     1      10.036  53.834  -5.409  1.00  0.00     0.182 A 
HETATM    9  N3  UNL     1      10.054  54.815  -4.507  1.00  0.00    -0.338 N 
ATOM     10  H3  UNL     1      10.171  54.620  -3.513  1.00  0.00     0.168 HD
HETATM   11  C14 UNL     1       9.911  56.075  -4.963  1.00  0.00     0.122 A 
HETATM   12  C27 UNL     1       9.749  56.360  -6.345  1.00  0.00     0.068 A 
ENDROOT
BRANCH  11  13
HETATM   13  N4  UNL     1       9.970  57.141  -4.035  1.00  0.00    -0.342 N 
HETATM   14  H17 UNL     1       9.049  57.549  -3.920  1.00  0.00     0.167 HD
BRANCH  13  15
HETATM   15  C15 UNL     1      10.802  57.327  -2.914  1.00  0.00     0.035 A 
HETATM   16  C16 UNL     1      10.939  56.374  -1.901  1.00  0.00     0.032 A 
HETATM   17  C17 UNL     1      11.808  56.571  -0.819  1.00  0.00     0.041 A 
HETATM   18  C18 UNL     1      12.586  57.725  -0.737  1.00  0.00     0.091 A 
HETATM   19  C25 UNL     1      12.458  58.684  -1.751  1.00  0.00     0.069 A 
HETATM   20 CL1  UNL     1      13.389  60.146  -1.728  1.00  0.00    -0.081 Cl
HETATM   21  C26 UNL     1      11.586  58.484  -2.828  1.00  0.00     0.056 A 
BRANCH  18  22
HETATM   22  O4  UNL     1      13.459  58.008   0.281  1.00  0.00    -0.344 OA
BRANCH  22  23
HETATM   23  C19 UNL     1      12.995  57.896   1.630  1.00  0.00     0.232 C 
BRANCH  23  24
HETATM   24  C20 UNL     1      13.836  56.962   2.470  1.00  0.00     0.033 A 
HETATM   25  C21 UNL     1      13.243  56.123   3.412  1.00  0.00     0.027 A 
HETATM   26  C22 UNL     1      14.056  55.286   4.173  1.00  0.00     0.003 A 
HETATM   27  C23 UNL     1      15.431  55.312   3.982  1.00  0.00     0.017 A 
HETATM   28  C24 UNL     1      15.942  56.182   3.033  1.00  0.00     0.088 A 
HETATM   29  N5  UNL     1      15.180  57.007   2.281  1.00  0.00    -0.367 N 
ATOM     30  H5  UNL     1      15.600  57.639   1.598  1.00  0.00     0.165 HD
ENDBRANCH  23  24
ENDBRANCH  22  23
ENDBRANCH  18  22
ENDBRANCH  13  15
ENDBRANCH  11  13
BRANCH   1  31
HETATM   31  O3  UNL     1       9.522  58.776  -6.181  1.00  0.00    -0.348 OA
BRANCH  31  32
HETATM   32  C7  UNL     1       9.301  59.951  -6.979  1.00  0.00     0.201 C 
BRANCH  32  33
HETATM   33  C6  UNL     1       7.928  60.541  -6.609  1.00  0.00     0.111 C 
HETATM   34  N1  UNL     1       7.441  61.478  -7.625  1.00  0.00    -0.344 N 
HETATM   35  C1  UNL     1       6.947  61.034  -8.826  1.00  0.00     0.243 C 
HETATM   36  C3  UNL     1       7.422  62.847  -7.130  1.00  0.00     0.126 C 
HETATM   37  O1  UNL     1       6.919  59.836  -9.123  1.00  0.00    -0.271 OA
HETATM   38  C4  UNL     1       8.253  62.795  -5.854  1.00  0.00     0.022 C 
HETATM   39  C5  UNL     1       7.984  61.387  -5.330  1.00  0.00     0.029 C 
BRANCH  35  40
HETATM   40  C2  UNL     1       6.440  62.091  -9.811  1.00  0.00     0.267 C 
BRANCH  40  41
HETATM   41  O2  UNL     1       5.037  62.287  -9.710  1.00  0.00    -0.392 OA
HETATM   42  H3  UNL     1       4.700  61.548  -9.163  1.00  0.00     0.210 HD
ENDBRANCH  40  41
ENDBRANCH  35  40
ENDBRANCH  32  33
ENDBRANCH  31  32
ENDBRANCH   1  31
TORSDOF 10
ENDMDL
