MODEL 1
REMARK minimizedAffinity -7.15790176
REMARK  4 active torsions:
REMARK  status: ('A' for Active; 'I' for Inactive)
REMARK    1  A    between atoms: N1_1  and  C1_2 
REMARK    2  A    between atoms: C1_2  and  N2_4 
REMARK    3  A    between atoms: C2_7  and  C3_8 
REMARK    4  A    between atoms: C10_16  and  C11_17 
ROOT
HETATM    1  N2  UNL     1       1.365  64.820  -3.817  1.00  0.00    -0.258 N 
HETATM    2  N3  UNL     1       2.211  64.829  -4.913  1.00  0.00    -0.299 N 
ATOM      3  H3  UNL     1       1.946  64.693  -5.889  1.00  0.00     0.187 HD
HETATM    4  C2  UNL     1       3.410  65.042  -4.457  1.00  0.00     0.038 C 
HETATM    5  C9  UNL     1       3.524  65.113  -2.956  1.00  0.00     0.091 C 
HETATM    6  C10 UNL     1       2.051  65.205  -2.572  1.00  0.00     0.150 C 
ENDROOT
BRANCH   6   7
HETATM    7  C11 UNL     1       1.717  66.608  -2.061  1.00  0.00    -0.022 A 
HETATM    8  C12 UNL     1       1.166  66.771  -0.775  1.00  0.00     0.010 A 
HETATM    9  C13 UNL     1       0.829  68.031  -0.291  1.00  0.00     0.002 A 
HETATM   10  C14 UNL     1       1.021  69.152  -1.088  1.00  0.00     0.012 A 
HETATM   11  C15 UNL     1       1.550  69.034  -2.380  1.00  0.00    -0.025 A 
HETATM   12  C16 UNL     1       1.721  70.185  -3.166  1.00  0.00     0.012 A 
HETATM   13  C20 UNL     1       1.904  67.757  -2.891  1.00  0.00    -0.018 A 
HETATM   14  C17 UNL     1       2.235  70.103  -4.458  1.00  0.00     0.001 A 
HETATM   15  C18 UNL     1       2.584  68.867  -4.981  1.00  0.00     0.001 A 
HETATM   16  C19 UNL     1       2.420  67.712  -4.210  1.00  0.00     0.013 A 
ENDBRANCH   6   7
BRANCH   1  17
HETATM   17  C1  UNL     1       0.044  64.430  -3.963  1.00  0.00     0.187 C 
HETATM   18  S1  UNL     1      -0.994  63.925  -2.762  1.00  0.00    -0.040 SA
BRANCH  17  19
HETATM   19  N1  UNL     1      -0.402  64.477  -5.252  1.00  0.00    -0.375 N 
HETATM   20  H1  UNL     1       0.301  64.647  -5.961  1.00  0.00     0.158 HD
HETATM   21  H2  UNL     1      -1.310  64.114  -5.498  1.00  0.00     0.158 HD
ENDBRANCH  17  19
ENDBRANCH   1  17
BRANCH   4  22
HETATM   22  C3  UNL     1       4.599  65.160  -5.335  1.00  0.00    -0.012 A 
HETATM   23  C4  UNL     1       4.558  65.893  -6.526  1.00  0.00     0.015 A 
HETATM   24  C5  UNL     1       5.699  65.984  -7.332  1.00  0.00     0.020 A 
HETATM   25  C6  UNL     1       6.875  65.344  -6.946  1.00  0.00     0.011 A 
HETATM   26 BR1  UNL     1       8.413  65.470  -8.037  1.00  0.00    -0.051 Br
HETATM   27  C7  UNL     1       6.926  64.613  -5.761  1.00  0.00     0.020 A 
HETATM   28  C8  UNL     1       5.787  64.522  -4.956  1.00  0.00     0.015 A 
ENDBRANCH   4  22
TORSDOF 4
ENDMDL
MODEL 2
REMARK minimizedAffinity -6.95282507
REMARK  4 active torsions:
REMARK  status: ('A' for Active; 'I' for Inactive)
REMARK    1  A    between atoms: N1_1  and  C1_2 
REMARK    2  A    between atoms: C1_2  and  N2_4 
REMARK    3  A    between atoms: C2_7  and  C3_8 
REMARK    4  A    between atoms: C10_16  and  C11_17 
ROOT
HETATM    1  N2  UNL     1      15.085  36.349  15.267  1.00  0.00    -0.258 N 
HETATM    2  N3  UNL     1      15.296  35.442  14.242  1.00  0.00    -0.299 N 
ATOM      3  H3  UNL     1      14.584  34.895  13.757  1.00  0.00     0.187 HD
HETATM    4  C2  UNL     1      16.576  35.424  14.017  1.00  0.00     0.038 C 
HETATM    5  C9  UNL     1      17.405  36.270  14.948  1.00  0.00     0.091 C 
HETATM    6  C10 UNL     1      16.309  37.083  15.632  1.00  0.00     0.150 C 
ENDROOT
BRANCH   6   7
HETATM    7  C11 UNL     1      16.350  38.538  15.162  1.00  0.00    -0.022 A 
HETATM    8  C12 UNL     1      16.732  38.836  13.839  1.00  0.00     0.010 A 
HETATM    9  C13 UNL     1      16.802  40.150  13.389  1.00  0.00     0.002 A 
HETATM   10  C14 UNL     1      16.508  41.194  14.255  1.00  0.00     0.012 A 
HETATM   11  C15 UNL     1      16.142  40.945  15.585  1.00  0.00    -0.025 A 
HETATM   12  C16 UNL     1      15.863  42.023  16.440  1.00  0.00     0.012 A 
HETATM   13  C20 UNL     1      16.060  39.610  16.063  1.00  0.00    -0.018 A 
HETATM   14  C17 UNL     1      15.504  41.812  17.769  1.00  0.00     0.001 A 
HETATM   15  C18 UNL     1      15.422  40.518  18.261  1.00  0.00     0.001 A 
HETATM   16  C19 UNL     1      15.697  39.434  17.421  1.00  0.00     0.013 A 
ENDBRANCH   6   7
BRANCH   1  17
HETATM   17  C1  UNL     1      13.837  36.451  15.859  1.00  0.00     0.187 C 
HETATM   18  S1  UNL     1      13.482  36.338  17.482  1.00  0.00    -0.040 SA
BRANCH  17  19
HETATM   19  N1  UNL     1      12.825  36.660  14.969  1.00  0.00    -0.375 N 
HETATM   20  H1  UNL     1      13.068  36.575  13.989  1.00  0.00     0.158 HD
HETATM   21  H2  UNL     1      11.862  36.642  15.268  1.00  0.00     0.158 HD
ENDBRANCH  17  19
ENDBRANCH   1  17
BRANCH   4  22
HETATM   22  C3  UNL     1      17.197  34.597  12.955  1.00  0.00    -0.012 A 
HETATM   23  C4  UNL     1      17.639  35.162  11.752  1.00  0.00     0.015 A 
HETATM   24  C5  UNL     1      18.222  34.353  10.771  1.00  0.00     0.020 A 
HETATM   25  C6  UNL     1      18.363  32.984  10.992  1.00  0.00     0.011 A 
HETATM   26 BR1  UNL     1      19.150  31.895   9.664  1.00  0.00    -0.051 Br
HETATM   27  C7  UNL     1      17.928  32.413  12.186  1.00  0.00     0.020 A 
HETATM   28  C8  UNL     1      17.346  33.220  13.167  1.00  0.00     0.015 A 
ENDBRANCH   4  22
TORSDOF 4
ENDMDL
MODEL 3
REMARK minimizedAffinity -6.86958694
REMARK  4 active torsions:
REMARK  status: ('A' for Active; 'I' for Inactive)
REMARK    1  A    between atoms: N1_1  and  C1_2 
REMARK    2  A    between atoms: C1_2  and  N2_4 
REMARK    3  A    between atoms: C2_7  and  C3_8 
REMARK    4  A    between atoms: C10_16  and  C11_17 
ROOT
HETATM    1  N2  UNL     1      17.750  50.532   6.001  1.00  0.00    -0.258 N 
HETATM    2  N3  UNL     1      16.675  51.311   5.610  1.00  0.00    -0.299 N 
ATOM      3  H3  UNL     1      15.700  51.015   5.542  1.00  0.00     0.187 HD
HETATM    4  C2  UNL     1      17.147  52.493   5.346  1.00  0.00     0.038 C 
HETATM    5  C9  UNL     1      18.645  52.624   5.444  1.00  0.00     0.091 C 
HETATM    6  C10 UNL     1      18.991  51.312   6.142  1.00  0.00     0.150 C 
ENDROOT
BRANCH   6   7
HETATM    7  C11 UNL     1      19.426  51.572   7.586  1.00  0.00    -0.022 A 
HETATM    8  C12 UNL     1      19.829  50.494   8.399  1.00  0.00     0.010 A 
HETATM    9  C13 UNL     1      20.206  50.694   9.723  1.00  0.00     0.002 A 
HETATM   10  C14 UNL     1      20.177  51.972  10.265  1.00  0.00     0.012 A 
HETATM   11  C15 UNL     1      19.766  53.070   9.497  1.00  0.00    -0.025 A 
HETATM   12  C16 UNL     1      19.734  54.348  10.078  1.00  0.00     0.012 A 
HETATM   13  C20 UNL     1      19.380  52.888   8.143  1.00  0.00    -0.018 A 
HETATM   14  C17 UNL     1      19.323  55.460   9.347  1.00  0.00     0.001 A 
HETATM   15  C18 UNL     1      18.937  55.307   8.024  1.00  0.00     0.001 A 
HETATM   16  C19 UNL     1      18.964  54.041   7.432  1.00  0.00     0.013 A 
ENDBRANCH   6   7
BRANCH   1  17
HETATM   17  C1  UNL     1      17.593  49.166   6.169  1.00  0.00     0.187 C 
HETATM   18  S1  UNL     1      18.787  48.005   6.143  1.00  0.00    -0.040 SA
BRANCH  17  19
HETATM   19  N1  UNL     1      16.298  48.784   6.367  1.00  0.00    -0.375 N 
HETATM   20  H1  UNL     1      15.596  49.501   6.229  1.00  0.00     0.158 HD
HETATM   21  H2  UNL     1      16.045  47.808   6.393  1.00  0.00     0.158 HD
ENDBRANCH  17  19
ENDBRANCH   1  17
BRANCH   4  22
HETATM   22  C3  UNL     1      16.291  53.630   4.928  1.00  0.00    -0.012 A 
HETATM   23  C4  UNL     1      16.834  54.772   4.329  1.00  0.00     0.015 A 
HETATM   24  C5  UNL     1      15.998  55.827   3.946  1.00  0.00     0.020 A 
HETATM   25  C6  UNL     1      14.624  55.739   4.163  1.00  0.00     0.011 A 
HETATM   26 BR1  UNL     1      13.500  57.166   3.644  1.00  0.00    -0.051 Br
HETATM   27  C7  UNL     1      14.074  54.605   4.757  1.00  0.00     0.020 A 
HETATM   28  C8  UNL     1      14.908  53.551   5.139  1.00  0.00     0.015 A 
ENDBRANCH   4  22
TORSDOF 4
ENDMDL
MODEL 4
REMARK minimizedAffinity -6.84235954
REMARK  4 active torsions:
REMARK  status: ('A' for Active; 'I' for Inactive)
REMARK    1  A    between atoms: N1_1  and  C1_2 
REMARK    2  A    between atoms: C1_2  and  N2_4 
REMARK    3  A    between atoms: C2_7  and  C3_8 
REMARK    4  A    between atoms: C10_16  and  C11_17 
ROOT
HETATM    1  N2  UNL     1       2.348  67.229  -4.029  1.00  0.00    -0.258 N 
HETATM    2  N3  UNL     1       3.683  66.904  -4.202  1.00  0.00    -0.299 N 
ATOM      3  H3  UNL     1       4.476  67.295  -3.693  1.00  0.00     0.187 HD
HETATM    4  C2  UNL     1       3.730  66.004  -5.139  1.00  0.00     0.038 C 
HETATM    5  C9  UNL     1       2.408  65.677  -5.784  1.00  0.00     0.091 C 
HETATM    6  C10 UNL     1       1.451  66.363  -4.814  1.00  0.00     0.150 C 
ENDROOT
BRANCH   6   7
HETATM    7  C11 UNL     1       0.683  65.324  -3.996  1.00  0.00    -0.022 A 
HETATM    8  C12 UNL     1       1.345  64.171  -3.530  1.00  0.00     0.010 A 
HETATM    9  C13 UNL     1       0.669  63.196  -2.804  1.00  0.00     0.002 A 
HETATM   10  C14 UNL     1      -0.686  63.346  -2.541  1.00  0.00     0.012 A 
HETATM   11  C15 UNL     1      -1.389  64.468  -3.000  1.00  0.00    -0.025 A 
HETATM   12  C16 UNL     1      -2.762  64.584  -2.728  1.00  0.00     0.012 A 
HETATM   13  C20 UNL     1      -0.716  65.477  -3.739  1.00  0.00    -0.018 A 
HETATM   14  C17 UNL     1      -3.492  65.682  -3.176  1.00  0.00     0.001 A 
HETATM   15  C18 UNL     1      -2.858  66.678  -3.905  1.00  0.00     0.001 A 
HETATM   16  C19 UNL     1      -1.492  66.576  -4.182  1.00  0.00     0.013 A 
ENDBRANCH   6   7
BRANCH   1  17
HETATM   17  C1  UNL     1       1.992  68.299  -3.227  1.00  0.00     0.187 C 
HETATM   18  S1  UNL     1       1.092  68.251  -1.826  1.00  0.00    -0.040 SA
BRANCH  17  19
HETATM   19  N1  UNL     1       2.449  69.501  -3.683  1.00  0.00    -0.375 N 
HETATM   20  H1  UNL     1       2.862  69.499  -4.608  1.00  0.00     0.158 HD
HETATM   21  H2  UNL     1       2.163  70.363  -3.245  1.00  0.00     0.158 HD
ENDBRANCH  17  19
ENDBRANCH   1  17
BRANCH   4  22
HETATM   22  C3  UNL     1       4.993  65.371  -5.588  1.00  0.00    -0.012 A 
HETATM   23  C4  UNL     1       5.703  64.490  -4.763  1.00  0.00     0.015 A 
HETATM   24  C5  UNL     1       6.892  63.909  -5.218  1.00  0.00     0.020 A 
HETATM   25  C6  UNL     1       7.368  64.208  -6.493  1.00  0.00     0.011 A 
HETATM   26 BR1  UNL     1       8.975  63.421  -7.103  1.00  0.00    -0.051 Br
HETATM   27  C7  UNL     1       6.669  65.082  -7.322  1.00  0.00     0.020 A 
HETATM   28  C8  UNL     1       5.481  65.662  -6.869  1.00  0.00     0.015 A 
ENDBRANCH   4  22
TORSDOF 4
ENDMDL
MODEL 5
REMARK minimizedAffinity -6.82506037
REMARK  4 active torsions:
REMARK  status: ('A' for Active; 'I' for Inactive)
REMARK    1  A    between atoms: N1_1  and  C1_2 
REMARK    2  A    between atoms: C1_2  and  N2_4 
REMARK    3  A    between atoms: C2_7  and  C3_8 
REMARK    4  A    between atoms: C10_16  and  C11_17 
ROOT
HETATM    1  N2  UNL     1      14.835  35.040  19.196  1.00  0.00    -0.258 N 
HETATM    2  N3  UNL     1      13.584  35.217  19.765  1.00  0.00    -0.299 N 
ATOM      3  H3  UNL     1      13.387  35.506  20.723  1.00  0.00     0.187 HD
HETATM    4  C2  UNL     1      12.712  34.945  18.840  1.00  0.00     0.038 C 
HETATM    5  C9  UNL     1      13.288  34.453  17.537  1.00  0.00     0.091 C 
HETATM    6  C10 UNL     1      14.764  34.774  17.749  1.00  0.00     0.150 C 
ENDROOT
BRANCH   6   7
HETATM    7  C11 UNL     1      15.190  35.944  16.860  1.00  0.00    -0.022 A 
HETATM    8  C12 UNL     1      14.466  37.153  16.900  1.00  0.00     0.010 A 
HETATM    9  C13 UNL     1      14.813  38.226  16.087  1.00  0.00     0.002 A 
HETATM   10  C14 UNL     1      15.881  38.110  15.206  1.00  0.00     0.012 A 
HETATM   11  C15 UNL     1      16.616  36.920  15.120  1.00  0.00    -0.025 A 
HETATM   12  C16 UNL     1      17.682  36.829  14.210  1.00  0.00     0.012 A 
HETATM   13  C20 UNL     1      16.280  35.814  15.945  1.00  0.00    -0.018 A 
HETATM   14  C17 UNL     1      18.429  35.659  14.092  1.00  0.00     0.001 A 
HETATM   15  C18 UNL     1      18.117  34.563  14.883  1.00  0.00     0.001 A 
HETATM   16  C19 UNL     1      17.059  34.639  15.794  1.00  0.00     0.013 A 
ENDBRANCH   6   7
BRANCH   1  17
HETATM   17  C1  UNL     1      15.970  35.074  19.989  1.00  0.00     0.187 C 
HETATM   18  S1  UNL     1      16.117  35.742  21.507  1.00  0.00    -0.040 SA
BRANCH  17  19
HETATM   19  N1  UNL     1      17.058  34.487  19.412  1.00  0.00    -0.375 N 
HETATM   20  H1  UNL     1      16.961  34.228  18.437  1.00  0.00     0.158 HD
HETATM   21  H2  UNL     1      17.967  34.546  19.844  1.00  0.00     0.158 HD
ENDBRANCH  17  19
ENDBRANCH   1  17
BRANCH   4  22
HETATM   22  C3  UNL     1      11.249  35.058  19.052  1.00  0.00    -0.012 A 
HETATM   23  C4  UNL     1      10.625  34.486  20.167  1.00  0.00     0.015 A 
HETATM   24  C5  UNL     1       9.242  34.612  20.337  1.00  0.00     0.020 A 
HETATM   25  C6  UNL     1       8.486  35.307  19.395  1.00  0.00     0.011 A 
HETATM   26 BR1  UNL     1       6.619  35.474  19.629  1.00  0.00    -0.051 Br
HETATM   27  C7  UNL     1       9.098  35.882  18.283  1.00  0.00     0.020 A 
HETATM   28  C8  UNL     1      10.480  35.757  18.113  1.00  0.00     0.015 A 
ENDBRANCH   4  22
TORSDOF 4
ENDMDL
MODEL 6
REMARK minimizedAffinity -6.81905222
REMARK  4 active torsions:
REMARK  status: ('A' for Active; 'I' for Inactive)
REMARK    1  A    between atoms: N1_1  and  C1_2 
REMARK    2  A    between atoms: C1_2  and  N2_4 
REMARK    3  A    between atoms: C2_7  and  C3_8 
REMARK    4  A    between atoms: C10_16  and  C11_17 
ROOT
HETATM    1  N2  UNL     1       1.738  65.260  -6.013  1.00  0.00    -0.258 N 
HETATM    2  N3  UNL     1       2.294  65.215  -7.281  1.00  0.00    -0.299 N 
ATOM      3  H3  UNL     1       1.809  64.997  -8.151  1.00  0.00     0.187 HD
HETATM    4  C2  UNL     1       3.554  65.505  -7.146  1.00  0.00     0.038 C 
HETATM    5  C9  UNL     1       4.022  65.694  -5.726  1.00  0.00     0.091 C 
HETATM    6  C10 UNL     1       2.682  65.763  -5.000  1.00  0.00     0.150 C 
ENDROOT
BRANCH   6   7
HETATM    7  C11 UNL     1       2.407  67.187  -4.516  1.00  0.00    -0.022 A 
HETATM    8  C12 UNL     1       2.677  68.279  -5.366  1.00  0.00     0.010 A 
HETATM    9  C13 UNL     1       2.461  69.587  -4.946  1.00  0.00     0.002 A 
HETATM   10  C14 UNL     1       1.984  69.833  -3.665  1.00  0.00     0.012 A 
HETATM   11  C15 UNL     1       1.719  68.779  -2.782  1.00  0.00    -0.025 A 
HETATM   12  C16 UNL     1       1.250  69.060  -1.488  1.00  0.00     0.012 A 
HETATM   13  C20 UNL     1       1.930  67.435  -3.192  1.00  0.00    -0.018 A 
HETATM   14  C17 UNL     1       0.984  68.037  -0.581  1.00  0.00     0.001 A 
HETATM   15  C18 UNL     1       1.186  66.718  -0.957  1.00  0.00     0.001 A 
HETATM   16  C19 UNL     1       1.653  66.421  -2.241  1.00  0.00     0.013 A 
ENDBRANCH   6   7
BRANCH   1  17
HETATM   17  C1  UNL     1       0.444  64.813  -5.807  1.00  0.00     0.187 C 
HETATM   18  S1  UNL     1      -0.227  64.302  -4.371  1.00  0.00    -0.040 SA
BRANCH  17  19
HETATM   19  N1  UNL     1      -0.320  64.805  -6.938  1.00  0.00    -0.375 N 
HETATM   20  H1  UNL     1       0.169  64.983  -7.807  1.00  0.00     0.158 HD
HETATM   21  H2  UNL     1      -1.243  64.399  -6.935  1.00  0.00     0.158 HD
ENDBRANCH  17  19
ENDBRANCH   1  17
BRANCH   4  22
HETATM   22  C3  UNL     1       4.489  65.599  -8.293  1.00  0.00    -0.012 A 
HETATM   23  C4  UNL     1       4.051  65.416  -9.610  1.00  0.00     0.015 A 
HETATM   24  C5  UNL     1       4.960  65.511 -10.669  1.00  0.00     0.020 A 
HETATM   25  C6  UNL     1       6.301  65.788 -10.412  1.00  0.00     0.011 A 
HETATM   26 BR1  UNL     1       7.524  65.915 -11.847  1.00  0.00    -0.051 Br
HETATM   27  C7  UNL     1       6.747  65.973  -9.105  1.00  0.00     0.020 A 
HETATM   28  C8  UNL     1       5.839  65.879  -8.046  1.00  0.00     0.015 A 
ENDBRANCH   4  22
TORSDOF 4
ENDMDL
MODEL 7
REMARK minimizedAffinity -6.79555368
REMARK  4 active torsions:
REMARK  status: ('A' for Active; 'I' for Inactive)
REMARK    1  A    between atoms: N1_1  and  C1_2 
REMARK    2  A    between atoms: C1_2  and  N2_4 
REMARK    3  A    between atoms: C2_7  and  C3_8 
REMARK    4  A    between atoms: C10_16  and  C11_17 
ROOT
HETATM    1  N2  UNL     1      14.156  53.153  -2.839  1.00  0.00    -0.258 N 
HETATM    2  N3  UNL     1      13.959  51.951  -2.181  1.00  0.00    -0.299 N 
ATOM      3  H3  UNL     1      14.595  51.509  -1.517  1.00  0.00     0.187 HD
HETATM    4  C2  UNL     1      12.807  51.495  -2.574  1.00  0.00     0.038 C 
HETATM    5  C9  UNL     1      12.120  52.314  -3.637  1.00  0.00     0.091 C 
HETATM    6  C10 UNL     1      12.972  53.578  -3.605  1.00  0.00     0.150 C 
ENDROOT
BRANCH   6   7
HETATM    7  C11 UNL     1      12.188  54.737  -2.985  1.00  0.00    -0.022 A 
HETATM    8  C12 UNL     1      12.282  54.984  -1.601  1.00  0.00     0.010 A 
HETATM    9  C13 UNL     1      11.563  56.013  -1.003  1.00  0.00     0.002 A 
HETATM   10  C14 UNL     1      10.724  56.809  -1.773  1.00  0.00     0.012 A 
HETATM   11  C15 UNL     1      10.586  56.587  -3.150  1.00  0.00    -0.025 A 
HETATM   12  C16 UNL     1       9.720  57.400  -3.899  1.00  0.00     0.012 A 
HETATM   13  C20 UNL     1      11.315  55.543  -3.780  1.00  0.00    -0.018 A 
HETATM   14  C17 UNL     1       9.553  57.202  -5.268  1.00  0.00     0.001 A 
HETATM   15  C18 UNL     1      10.250  56.186  -5.904  1.00  0.00     0.001 A 
HETATM   16  C19 UNL     1      11.116  55.369  -5.172  1.00  0.00     0.013 A 
ENDBRANCH   6   7
BRANCH   1  17
HETATM   17  C1  UNL     1      15.384  53.790  -2.769  1.00  0.00     0.187 C 
HETATM   18  S1  UNL     1      16.346  54.264  -4.043  1.00  0.00    -0.040 SA
BRANCH  17  19
HETATM   19  N1  UNL     1      15.806  54.026  -1.492  1.00  0.00    -0.375 N 
HETATM   20  H1  UNL     1      15.262  53.593  -0.756  1.00  0.00     0.158 HD
HETATM   21  H2  UNL     1      16.731  54.385  -1.312  1.00  0.00     0.158 HD
ENDBRANCH  17  19
ENDBRANCH   1  17
BRANCH   4  22
HETATM   22  C3  UNL     1      12.219  50.235  -2.060  1.00  0.00    -0.012 A 
HETATM   23  C4  UNL     1      13.009  49.107  -1.813  1.00  0.00     0.015 A 
HETATM   24  C5  UNL     1      12.422  47.933  -1.327  1.00  0.00     0.020 A 
HETATM   25  C6  UNL     1      11.049  47.890  -1.089  1.00  0.00     0.011 A 
HETATM   26 BR1  UNL     1      10.261  46.302  -0.433  1.00  0.00    -0.051 Br
HETATM   27  C7  UNL     1      10.254  49.008  -1.329  1.00  0.00     0.020 A 
HETATM   28  C8  UNL     1      10.840  50.181  -1.814  1.00  0.00     0.015 A 
ENDBRANCH   4  22
TORSDOF 4
ENDMDL
MODEL 8
REMARK minimizedAffinity -6.77997065
REMARK  4 active torsions:
REMARK  status: ('A' for Active; 'I' for Inactive)
REMARK    1  A    between atoms: N1_1  and  C1_2 
REMARK    2  A    between atoms: C1_2  and  N2_4 
REMARK    3  A    between atoms: C2_7  and  C3_8 
REMARK    4  A    between atoms: C10_16  and  C11_17 
ROOT
HETATM    1  N2  UNL     1       1.776  65.146  -5.926  1.00  0.00    -0.258 N 
HETATM    2  N3  UNL     1       2.312  65.161  -7.203  1.00  0.00    -0.299 N 
ATOM      3  H3  UNL     1       1.812  64.988  -8.075  1.00  0.00     0.187 HD
HETATM    4  C2  UNL     1       3.575  65.438  -7.074  1.00  0.00     0.038 C 
HETATM    5  C9  UNL     1       4.067  65.554  -5.654  1.00  0.00     0.091 C 
HETATM    6  C10 UNL     1       2.738  65.594  -4.905  1.00  0.00     0.150 C 
ENDROOT
BRANCH   6   7
HETATM    7  C11 UNL     1       2.479  66.994  -4.347  1.00  0.00    -0.022 A 
HETATM    8  C12 UNL     1       1.906  67.143  -3.068  1.00  0.00     0.010 A 
HETATM    9  C13 UNL     1       1.635  68.402  -2.543  1.00  0.00     0.002 A 
HETATM   10  C14 UNL     1       1.918  69.538  -3.290  1.00  0.00     0.012 A 
HETATM   11  C15 UNL     1       2.471  69.436  -4.573  1.00  0.00    -0.025 A 
HETATM   12  C16 UNL     1       2.733  70.604  -5.309  1.00  0.00     0.012 A 
HETATM   13  C20 UNL     1       2.759  68.160  -5.126  1.00  0.00    -0.018 A 
HETATM   14  C17 UNL     1       3.275  70.539  -6.590  1.00  0.00     0.001 A 
HETATM   15  C18 UNL     1       3.560  69.304  -7.153  1.00  0.00     0.001 A 
HETATM   16  C19 UNL     1       3.305  68.133  -6.433  1.00  0.00     0.013 A 
ENDBRANCH   6   7
BRANCH   1  17
HETATM   17  C1  UNL     1       0.482  64.696  -5.721  1.00  0.00     0.187 C 
HETATM   18  S1  UNL     1      -0.203  64.226  -4.278  1.00  0.00    -0.040 SA
BRANCH  17  19
HETATM   19  N1  UNL     1      -0.267  64.647  -6.860  1.00  0.00    -0.375 N 
HETATM   20  H1  UNL     1       0.232  64.800  -7.729  1.00  0.00     0.158 HD
HETATM   21  H2  UNL     1      -1.187  64.233  -6.857  1.00  0.00     0.158 HD
ENDBRANCH  17  19
ENDBRANCH   1  17
BRANCH   4  22
HETATM   22  C3  UNL     1       4.493  65.582  -8.229  1.00  0.00    -0.012 A 
HETATM   23  C4  UNL     1       5.843  65.905  -8.055  1.00  0.00     0.015 A 
HETATM   24  C5  UNL     1       6.682  66.033  -9.168  1.00  0.00     0.020 A 
HETATM   25  C6  UNL     1       6.170  65.839 -10.450  1.00  0.00     0.011 A 
HETATM   26 BR1  UNL     1       7.306  66.015 -11.950  1.00  0.00    -0.051 Br
HETATM   27  C7  UNL     1       4.828  65.517 -10.634  1.00  0.00     0.020 A 
HETATM   28  C8  UNL     1       3.990  65.388  -9.523  1.00  0.00     0.015 A 
ENDBRANCH   4  22
TORSDOF 4
ENDMDL
MODEL 9
REMARK minimizedAffinity -6.69781542
REMARK  4 active torsions:
REMARK  status: ('A' for Active; 'I' for Inactive)
REMARK    1  A    between atoms: N1_1  and  C1_2 
REMARK    2  A    between atoms: C1_2  and  N2_4 
REMARK    3  A    between atoms: C2_7  and  C3_8 
REMARK    4  A    between atoms: C10_16  and  C11_17 
ROOT
HETATM    1  N2  UNL     1      12.862  59.808  -0.245  1.00  0.00    -0.258 N 
HETATM    2  N3  UNL     1      13.157  59.240   0.982  1.00  0.00    -0.299 N 
ATOM      3  H3  UNL     1      12.949  59.633   1.901  1.00  0.00     0.187 HD
HETATM    4  C2  UNL     1      13.751  58.110   0.738  1.00  0.00     0.038 C 
HETATM    5  C9  UNL     1      14.011  57.822  -0.718  1.00  0.00     0.091 C 
HETATM    6  C10 UNL     1      13.157  58.904  -1.371  1.00  0.00     0.150 C 
ENDROOT
BRANCH   6   7
HETATM    7  C11 UNL     1      11.927  58.286  -2.037  1.00  0.00    -0.022 A 
HETATM    8  C12 UNL     1      11.380  57.092  -1.526  1.00  0.00     0.010 A 
HETATM    9  C13 UNL     1      10.278  56.492  -2.124  1.00  0.00     0.002 A 
HETATM   10  C14 UNL     1       9.706  57.063  -3.254  1.00  0.00     0.012 A 
HETATM   11  C15 UNL     1      10.229  58.240  -3.806  1.00  0.00    -0.025 A 
HETATM   12  C16 UNL     1       9.637  58.787  -4.957  1.00  0.00     0.012 A 
HETATM   13  C20 UNL     1      11.352  58.871  -3.208  1.00  0.00    -0.018 A 
HETATM   14  C17 UNL     1      10.135  59.951  -5.537  1.00  0.00     0.001 A 
HETATM   15  C18 UNL     1      11.234  60.582  -4.974  1.00  0.00     0.001 A 
HETATM   16  C19 UNL     1      11.834  60.050  -3.829  1.00  0.00     0.013 A 
ENDBRANCH   6   7
BRANCH   1  17
HETATM   17  C1  UNL     1      12.392  61.109  -0.314  1.00  0.00     0.187 C 
HETATM   18  S1  UNL     1      13.049  62.372  -1.180  1.00  0.00    -0.040 SA
BRANCH  17  19
HETATM   19  N1  UNL     1      11.271  61.326   0.432  1.00  0.00    -0.375 N 
HETATM   20  H1  UNL     1      10.995  60.574   1.052  1.00  0.00     0.158 HD
HETATM   21  H2  UNL     1      10.899  62.257   0.549  1.00  0.00     0.158 HD
ENDBRANCH  17  19
ENDBRANCH   1  17
BRANCH   4  22
HETATM   22  C3  UNL     1      14.191  57.181   1.806  1.00  0.00    -0.012 A 
HETATM   23  C4  UNL     1      15.544  56.880   2.002  1.00  0.00     0.015 A 
HETATM   24  C5  UNL     1      15.925  55.999   3.020  1.00  0.00     0.020 A 
HETATM   25  C6  UNL     1      14.956  55.423   3.840  1.00  0.00     0.011 A 
HETATM   26 BR1  UNL     1      15.477  54.235   5.214  1.00  0.00    -0.051 Br
HETATM   27  C7  UNL     1      13.608  55.718   3.655  1.00  0.00     0.020 A 
HETATM   28  C8  UNL     1      13.226  56.598   2.638  1.00  0.00     0.015 A 
ENDBRANCH   4  22
TORSDOF 4
ENDMDL
