MODEL 1
REMARK minimizedAffinity -7.90376043
REMARK CNNscore 0.780873954
REMARK CNNaffinity 6.56807709
REMARK  7 active torsions:
REMARK  status: ('A' for Active; 'I' for Inactive)
REMARK    1  A    between atoms: O1_2  and  C2_3 
REMARK    2  A    between atoms: C2_3  and  C3_5 
REMARK    3  A    between atoms: C3_5  and  N1_6 
REMARK    4  A    between atoms: N1_6  and  C5_8 
REMARK    5  A    between atoms: C7_10  and  N3_34 
REMARK    6  A    between atoms: C8_12  and  N2_17 
REMARK    7  A    between atoms: C10_14  and  O4_15 
ROOT
HETATM    1  C5  UNL     1       3.063   8.845  34.614  1.00  0.00     0.260 C 
HETATM    2  C6  UNL     1       3.253   8.064  35.919  1.00  0.00     0.093 C 
HETATM    3  C7  UNL     1       3.097   8.991  37.121  1.00  0.00     0.234 C 
HETATM    4  O3  UNL     1       3.062  10.381  36.816  1.00  0.00    -0.333 OA
HETATM    5  C8  UNL     1       3.977  10.906  35.821  1.00  0.00     0.168 C 
HETATM    6  C9  UNL     1       3.185  12.176  35.418  1.00  0.00     0.074 C 
HETATM    7  C10 UNL     1       4.141   9.971  34.561  1.00  0.00     0.210 C 
ENDROOT
BRANCH   1   8
HETATM    8  N1  UNL     1       3.030   8.014  33.373  1.00  0.00     0.101 N 
HETATM    9  C4  UNL     1       3.718   8.706  32.269  1.00  0.00     0.311 C 
BRANCH   8  10
HETATM   10  C3  UNL     1       1.659   7.615  32.947  1.00  0.00     0.383 C 
BRANCH  10  11
HETATM   11  C2  UNL     1       0.929   6.766  33.993  1.00  0.00     0.286 C 
HETATM   12  O2  UNL     1       1.231   5.640  34.373  1.00  0.00    -0.263 OA
BRANCH  11  13
HETATM   13  O1  UNL     1      -0.137   7.484  34.464  1.00  0.00    -0.325 OA
HETATM   14  C1  UNL     1      -0.535   7.139  35.793  1.00  0.00     0.213 C 
ENDBRANCH  11  13
ENDBRANCH  10  11
ENDBRANCH   8  10
ENDBRANCH   1   8
BRANCH   7  15
HETATM   15  O4  UNL     1       5.457   9.371  34.529  1.00  0.00    -0.384 OA
HETATM   16  C11 UNL     1       6.464  10.289  34.094  1.00  0.00     0.202 C 
ENDBRANCH   7  15
BRANCH   3  17
HETATM   17  N3  UNL     1       4.043   8.738  38.197  1.00  0.00    -0.316 N 
HETATM   18  C27 UNL     1       5.274   9.352  38.346  1.00  0.00     0.048 A 
HETATM   19  C22 UNL     1       5.880   8.795  39.484  1.00  0.00     0.004 A 
HETATM   20  C26 UNL     1       5.908  10.346  37.574  1.00  0.00     0.030 A 
HETATM   21  C21 UNL     1       4.971   7.833  40.027  1.00  0.00     0.022 A 
HETATM   22  C23 UNL     1       7.164   9.258  39.844  1.00  0.00     0.014 A 
HETATM   23  C20 UNL     1       4.893   6.934  41.099  1.00  0.00     0.054 A 
HETATM   24  C28 UNL     1       3.859   7.845  39.203  1.00  0.00     0.077 A 
HETATM   25  C19 UNL     1       3.775   6.089  41.374  1.00  0.00    -0.010 A 
HETATM   26  C30 UNL     1       5.902   6.670  42.137  1.00  0.00     0.253 A 
HETATM   27  C18 UNL     1       2.621   6.089  40.570  1.00  0.00     0.015 A 
HETATM   28  C31 UNL     1       4.063   5.278  42.601  1.00  0.00     0.163 A 
HETATM   29  C17 UNL     1       1.355   5.442  40.576  1.00  0.00     0.004 A 
HETATM   30  C29 UNL     1       2.626   6.929  39.476  1.00  0.00     0.077 A 
HETATM   31  C12 UNL     1       0.618   5.934  39.481  1.00  0.00     0.049 A 
HETATM   32  C16 UNL     1       0.759   4.500  41.445  1.00  0.00     0.014 A 
HETATM   33  N2  UNL     1       1.452   6.803  38.772  1.00  0.00    -0.308 N 
HETATM   34  C13 UNL     1      -0.716   5.527  39.284  1.00  0.00     0.030 A 
HETATM   35  C14 UNL     1      -1.280   4.594  40.160  1.00  0.00     0.002 A 
HETATM   36  C15 UNL     1      -0.553   4.082  41.223  1.00  0.00     0.001 A 
HETATM   37  N4  UNL     1       5.377   5.716  42.981  1.00  0.00    -0.353 N 
HETATM   38  H28 UNL     1       5.910   5.364  43.762  1.00  0.00     0.163 HD
HETATM   39  O5  UNL     1       7.003   7.170  42.257  1.00  0.00    -0.268 OA
HETATM   40  C24 UNL     1       7.804  10.239  39.077  1.00  0.00     0.001 A 
HETATM   41  C25 UNL     1       7.182  10.776  37.959  1.00  0.00     0.002 A 
ENDBRANCH   3  17
TORSDOF 7
ENDMDL
MODEL 2
REMARK minimizedAffinity -7.39622164
REMARK CNNscore 0.556893229
REMARK CNNaffinity 6.35453653
REMARK  7 active torsions:
REMARK  status: ('A' for Active; 'I' for Inactive)
REMARK    1  A    between atoms: O1_2  and  C2_3 
REMARK    2  A    between atoms: C2_3  and  C3_5 
REMARK    3  A    between atoms: C3_5  and  N1_6 
REMARK    4  A    between atoms: N1_6  and  C5_8 
REMARK    5  A    between atoms: C7_10  and  N3_34 
REMARK    6  A    between atoms: C8_12  and  N2_17 
REMARK    7  A    between atoms: C10_14  and  O4_15 
ROOT
HETATM    1  C5  UNL     1       1.043   8.568  34.429  1.00  0.00     0.260 C 
HETATM    2  C6  UNL     1       1.602   8.270  35.823  1.00  0.00     0.093 C 
HETATM    3  C7  UNL     1       2.089   9.555  36.487  1.00  0.00     0.234 C 
HETATM    4  O3  UNL     1       2.165  10.690  35.631  1.00  0.00    -0.333 OA
HETATM    5  C8  UNL     1       2.684  10.524  34.287  1.00  0.00     0.168 C 
HETATM    6  C9  UNL     1       2.017  11.755  33.623  1.00  0.00     0.074 C 
HETATM    7  C10 UNL     1       2.181   9.210  33.576  1.00  0.00     0.210 C 
ENDROOT
BRANCH   1   8
HETATM    8  N1  UNL     1       0.386   7.414  33.745  1.00  0.00     0.101 N 
HETATM    9  C4  UNL     1      -0.982   7.770  33.328  1.00  0.00     0.311 C 
BRANCH   8  10
HETATM   10  C3  UNL     1       0.360   6.163  34.556  1.00  0.00     0.383 C 
BRANCH  10  11
HETATM   11  C2  UNL     1      -0.009   4.924  33.735  1.00  0.00     0.286 C 
HETATM   12  O2  UNL     1      -0.115   4.850  32.516  1.00  0.00    -0.263 OA
BRANCH  11  13
HETATM   13  O1  UNL     1      -0.195   3.876  34.595  1.00  0.00    -0.325 OA
HETATM   14  C1  UNL     1      -0.556   2.649  33.954  1.00  0.00     0.213 C 
ENDBRANCH  11  13
ENDBRANCH  10  11
ENDBRANCH   8  10
ENDBRANCH   1   8
BRANCH   7  15
HETATM   15  O4  UNL     1       3.258   8.257  33.424  1.00  0.00    -0.384 OA
HETATM   16  C11 UNL     1       4.079   8.539  32.287  1.00  0.00     0.202 C 
ENDBRANCH   7  15
BRANCH   3  17
HETATM   17  N3  UNL     1       3.328   9.408  37.235  1.00  0.00    -0.316 N 
HETATM   18  C27 UNL     1       4.476  10.157  37.045  1.00  0.00     0.048 A 
HETATM   19  C22 UNL     1       5.443   9.669  37.939  1.00  0.00     0.004 A 
HETATM   20  C26 UNL     1       4.749  11.218  36.158  1.00  0.00     0.030 A 
HETATM   21  C21 UNL     1       4.840   8.610  38.687  1.00  0.00     0.022 A 
HETATM   22  C23 UNL     1       6.718  10.273  37.929  1.00  0.00     0.014 A 
HETATM   23  C20 UNL     1       5.173   7.705  39.705  1.00  0.00     0.054 A 
HETATM   24  C28 UNL     1       3.542   8.498  38.220  1.00  0.00     0.077 A 
HETATM   25  C19 UNL     1       4.280   6.739  40.260  1.00  0.00    -0.010 A 
HETATM   26  C30 UNL     1       6.462   7.555  40.398  1.00  0.00     0.253 A 
HETATM   27  C18 UNL     1       2.950   6.611  39.824  1.00  0.00     0.015 A 
HETATM   28  C31 UNL     1       4.998   5.964  41.324  1.00  0.00     0.163 A 
HETATM   29  C17 UNL     1       1.817   5.825  40.172  1.00  0.00     0.004 A 
HETATM   30  C29 UNL     1       2.546   7.448  38.805  1.00  0.00     0.077 A 
HETATM   31  C12 UNL     1       0.746   6.232  39.354  1.00  0.00     0.049 A 
HETATM   32  C16 UNL     1       1.604   4.820  41.143  1.00  0.00     0.014 A 
HETATM   33  N2  UNL     1       1.240   7.192  38.465  1.00  0.00    -0.308 N 
HETATM   34  C13 UNL     1      -0.537   5.678  39.536  1.00  0.00     0.030 A 
HETATM   35  C14 UNL     1      -0.718   4.686  40.504  1.00  0.00     0.002 A 
HETATM   36  C15 UNL     1       0.337   4.257  41.294  1.00  0.00     0.001 A 
HETATM   37  N4  UNL     1       6.310   6.546  41.324  1.00  0.00    -0.353 N 
HETATM   38  H28 UNL     1       7.082   6.255  41.905  1.00  0.00     0.163 HD
HETATM   39  O5  UNL     1       7.490   8.175  40.212  1.00  0.00    -0.268 OA
HETATM   40  C24 UNL     1       6.999  11.322  37.046  1.00  0.00     0.001 A 
HETATM   41  C25 UNL     1       6.025  11.788  36.174  1.00  0.00     0.002 A 
ENDBRANCH   3  17
TORSDOF 7
ENDMDL
MODEL 3
REMARK minimizedAffinity -8.8158226
REMARK CNNscore 0.555658698
REMARK CNNaffinity 7.47305536
REMARK  7 active torsions:
REMARK  status: ('A' for Active; 'I' for Inactive)
REMARK    1  A    between atoms: O1_2  and  C2_3 
REMARK    2  A    between atoms: C2_3  and  C3_5 
REMARK    3  A    between atoms: C3_5  and  N1_6 
REMARK    4  A    between atoms: N1_6  and  C5_8 
REMARK    5  A    between atoms: C7_10  and  N3_34 
REMARK    6  A    between atoms: C8_12  and  N2_17 
REMARK    7  A    between atoms: C10_14  and  O4_15 
ROOT
HETATM    1  C5  UNL     1      12.000  -9.166  28.240  1.00  0.00     0.260 C 
HETATM    2  C6  UNL     1      11.078  -8.668  29.357  1.00  0.00     0.093 C 
HETATM    3  C7  UNL     1       9.636  -8.591  28.862  1.00  0.00     0.234 C 
HETATM    4  O3  UNL     1       9.467  -8.741  27.456  1.00  0.00    -0.333 OA
HETATM    5  C8  UNL     1      10.402  -8.085  26.562  1.00  0.00     0.168 C 
HETATM    6  C9  UNL     1      10.214  -8.991  25.319  1.00  0.00     0.074 C 
HETATM    7  C10 UNL     1      11.900  -8.166  27.046  1.00  0.00     0.210 C 
ENDROOT
BRANCH   1   8
HETATM    8  N1  UNL     1      13.409  -9.439  28.651  1.00  0.00     0.101 N 
HETATM    9  C4  UNL     1      14.245  -9.735  27.474  1.00  0.00     0.311 C 
BRANCH   8  10
HETATM   10  C3  UNL     1      13.547 -10.531  29.658  1.00  0.00     0.383 C 
BRANCH  10  11
HETATM   11  C2  UNL     1      14.380 -10.121  30.876  1.00  0.00     0.286 C 
HETATM   12  O2  UNL     1      14.237 -10.504  32.032  1.00  0.00    -0.263 OA
BRANCH  11  13
HETATM   13  O1  UNL     1      15.347  -9.246  30.463  1.00  0.00    -0.325 OA
HETATM   14  C1  UNL     1      16.677  -9.628  30.826  1.00  0.00     0.213 C 
ENDBRANCH  11  13
ENDBRANCH  10  11
ENDBRANCH   8  10
ENDBRANCH   1   8
BRANCH   7  15
HETATM   15  O4  UNL     1      12.380  -6.869  27.468  1.00  0.00    -0.384 OA
HETATM   16  C11 UNL     1      11.606  -5.797  26.923  1.00  0.00     0.202 C 
ENDBRANCH   7  15
BRANCH   3  17
HETATM   17  N3  UNL     1       8.905  -7.423  29.332  1.00  0.00    -0.316 N 
HETATM   18  C27 UNL     1       9.446  -6.371  30.049  1.00  0.00     0.048 A 
HETATM   19  C22 UNL     1       8.397  -5.482  30.336  1.00  0.00     0.004 A 
HETATM   20  C26 UNL     1      10.767  -6.128  30.476  1.00  0.00     0.030 A 
HETATM   21  C21 UNL     1       7.206  -6.023  29.757  1.00  0.00     0.022 A 
HETATM   22  C23 UNL     1       8.699  -4.319  31.076  1.00  0.00     0.014 A 
HETATM   23  C20 UNL     1       5.846  -5.706  29.638  1.00  0.00     0.054 A 
HETATM   24  C28 UNL     1       7.577  -7.209  29.148  1.00  0.00     0.077 A 
HETATM   25  C19 UNL     1       4.883  -6.500  28.942  1.00  0.00    -0.010 A 
HETATM   26  C30 UNL     1       5.136  -4.537  30.179  1.00  0.00     0.253 A 
HETATM   27  C18 UNL     1       5.228  -7.699  28.296  1.00  0.00     0.015 A 
HETATM   28  C31 UNL     1       3.543  -5.833  29.031  1.00  0.00     0.163 A 
HETATM   29  C17 UNL     1       4.566  -8.676  27.502  1.00  0.00     0.004 A 
HETATM   30  C29 UNL     1       6.545  -8.098  28.386  1.00  0.00     0.077 A 
HETATM   31  C12 UNL     1       5.522  -9.636  27.118  1.00  0.00     0.049 A 
HETATM   32  C16 UNL     1       3.233  -8.805  27.049  1.00  0.00     0.014 A 
HETATM   33  N2  UNL     1       6.728  -9.295  27.736  1.00  0.00    -0.308 N 
HETATM   34  C13 UNL     1       5.163 -10.686  26.250  1.00  0.00     0.030 A 
HETATM   35  C14 UNL     1       3.837 -10.789  25.817  1.00  0.00     0.002 A 
HETATM   36  C15 UNL     1       2.882  -9.866  26.214  1.00  0.00     0.001 A 
HETATM   37  N4  UNL     1       3.816  -4.651  29.799  1.00  0.00    -0.353 N 
HETATM   38  H28 UNL     1       3.134  -3.963  30.080  1.00  0.00     0.163 HD
HETATM   39  O5  UNL     1       5.588  -3.627  30.846  1.00  0.00    -0.268 OA
HETATM   40  C24 UNL     1      10.007  -4.075  31.510  1.00  0.00     0.001 A 
HETATM   41  C25 UNL     1      11.026  -4.968  31.211  1.00  0.00     0.002 A 
ENDBRANCH   3  17
TORSDOF 7
ENDMDL
MODEL 4
REMARK minimizedAffinity -7.63889837
REMARK CNNscore 0.534669638
REMARK CNNaffinity 6.2991147
REMARK  7 active torsions:
REMARK  status: ('A' for Active; 'I' for Inactive)
REMARK    1  A    between atoms: O1_2  and  C2_3 
REMARK    2  A    between atoms: C2_3  and  C3_5 
REMARK    3  A    between atoms: C3_5  and  N1_6 
REMARK    4  A    between atoms: N1_6  and  C5_8 
REMARK    5  A    between atoms: C7_10  and  N3_34 
REMARK    6  A    between atoms: C8_12  and  N2_17 
REMARK    7  A    between atoms: C10_14  and  O4_15 
ROOT
HETATM    1  C5  UNL     1       2.955  10.685  35.207  1.00  0.00     0.260 C 
HETATM    2  C6  UNL     1       3.794   9.568  35.834  1.00  0.00     0.093 C 
HETATM    3  C7  UNL     1       3.131   9.057  37.110  1.00  0.00     0.234 C 
HETATM    4  O3  UNL     1       2.048   9.847  37.591  1.00  0.00    -0.333 OA
HETATM    5  C8  UNL     1       2.166  11.293  37.562  1.00  0.00     0.168 C 
HETATM    6  C9  UNL     1       0.658  11.651  37.562  1.00  0.00     0.074 C 
HETATM    7  C10 UNL     1       2.834  11.844  36.244  1.00  0.00     0.210 C 
ENDROOT
BRANCH   1   8
HETATM    8  N1  UNL     1       3.417  11.153  33.866  1.00  0.00     0.101 N 
HETATM    9  C4  UNL     1       3.261  10.085  32.862  1.00  0.00     0.311 C 
BRANCH   8  10
HETATM   10  C3  UNL     1       4.818  11.663  33.850  1.00  0.00     0.383 C 
BRANCH  10  11
HETATM   11  C2  UNL     1       5.863  10.545  33.798  1.00  0.00     0.286 C 
HETATM   12  O2  UNL     1       5.709   9.409  33.363  1.00  0.00    -0.263 OA
BRANCH  11  13
HETATM   13  O1  UNL     1       7.036  11.025  34.314  1.00  0.00    -0.325 OA
HETATM   14  C1  UNL     1       7.015  12.424  34.611  1.00  0.00     0.213 C 
ENDBRANCH  11  13
ENDBRANCH  10  11
ENDBRANCH   8  10
ENDBRANCH   1   8
BRANCH   7  15
HETATM   15  O4  UNL     1       4.150  12.381  36.516  1.00  0.00    -0.384 OA
HETATM   16  C11 UNL     1       4.096  13.639  37.192  1.00  0.00     0.202 C 
ENDBRANCH   7  15
BRANCH   3  17
HETATM   17  N3  UNL     1       4.060   8.770  38.193  1.00  0.00    -0.316 N 
HETATM   18  C27 UNL     1       5.299   9.362  38.368  1.00  0.00     0.048 A 
HETATM   19  C22 UNL     1       5.882   8.774  39.502  1.00  0.00     0.004 A 
HETATM   20  C26 UNL     1       5.957  10.360  37.622  1.00  0.00     0.030 A 
HETATM   21  C21 UNL     1       4.953   7.817  40.016  1.00  0.00     0.022 A 
HETATM   22  C23 UNL     1       7.169   9.211  39.885  1.00  0.00     0.014 A 
HETATM   23  C20 UNL     1       4.848   6.899  41.070  1.00  0.00     0.054 A 
HETATM   24  C28 UNL     1       3.851   7.861  39.180  1.00  0.00     0.077 A 
HETATM   25  C19 UNL     1       3.714   6.066  41.316  1.00  0.00    -0.010 A 
HETATM   26  C30 UNL     1       5.840   6.601  42.115  1.00  0.00     0.253 A 
HETATM   27  C18 UNL     1       2.570   6.100  40.499  1.00  0.00     0.015 A 
HETATM   28  C31 UNL     1       3.975   5.229  42.532  1.00  0.00     0.163 A 
HETATM   29  C17 UNL     1       1.295   5.472  40.478  1.00  0.00     0.004 A 
HETATM   30  C29 UNL     1       2.600   6.959  39.421  1.00  0.00     0.077 A 
HETATM   31  C12 UNL     1       0.578   5.995  39.384  1.00  0.00     0.049 A 
HETATM   32  C16 UNL     1       0.674   4.524  41.323  1.00  0.00     0.014 A 
HETATM   33  N2  UNL     1       1.434   6.864  38.701  1.00  0.00    -0.308 N 
HETATM   34  C13 UNL     1      -0.760   5.612  39.164  1.00  0.00     0.030 A 
HETATM   35  C14 UNL     1      -1.348   4.672  40.016  1.00  0.00     0.002 A 
HETATM   36  C15 UNL     1      -0.642   4.130  41.078  1.00  0.00     0.001 A 
HETATM   37  N4  UNL     1       5.291   5.640  42.935  1.00  0.00    -0.353 N 
HETATM   38  H28 UNL     1       5.809   5.265  43.716  1.00  0.00     0.163 HD
HETATM   39  O5  UNL     1       6.947   7.081  42.257  1.00  0.00    -0.268 OA
HETATM   40  C24 UNL     1       7.833  10.196  39.145  1.00  0.00     0.001 A 
HETATM   41  C25 UNL     1       7.232  10.763  38.030  1.00  0.00     0.002 A 
ENDBRANCH   3  17
TORSDOF 7
ENDMDL
MODEL 5
REMARK minimizedAffinity -7.71607637
REMARK CNNscore 0.52628845
REMARK CNNaffinity 6.66967726
REMARK  7 active torsions:
REMARK  status: ('A' for Active; 'I' for Inactive)
REMARK    1  A    between atoms: O1_2  and  C2_3 
REMARK    2  A    between atoms: C2_3  and  C3_5 
REMARK    3  A    between atoms: C3_5  and  N1_6 
REMARK    4  A    between atoms: N1_6  and  C5_8 
REMARK    5  A    between atoms: C7_10  and  N3_34 
REMARK    6  A    between atoms: C8_12  and  N2_17 
REMARK    7  A    between atoms: C10_14  and  O4_15 
ROOT
HETATM    1  C5  UNL     1       3.537   4.863  46.620  1.00  0.00     0.260 C 
HETATM    2  C6  UNL     1       3.738   5.634  45.312  1.00  0.00     0.093 C 
HETATM    3  C7  UNL     1       5.009   5.167  44.609  1.00  0.00     0.234 C 
HETATM    4  O3  UNL     1       5.860   4.330  45.385  1.00  0.00    -0.333 OA
HETATM    5  C8  UNL     1       6.080   4.653  46.781  1.00  0.00     0.168 C 
HETATM    6  C9  UNL     1       6.485   3.245  47.288  1.00  0.00     0.074 C 
HETATM    7  C10 UNL     1       4.776   5.123  47.532  1.00  0.00     0.210 C 
ENDROOT
BRANCH   1   8
HETATM    8  N1  UNL     1       2.240   5.116  47.317  1.00  0.00     0.101 N 
HETATM    9  C4  UNL     1       1.907   6.550  47.286  1.00  0.00     0.311 C 
BRANCH   8  10
HETATM   10  C3  UNL     1       2.197   4.614  48.720  1.00  0.00     0.383 C 
BRANCH  10  11
HETATM   11  C2  UNL     1       1.481   3.267  48.854  1.00  0.00     0.286 C 
HETATM   12  O2  UNL     1       0.335   3.074  49.246  1.00  0.00    -0.263 OA
BRANCH  11  13
HETATM   13  O1  UNL     1       2.336   2.280  48.443  1.00  0.00    -0.325 OA
HETATM   14  C1  UNL     1       2.619   1.297  49.441  1.00  0.00     0.213 C 
ENDBRANCH  11  13
ENDBRANCH  10  11
ENDBRANCH   8  10
ENDBRANCH   1   8
BRANCH   7  15
HETATM   15  O4  UNL     1       4.842   6.531  47.857  1.00  0.00    -0.384 OA
HETATM   16  C11 UNL     1       5.988   6.854  48.650  1.00  0.00     0.202 C 
ENDBRANCH   7  15
BRANCH   3  17
HETATM   17  N3  UNL     1       5.782   6.239  43.998  1.00  0.00    -0.316 N 
HETATM   18  C27 UNL     1       6.981   6.738  44.475  1.00  0.00     0.048 A 
HETATM   19  C22 UNL     1       7.364   7.784  43.619  1.00  0.00     0.004 A 
HETATM   20  C26 UNL     1       7.758   6.364  45.589  1.00  0.00     0.030 A 
HETATM   21  C21 UNL     1       6.366   7.893  42.601  1.00  0.00     0.022 A 
HETATM   22  C23 UNL     1       8.566   8.466  43.905  1.00  0.00     0.014 A 
HETATM   23  C20 UNL     1       6.089   8.664  41.463  1.00  0.00     0.054 A 
HETATM   24  C28 UNL     1       5.424   6.917  42.878  1.00  0.00     0.077 A 
HETATM   25  C19 UNL     1       4.952   8.489  40.617  1.00  0.00    -0.010 A 
HETATM   26  C30 UNL     1       6.874   9.779  40.911  1.00  0.00     0.253 A 
HETATM   27  C18 UNL     1       3.986   7.496  40.857  1.00  0.00     0.015 A 
HETATM   28  C31 UNL     1       5.007   9.495  39.507  1.00  0.00     0.163 A 
HETATM   29  C17 UNL     1       2.804   7.026  40.222  1.00  0.00     0.004 A 
HETATM   30  C29 UNL     1       4.169   6.707  41.973  1.00  0.00     0.077 A 
HETATM   31  C12 UNL     1       2.315   5.941  40.975  1.00  0.00     0.049 A 
HETATM   32  C16 UNL     1       2.125   7.414  39.045  1.00  0.00     0.014 A 
HETATM   33  N2  UNL     1       3.139   5.805  42.096  1.00  0.00    -0.308 N 
HETATM   34  C13 UNL     1       1.190   5.219  40.531  1.00  0.00     0.030 A 
HETATM   35  C14 UNL     1       0.538   5.626  39.363  1.00  0.00     0.002 A 
HETATM   36  C15 UNL     1       0.993   6.711  38.630  1.00  0.00     0.001 A 
HETATM   37  N4  UNL     1       6.216  10.220  39.784  1.00  0.00    -0.353 N 
HETATM   38  H28 UNL     1       6.568  11.001  39.250  1.00  0.00     0.163 HD
HETATM   39  O5  UNL     1       7.905  10.256  41.342  1.00  0.00    -0.268 OA
HETATM   40  C24 UNL     1       9.339   8.105  45.014  1.00  0.00     0.001 A 
HETATM   41  C25 UNL     1       8.940   7.066  45.843  1.00  0.00     0.002 A 
ENDBRANCH   3  17
TORSDOF 7
ENDMDL
MODEL 6
REMARK minimizedAffinity -9.02972507
REMARK CNNscore 0.525198221
REMARK CNNaffinity 7.37525034
REMARK  7 active torsions:
REMARK  status: ('A' for Active; 'I' for Inactive)
REMARK    1  A    between atoms: O1_2  and  C2_3 
REMARK    2  A    between atoms: C2_3  and  C3_5 
REMARK    3  A    between atoms: C3_5  and  N1_6 
REMARK    4  A    between atoms: N1_6  and  C5_8 
REMARK    5  A    between atoms: C7_10  and  N3_34 
REMARK    6  A    between atoms: C8_12  and  N2_17 
REMARK    7  A    between atoms: C10_14  and  O4_15 
ROOT
HETATM    1  C5  UNL     1      11.688  -9.655  28.016  1.00  0.00     0.260 C 
HETATM    2  C6  UNL     1      10.723  -9.181  29.107  1.00  0.00     0.093 C 
HETATM    3  C7  UNL     1       9.335  -8.938  28.520  1.00  0.00     0.234 C 
HETATM    4  O3  UNL     1       9.266  -8.949  27.098  1.00  0.00    -0.333 OA
HETATM    5  C8  UNL     1      10.316  -8.298  26.339  1.00  0.00     0.168 C 
HETATM    6  C9  UNL     1      10.156  -9.071  25.005  1.00  0.00     0.074 C 
HETATM    7  C10 UNL     1      11.761  -8.549  26.918  1.00  0.00     0.210 C 
ENDROOT
BRANCH   1   8
HETATM    8  N1  UNL     1      13.035 -10.083  28.499  1.00  0.00     0.101 N 
HETATM    9  C4  UNL     1      14.098  -9.403  27.738  1.00  0.00     0.311 C 
BRANCH   8  10
HETATM   10  C3  UNL     1      13.252 -11.558  28.465  1.00  0.00     0.383 C 
BRANCH  10  11
HETATM   11  C2  UNL     1      12.220 -12.334  29.290  1.00  0.00     0.286 C 
HETATM   12  O2  UNL     1      12.120 -12.361  30.512  1.00  0.00    -0.263 OA
BRANCH  11  13
HETATM   13  O1  UNL     1      11.393 -13.003  28.429  1.00  0.00    -0.325 OA
HETATM   14  C1  UNL     1      12.023 -13.410  27.211  1.00  0.00     0.213 C 
ENDBRANCH  11  13
ENDBRANCH  10  11
ENDBRANCH   8  10
ENDBRANCH   1   8
BRANCH   7  15
HETATM   15  O4  UNL     1      12.307  -7.340  27.494  1.00  0.00    -0.384 OA
HETATM   16  C11 UNL     1      12.273  -6.238  26.582  1.00  0.00     0.202 C 
ENDBRANCH   7  15
BRANCH   3  17
HETATM   17  N3  UNL     1       8.663  -7.759  29.046  1.00  0.00    -0.316 N 
HETATM   18  C27 UNL     1       9.264  -6.750  29.778  1.00  0.00     0.048 A 
HETATM   19  C22 UNL     1       8.258  -5.832  30.121  1.00  0.00     0.004 A 
HETATM   20  C26 UNL     1      10.605  -6.571  30.173  1.00  0.00     0.030 A 
HETATM   21  C21 UNL     1       7.032  -6.309  29.561  1.00  0.00     0.022 A 
HETATM   22  C23 UNL     1       8.626  -4.704  30.886  1.00  0.00     0.014 A 
HETATM   23  C20 UNL     1       5.682  -5.938  29.491  1.00  0.00     0.054 A 
HETATM   24  C28 UNL     1       7.339  -7.489  28.907  1.00  0.00     0.077 A 
HETATM   25  C19 UNL     1       4.670  -6.673  28.801  1.00  0.00    -0.010 A 
HETATM   26  C30 UNL     1       5.033  -4.760  30.087  1.00  0.00     0.253 A 
HETATM   27  C18 UNL     1       4.951  -7.864  28.109  1.00  0.00     0.015 A 
HETATM   28  C31 UNL     1       3.360  -5.960  28.948  1.00  0.00     0.163 A 
HETATM   29  C17 UNL     1       4.229  -8.790  27.307  1.00  0.00     0.004 A 
HETATM   30  C29 UNL     1       6.253  -8.315  28.150  1.00  0.00     0.077 A 
HETATM   31  C12 UNL     1       5.137  -9.773  26.866  1.00  0.00     0.049 A 
HETATM   32  C16 UNL     1       2.880  -8.856  26.889  1.00  0.00     0.014 A 
HETATM   33  N2  UNL     1       6.372  -9.497  27.459  1.00  0.00    -0.308 N 
HETATM   34  C13 UNL     1       4.713 -10.782  25.979  1.00  0.00     0.030 A 
HETATM   35  C14 UNL     1       3.373 -10.822  25.582  1.00  0.00     0.002 A 
HETATM   36  C15 UNL     1       2.466  -9.876  26.033  1.00  0.00     0.001 A 
HETATM   37  N4  UNL     1       3.700  -4.812  29.742  1.00  0.00    -0.353 N 
HETATM   38  H28 UNL     1       3.053  -4.108  30.063  1.00  0.00     0.163 HD
HETATM   39  O5  UNL     1       5.538  -3.889  30.767  1.00  0.00    -0.268 OA
HETATM   40  C24 UNL     1       9.954  -4.523  31.289  1.00  0.00     0.001 A 
HETATM   41  C25 UNL     1      10.929  -5.444  30.934  1.00  0.00     0.002 A 
ENDBRANCH   3  17
TORSDOF 7
ENDMDL
MODEL 7
REMARK minimizedAffinity -6.51437902
REMARK CNNscore 0.488861293
REMARK CNNaffinity 6.29917669
REMARK  7 active torsions:
REMARK  status: ('A' for Active; 'I' for Inactive)
REMARK    1  A    between atoms: O1_2  and  C2_3 
REMARK    2  A    between atoms: C2_3  and  C3_5 
REMARK    3  A    between atoms: C3_5  and  N1_6 
REMARK    4  A    between atoms: N1_6  and  C5_8 
REMARK    5  A    between atoms: C7_10  and  N3_34 
REMARK    6  A    between atoms: C8_12  and  N2_17 
REMARK    7  A    between atoms: C10_14  and  O4_15 
ROOT
HETATM    1  C5  UNL     1       5.017   8.556  41.680  1.00  0.00     0.260 C 
HETATM    2  C6  UNL     1       4.458   8.673  40.259  1.00  0.00     0.093 C 
HETATM    3  C7  UNL     1       2.954   8.926  40.298  1.00  0.00     0.234 C 
HETATM    4  O3  UNL     1       2.342   8.759  41.573  1.00  0.00    -0.333 OA
HETATM    5  C8  UNL     1       2.742   7.639  42.402  1.00  0.00     0.168 C 
HETATM    6  C9  UNL     1       2.332   8.211  43.784  1.00  0.00     0.074 C 
HETATM    7  C10 UNL     1       4.295   7.369  42.390  1.00  0.00     0.210 C 
ENDROOT
BRANCH   1   8
HETATM    8  N1  UNL     1       6.505   8.470  41.775  1.00  0.00     0.101 N 
HETATM    9  C4  UNL     1       7.066   7.842  40.566  1.00  0.00     0.311 C 
BRANCH   8  10
HETATM   10  C3  UNL     1       6.996   7.761  42.991  1.00  0.00     0.383 C 
BRANCH  10  11
HETATM   11  C2  UNL     1       8.140   8.499  43.694  1.00  0.00     0.286 C 
HETATM   12  O2  UNL     1       8.904   8.044  44.538  1.00  0.00    -0.263 OA
BRANCH  11  13
HETATM   13  O1  UNL     1       8.188   9.779  43.212  1.00  0.00    -0.325 OA
HETATM   14  C1  UNL     1       8.392  10.776  44.217  1.00  0.00     0.213 C 
ENDBRANCH  11  13
ENDBRANCH  10  11
ENDBRANCH   8  10
ENDBRANCH   1   8
BRANCH   7  15
HETATM   15  O4  UNL     1       4.602   6.139  41.693  1.00  0.00    -0.384 OA
HETATM   16  C11 UNL     1       3.527   5.197  41.751  1.00  0.00     0.202 C 
ENDBRANCH   7  15
BRANCH   3  17
HETATM   17  N3  UNL     1       2.200   8.206  39.283  1.00  0.00    -0.316 N 
HETATM   18  C27 UNL     1       1.069   7.442  39.511  1.00  0.00     0.048 A 
HETATM   19  C22 UNL     1       0.684   6.893  38.278  1.00  0.00     0.004 A 
HETATM   20  C26 UNL     1       0.357   7.182  40.699  1.00  0.00     0.030 A 
HETATM   21  C21 UNL     1       1.608   7.360  37.292  1.00  0.00     0.022 A 
HETATM   22  C23 UNL     1      -0.454   6.057  38.252  1.00  0.00     0.014 A 
HETATM   23  C20 UNL     1       1.843   7.240  35.915  1.00  0.00     0.054 A 
HETATM   24  C28 UNL     1       2.511   8.167  37.961  1.00  0.00     0.077 A 
HETATM   25  C19 UNL     1       2.903   7.887  35.209  1.00  0.00    -0.010 A 
HETATM   26  C30 UNL     1       1.083   6.453  34.931  1.00  0.00     0.253 A 
HETATM   27  C18 UNL     1       3.826   8.729  35.854  1.00  0.00     0.015 A 
HETATM   28  C31 UNL     1       2.822   7.520  33.759  1.00  0.00     0.163 A 
HETATM   29  C17 UNL     1       4.929   9.541  35.472  1.00  0.00     0.004 A 
HETATM   30  C29 UNL     1       3.682   8.883  37.217  1.00  0.00     0.077 A 
HETATM   31  C12 UNL     1       5.410  10.182  36.630  1.00  0.00     0.049 A 
HETATM   32  C16 UNL     1       5.540   9.811  34.227  1.00  0.00     0.014 A 
HETATM   33  N2  UNL     1       4.665   9.705  37.713  1.00  0.00    -0.308 N 
HETATM   34  C13 UNL     1       6.458  11.120  36.538  1.00  0.00     0.030 A 
HETATM   35  C14 UNL     1       7.043  11.367  35.293  1.00  0.00     0.002 A 
HETATM   36  C15 UNL     1       6.596  10.719  34.152  1.00  0.00     0.001 A 
HETATM   37  N4  UNL     1       1.680   6.651  33.705  1.00  0.00    -0.353 N 
HETATM   38  H28 UNL     1       1.334   6.186  32.878  1.00  0.00     0.163 HD
HETATM   39  O5  UNL     1       0.115   5.744  35.124  1.00  0.00    -0.268 OA
HETATM   40  C24 UNL     1      -1.161   5.788  39.429  1.00  0.00     0.001 A 
HETATM   41  C25 UNL     1      -0.761   6.345  40.635  1.00  0.00     0.002 A 
ENDBRANCH   3  17
TORSDOF 7
ENDMDL
MODEL 8
REMARK minimizedAffinity -10.3077126
REMARK CNNscore 0.477257282
REMARK CNNaffinity 7.40709829
REMARK  7 active torsions:
REMARK  status: ('A' for Active; 'I' for Inactive)
REMARK    1  A    between atoms: O1_2  and  C2_3 
REMARK    2  A    between atoms: C2_3  and  C3_5 
REMARK    3  A    between atoms: C3_5  and  N1_6 
REMARK    4  A    between atoms: N1_6  and  C5_8 
REMARK    5  A    between atoms: C7_10  and  N3_34 
REMARK    6  A    between atoms: C8_12  and  N2_17 
REMARK    7  A    between atoms: C10_14  and  O4_15 
ROOT
HETATM    1  C5  UNL     1      11.306  -9.480  27.891  1.00  0.00     0.260 C 
HETATM    2  C6  UNL     1      10.850  -8.835  29.203  1.00  0.00     0.093 C 
HETATM    3  C7  UNL     1       9.447  -8.254  29.052  1.00  0.00     0.234 C 
HETATM    4  O3  UNL     1       8.954  -8.196  27.718  1.00  0.00    -0.333 OA
HETATM    5  C8  UNL     1       9.850  -7.779  26.656  1.00  0.00     0.168 C 
HETATM    6  C9  UNL     1       9.121  -8.445  25.460  1.00  0.00     0.074 C 
HETATM    7  C10 UNL     1      11.301  -8.381  26.783  1.00  0.00     0.210 C 
ENDROOT
BRANCH   1   8
HETATM    8  N1  UNL     1      12.597 -10.227  27.962  1.00  0.00     0.101 N 
HETATM    9  C4  UNL     1      12.652 -11.267  26.919  1.00  0.00     0.311 C 
BRANCH   8  10
HETATM   10  C3  UNL     1      12.876 -10.831  29.296  1.00  0.00     0.383 C 
BRANCH  10  11
HETATM   11  C2  UNL     1      12.066 -12.104  29.560  1.00  0.00     0.286 C 
HETATM   12  O2  UNL     1      11.580 -12.857  28.724  1.00  0.00    -0.263 OA
BRANCH  11  13
HETATM   13  O1  UNL     1      11.975 -12.285  30.913  1.00  0.00    -0.325 OA
HETATM   14  C1  UNL     1      13.108 -11.809  31.645  1.00  0.00     0.213 C 
ENDBRANCH  11  13
ENDBRANCH  10  11
ENDBRANCH   8  10
ENDBRANCH   1   8
BRANCH   7  15
HETATM   15  O4  UNL     1      12.261  -7.354  27.126  1.00  0.00    -0.384 OA
HETATM   16  C11 UNL     1      11.850  -6.057  26.686  1.00  0.00     0.202 C 
ENDBRANCH   7  15
BRANCH   3  17
HETATM   17  N3  UNL     1       9.258  -6.972  29.713  1.00  0.00    -0.316 N 
HETATM   18  C27 UNL     1      10.252  -6.225  30.320  1.00  0.00     0.048 A 
HETATM   19  C22 UNL     1       9.639  -5.085  30.866  1.00  0.00     0.004 A 
HETATM   20  C26 UNL     1      11.637  -6.458  30.441  1.00  0.00     0.030 A 
HETATM   21  C21 UNL     1       8.245  -5.158  30.558  1.00  0.00     0.022 A 
HETATM   22  C23 UNL     1      10.455  -4.161  31.554  1.00  0.00     0.014 A 
HETATM   23  C20 UNL     1       7.072  -4.417  30.762  1.00  0.00     0.054 A 
HETATM   24  C28 UNL     1       8.068  -6.330  29.844  1.00  0.00     0.077 A 
HETATM   25  C19 UNL     1       5.780  -4.788  30.281  1.00  0.00    -0.010 A 
HETATM   26  C30 UNL     1       6.917  -3.146  31.488  1.00  0.00     0.253 A 
HETATM   27  C18 UNL     1       5.567  -5.961  29.536  1.00  0.00     0.015 A 
HETATM   28  C31 UNL     1       4.785  -3.746  30.694  1.00  0.00     0.163 A 
HETATM   29  C17 UNL     1       4.471  -6.590  28.885  1.00  0.00     0.004 A 
HETATM   30  C29 UNL     1       6.666  -6.763  29.311  1.00  0.00     0.077 A 
HETATM   31  C12 UNL     1       4.954  -7.757  28.262  1.00  0.00     0.049 A 
HETATM   32  C16 UNL     1       3.107  -6.243  28.744  1.00  0.00     0.014 A 
HETATM   33  N2  UNL     1       6.305  -7.882  28.598  1.00  0.00    -0.308 N 
HETATM   34  C13 UNL     1       4.097  -8.544  27.467  1.00  0.00     0.030 A 
HETATM   35  C14 UNL     1       2.753  -8.176  27.345  1.00  0.00     0.002 A 
HETATM   36  C15 UNL     1       2.261  -7.045  27.978  1.00  0.00     0.001 A 
HETATM   37  N4  UNL     1       5.587  -2.797  31.415  1.00  0.00    -0.353 N 
HETATM   38  H28 UNL     1       5.244  -1.962  31.866  1.00  0.00     0.163 HD
HETATM   39  O5  UNL     1       7.773  -2.501  32.061  1.00  0.00    -0.268 OA
HETATM   40  C24 UNL     1      11.830  -4.390  31.685  1.00  0.00     0.001 A 
HETATM   41  C25 UNL     1      12.411  -5.523  31.133  1.00  0.00     0.002 A 
ENDBRANCH   3  17
TORSDOF 7
ENDMDL
MODEL 9
REMARK minimizedAffinity -6.56647873
REMARK CNNscore 0.411670119
REMARK CNNaffinity 6.09870291
REMARK  7 active torsions:
REMARK  status: ('A' for Active; 'I' for Inactive)
REMARK    1  A    between atoms: O1_2  and  C2_3 
REMARK    2  A    between atoms: C2_3  and  C3_5 
REMARK    3  A    between atoms: C3_5  and  N1_6 
REMARK    4  A    between atoms: N1_6  and  C5_8 
REMARK    5  A    between atoms: C7_10  and  N3_34 
REMARK    6  A    between atoms: C8_12  and  N2_17 
REMARK    7  A    between atoms: C10_14  and  O4_15 
ROOT
HETATM    1  C5  UNL     1       0.429   6.490  40.153  1.00  0.00     0.260 C 
HETATM    2  C6  UNL     1       1.555   6.860  39.183  1.00  0.00     0.093 C 
HETATM    3  C7  UNL     1       1.134   8.032  38.300  1.00  0.00     0.234 C 
HETATM    4  O3  UNL     1      -0.246   8.376  38.365  1.00  0.00    -0.333 OA
HETATM    5  C8  UNL     1      -1.234   7.315  38.395  1.00  0.00     0.168 C 
HETATM    6  C9  UNL     1      -2.397   8.095  39.061  1.00  0.00     0.074 C 
HETATM    7  C10 UNL     1      -0.827   6.100  39.314  1.00  0.00     0.210 C 
ENDROOT
BRANCH   1   8
HETATM    8  N1  UNL     1       0.783   5.465  41.179  1.00  0.00     0.101 N 
HETATM    9  C4  UNL     1       2.150   4.961  40.959  1.00  0.00     0.311 C 
BRANCH   8  10
HETATM   10  C3  UNL     1      -0.173   4.323  41.251  1.00  0.00     0.383 C 
BRANCH  10  11
HETATM   11  C2  UNL     1      -0.904   4.236  42.595  1.00  0.00     0.286 C 
HETATM   12  O2  UNL     1      -0.568   3.588  43.579  1.00  0.00    -0.263 OA
BRANCH  11  13
HETATM   13  O1  UNL     1      -2.018   5.030  42.531  1.00  0.00    -0.325 OA
HETATM   14  C1  UNL     1      -3.090   4.473  41.766  1.00  0.00     0.213 C 
ENDBRANCH  11  13
ENDBRANCH  10  11
ENDBRANCH   8  10
ENDBRANCH   1   8
BRANCH   7  15
HETATM   15  O4  UNL     1      -0.526   4.928  38.522  1.00  0.00    -0.384 OA
HETATM   16  C11 UNL     1      -1.706   4.280  38.038  1.00  0.00     0.202 C 
ENDBRANCH   7  15
BRANCH   3  17
HETATM   17  N3  UNL     1       1.556   7.917  36.913  1.00  0.00    -0.316 N 
HETATM   18  C27 UNL     1       0.851   7.280  35.907  1.00  0.00     0.048 A 
HETATM   19  C22 UNL     1       1.626   7.364  34.739  1.00  0.00     0.004 A 
HETATM   20  C26 UNL     1      -0.401   6.632  35.927  1.00  0.00     0.030 A 
HETATM   21  C21 UNL     1       2.818   8.084  35.066  1.00  0.00     0.022 A 
HETATM   22  C23 UNL     1       1.117   6.772  33.563  1.00  0.00     0.014 A 
HETATM   23  C20 UNL     1       3.991   8.533  34.444  1.00  0.00     0.054 A 
HETATM   24  C28 UNL     1       2.719   8.405  36.408  1.00  0.00     0.077 A 
HETATM   25  C19 UNL     1       5.023   9.278  35.092  1.00  0.00    -0.010 A 
HETATM   26  C30 UNL     1       4.404   8.345  33.044  1.00  0.00     0.253 A 
HETATM   27  C18 UNL     1       4.946   9.638  36.449  1.00  0.00     0.015 A 
HETATM   28  C31 UNL     1       6.107   9.578  34.101  1.00  0.00     0.163 A 
HETATM   29  C17 UNL     1       5.733  10.386  37.367  1.00  0.00     0.004 A 
HETATM   30  C29 UNL     1       3.834   9.213  37.144  1.00  0.00     0.077 A 
HETATM   31  C12 UNL     1       5.051  10.405  38.599  1.00  0.00     0.049 A 
HETATM   32  C16 UNL     1       6.958  11.080  37.244  1.00  0.00     0.014 A 
HETATM   33  N2  UNL     1       3.908   9.612  38.457  1.00  0.00    -0.308 N 
HETATM   34  C13 UNL     1       5.561  11.149  39.681  1.00  0.00     0.030 A 
HETATM   35  C14 UNL     1       6.774  11.827  39.530  1.00  0.00     0.002 A 
HETATM   36  C15 UNL     1       7.469  11.790  38.330  1.00  0.00     0.001 A 
HETATM   37  N4  UNL     1       5.624   8.969  32.894  1.00  0.00    -0.353 N 
HETATM   38  H28 UNL     1       6.111   8.949  32.010  1.00  0.00     0.163 HD
HETATM   39  O5  UNL     1       3.816   7.753  32.162  1.00  0.00    -0.268 OA
HETATM   40  C24 UNL     1      -0.121   6.120  33.577  1.00  0.00     0.001 A 
HETATM   41  C25 UNL     1      -0.870   6.053  34.744  1.00  0.00     0.002 A 
ENDBRANCH   3  17
TORSDOF 7
ENDMDL
