MODEL 1
REMARK minimizedAffinity -7.73308754
REMARK CNNscore 0.790762007
REMARK CNNaffinity 6.18648291
REMARK  3 active torsions:
REMARK  status: ('A' for Active; 'I' for Inactive)
REMARK    1  A    between atoms: C4_5  and  C5_6 
REMARK    2  A    between atoms: N2_9  and  C6_10 
REMARK    3  A    between atoms: C12_16  and  C13_17 
ROOT
HETATM    1  C5  UNL     1      17.191  52.277   5.452  1.00  0.00     0.038 C 
HETATM    2  N1  UNL     1      16.697  51.104   5.705  1.00  0.00    -0.301 N 
ATOM      3  H1  UNL     1      15.715  50.834   5.644  1.00  0.00     0.187 HD
HETATM    4  N2  UNL     1      17.739  50.299   6.071  1.00  0.00    -0.283 N 
HETATM    5  C12 UNL     1      19.011  51.015   6.180  1.00  0.00     0.147 C 
HETATM    6  C23 UNL     1      18.688  52.377   5.560  1.00  0.00     0.091 C 
ENDROOT
BRANCH   5   7
HETATM    7  C13 UNL     1      19.500  51.178   7.612  1.00  0.00    -0.032 A 
HETATM    8  C14 UNL     1      20.147  50.144   8.303  1.00  0.00     0.010 A 
HETATM    9  C15 UNL     1      20.559  50.319   9.626  1.00  0.00     0.013 A 
HETATM   10  C16 UNL     1      20.328  51.529  10.296  1.00  0.00    -0.026 A 
HETATM   11  C17 UNL     1      20.738  51.718  11.626  1.00  0.00     0.012 A 
HETATM   12  C21 UNL     1      19.671  52.579   9.618  1.00  0.00    -0.025 A 
HETATM   13  C18 UNL     1      20.500  52.928  12.280  1.00  0.00     0.001 A 
HETATM   14  C19 UNL     1      19.851  53.962  11.613  1.00  0.00     0.001 A 
HETATM   15  C20 UNL     1      19.439  53.791  10.291  1.00  0.00     0.012 A 
HETATM   16  C22 UNL     1      19.263  52.388   8.286  1.00  0.00     0.021 A 
ENDBRANCH   5   7
BRANCH   4  17
HETATM   17  C6  UNL     1      17.566  48.920   6.200  1.00  0.00     0.051 A 
HETATM   18  C7  UNL     1      18.626  48.052   6.510  1.00  0.00     0.031 A 
HETATM   19  C8  UNL     1      18.433  46.671   6.638  1.00  0.00     0.002 A 
HETATM   20  C9  UNL     1      17.169  46.121   6.458  1.00  0.00     0.000 A 
HETATM   21  C10 UNL     1      16.099  46.955   6.153  1.00  0.00     0.002 A 
HETATM   22  C11 UNL     1      16.300  48.334   6.029  1.00  0.00     0.031 A 
ENDBRANCH   4  17
BRANCH   1  23
HETATM   23  C4  UNL     1      16.354  53.430   5.046  1.00  0.00    -0.010 A 
HETATM   24  C3  UNL     1      14.973  53.375   5.271  1.00  0.00     0.015 A 
HETATM   25  C2  UNL     1      14.154  54.446   4.902  1.00  0.00     0.026 A 
HETATM   26  C1  UNL     1      14.710  55.580   4.303  1.00  0.00     0.055 A 
HETATM   27 CL1  UNL     1      13.643  56.867   3.870  1.00  0.00    -0.083 Cl
HETATM   28  C25 UNL     1      16.090  55.637   4.075  1.00  0.00     0.056 A 
HETATM   29  C24 UNL     1      16.911  54.564   4.447  1.00  0.00     0.039 A 
HETATM   30 CL2  UNL     1      16.848  57.004   3.338  1.00  0.00    -0.083 Cl
ENDBRANCH   1  23
TORSDOF 3
ENDMDL
MODEL 2
REMARK minimizedAffinity -7.74103355
REMARK CNNscore 0.780686677
REMARK CNNaffinity 6.24216604
REMARK  3 active torsions:
REMARK  status: ('A' for Active; 'I' for Inactive)
REMARK    1  A    between atoms: C4_5  and  C5_6 
REMARK    2  A    between atoms: N2_9  and  C6_10 
REMARK    3  A    between atoms: C12_16  and  C13_17 
ROOT
HETATM    1  C5  UNL     1      17.198  52.325   5.463  1.00  0.00     0.038 C 
HETATM    2  N1  UNL     1      16.721  51.143   5.705  1.00  0.00    -0.301 N 
ATOM      3  H1  UNL     1      15.747  50.853   5.620  1.00  0.00     0.187 HD
HETATM    4  N2  UNL     1      17.769  50.358   6.096  1.00  0.00    -0.283 N 
HETATM    5  C12 UNL     1      19.024  51.099   6.235  1.00  0.00     0.147 C 
HETATM    6  C23 UNL     1      18.689  52.455   5.607  1.00  0.00     0.091 C 
ENDROOT
BRANCH   5   7
HETATM    7  C13 UNL     1      19.476  51.272   7.679  1.00  0.00    -0.032 A 
HETATM    8  C14 UNL     1      19.080  52.366   8.460  1.00  0.00     0.010 A 
HETATM    9  C15 UNL     1      19.535  52.507   9.772  1.00  0.00     0.013 A 
HETATM   10  C16 UNL     1      20.405  51.564  10.337  1.00  0.00    -0.026 A 
HETATM   11  C17 UNL     1      20.870  51.693  11.655  1.00  0.00     0.012 A 
HETATM   12  C21 UNL     1      20.820  50.458   9.562  1.00  0.00    -0.025 A 
HETATM   13  C18 UNL     1      21.736  50.746  12.203  1.00  0.00     0.001 A 
HETATM   14  C19 UNL     1      22.146  49.657  11.440  1.00  0.00     0.001 A 
HETATM   15  C20 UNL     1      21.692  49.513  10.128  1.00  0.00     0.012 A 
HETATM   16  C22 UNL     1      20.352  50.329   8.243  1.00  0.00     0.021 A 
ENDBRANCH   5   7
BRANCH   4  17
HETATM   17  C6  UNL     1      17.621  48.976   6.222  1.00  0.00     0.051 A 
HETATM   18  C7  UNL     1      16.394  48.326   6.015  1.00  0.00     0.031 A 
HETATM   19  C8  UNL     1      16.265  46.938   6.143  1.00  0.00     0.002 A 
HETATM   20  C9  UNL     1      17.367  46.161   6.485  1.00  0.00     0.000 A 
HETATM   21  C10 UNL     1      18.597  46.775   6.694  1.00  0.00     0.002 A 
HETATM   22  C11 UNL     1      18.717  48.163   6.562  1.00  0.00     0.031 A 
ENDBRANCH   4  17
BRANCH   1  23
HETATM   23  C4  UNL     1      16.348  53.461   5.037  1.00  0.00    -0.010 A 
HETATM   24  C3  UNL     1      14.969  53.401   5.274  1.00  0.00     0.015 A 
HETATM   25  C2  UNL     1      14.139  54.456   4.886  1.00  0.00     0.026 A 
HETATM   26  C1  UNL     1      14.680  55.579   4.256  1.00  0.00     0.055 A 
HETATM   27 CL1  UNL     1      13.600  56.848   3.801  1.00  0.00    -0.083 Cl
HETATM   28  C25 UNL     1      16.059  55.642   4.016  1.00  0.00     0.056 A 
HETATM   29  C24 UNL     1      16.891  54.585   4.406  1.00  0.00     0.039 A 
HETATM   30 CL2  UNL     1      16.799  56.997   3.241  1.00  0.00    -0.083 Cl
ENDBRANCH   1  23
TORSDOF 3
ENDMDL
MODEL 3
REMARK minimizedAffinity -7.4639802
REMARK CNNscore 0.762832284
REMARK CNNaffinity 6.41615725
REMARK  3 active torsions:
REMARK  status: ('A' for Active; 'I' for Inactive)
REMARK    1  A    between atoms: C4_5  and  C5_6 
REMARK    2  A    between atoms: N2_9  and  C6_10 
REMARK    3  A    between atoms: C12_16  and  C13_17 
ROOT
HETATM    1  C5  UNL     1      17.151  52.239   5.206  1.00  0.00     0.038 C 
HETATM    2  N1  UNL     1      16.552  51.096   5.335  1.00  0.00    -0.301 N 
ATOM      3  H1  UNL     1      15.544  50.940   5.370  1.00  0.00     0.187 HD
HETATM    4  N2  UNL     1      17.524  50.139   5.418  1.00  0.00    -0.283 N 
HETATM    5  C12 UNL     1      18.877  50.694   5.460  1.00  0.00     0.147 C 
HETATM    6  C23 UNL     1      18.650  52.169   5.118  1.00  0.00     0.091 C 
ENDROOT
BRANCH   5   7
HETATM    7  C13 UNL     1      19.554  50.554   6.817  1.00  0.00    -0.032 A 
HETATM    8  C14 UNL     1      20.418  49.492   7.116  1.00  0.00     0.010 A 
HETATM    9  C15 UNL     1      21.000  49.381   8.380  1.00  0.00     0.013 A 
HETATM   10  C16 UNL     1      20.727  50.322   9.383  1.00  0.00    -0.026 A 
HETATM   11  C17 UNL     1      21.306  50.221  10.658  1.00  0.00     0.012 A 
HETATM   12  C21 UNL     1      19.853  51.394   9.102  1.00  0.00    -0.025 A 
HETATM   13  C18 UNL     1      21.024  51.166  11.646  1.00  0.00     0.001 A 
HETATM   14  C19 UNL     1      20.161  52.222  11.370  1.00  0.00     0.001 A 
HETATM   15  C20 UNL     1      19.579  52.337  10.107  1.00  0.00     0.012 A 
HETATM   16  C22 UNL     1      19.275  51.495   7.824  1.00  0.00     0.021 A 
ENDBRANCH   5   7
BRANCH   4  17
HETATM   17  C6  UNL     1      17.201  48.783   5.348  1.00  0.00     0.051 A 
HETATM   18  C7  UNL     1      17.426  47.897   6.414  1.00  0.00     0.031 A 
HETATM   19  C8  UNL     1      17.093  46.540   6.326  1.00  0.00     0.002 A 
HETATM   20  C9  UNL     1      16.526  46.032   5.163  1.00  0.00     0.000 A 
HETATM   21  C10 UNL     1      16.289  46.884   4.090  1.00  0.00     0.002 A 
HETATM   22  C11 UNL     1      16.622  48.240   4.188  1.00  0.00     0.031 A 
ENDBRANCH   4  17
BRANCH   1  23
HETATM   23  C4  UNL     1      16.418  53.523   5.112  1.00  0.00    -0.010 A 
HETATM   24  C3  UNL     1      15.018  53.506   5.134  1.00  0.00     0.015 A 
HETATM   25  C2  UNL     1      14.295  54.699   5.049  1.00  0.00     0.026 A 
HETATM   26  C1  UNL     1      14.967  55.919   4.938  1.00  0.00     0.055 A 
HETATM   27 CL1  UNL     1      14.015  57.357   4.836  1.00  0.00    -0.083 Cl
HETATM   28  C25 UNL     1      16.367  55.940   4.914  1.00  0.00     0.056 A 
HETATM   29  C24 UNL     1      17.091  54.743   5.001  1.00  0.00     0.039 A 
HETATM   30 CL2  UNL     1      17.266  57.409   4.777  1.00  0.00    -0.083 Cl
ENDBRANCH   1  23
TORSDOF 3
ENDMDL
MODEL 4
REMARK minimizedAffinity -6.98346186
REMARK CNNscore 0.545571923
REMARK CNNaffinity 5.81269836
REMARK  3 active torsions:
REMARK  status: ('A' for Active; 'I' for Inactive)
REMARK    1  A    between atoms: C4_5  and  C5_6 
REMARK    2  A    between atoms: N2_9  and  C6_10 
REMARK    3  A    between atoms: C12_16  and  C13_17 
ROOT
HETATM    1  C5  UNL     1      14.182  59.111   2.160  1.00  0.00     0.038 C 
HETATM    2  N1  UNL     1      14.909  58.325   2.891  1.00  0.00    -0.301 N 
ATOM      3  H1  UNL     1      15.699  58.599   3.475  1.00  0.00     0.187 HD
HETATM    4  N2  UNL     1      14.419  57.059   2.733  1.00  0.00    -0.283 N 
HETATM    5  C12 UNL     1      13.354  56.975   1.732  1.00  0.00     0.147 C 
HETATM    6  C23 UNL     1      13.035  58.446   1.450  1.00  0.00     0.091 C 
ENDROOT
BRANCH   5   7
HETATM    7  C13 UNL     1      13.771  56.261   0.454  1.00  0.00    -0.032 A 
HETATM    8  C14 UNL     1      15.111  56.161   0.056  1.00  0.00     0.010 A 
HETATM    9  C15 UNL     1      15.455  55.522  -1.137  1.00  0.00     0.013 A 
HETATM   10  C16 UNL     1      14.470  54.973  -1.969  1.00  0.00    -0.026 A 
HETATM   11  C17 UNL     1      14.802  54.328  -3.171  1.00  0.00     0.012 A 
HETATM   12  C21 UNL     1      13.113  55.071  -1.588  1.00  0.00    -0.025 A 
HETATM   13  C18 UNL     1      13.809  53.787  -3.989  1.00  0.00     0.001 A 
HETATM   14  C19 UNL     1      12.472  53.884  -3.615  1.00  0.00     0.001 A 
HETATM   15  C20 UNL     1      12.125  54.521  -2.423  1.00  0.00     0.012 A 
HETATM   16  C22 UNL     1      12.781  55.716  -0.383  1.00  0.00     0.021 A 
ENDBRANCH   5   7
BRANCH   4  17
HETATM   17  C6  UNL     1      14.850  56.016   3.553  1.00  0.00     0.051 A 
HETATM   18  C7  UNL     1      16.208  55.705   3.728  1.00  0.00     0.031 A 
HETATM   19  C8  UNL     1      16.622  54.656   4.558  1.00  0.00     0.002 A 
HETATM   20  C9  UNL     1      15.682  53.887   5.236  1.00  0.00     0.000 A 
HETATM   21  C10 UNL     1      14.330  54.172   5.085  1.00  0.00     0.002 A 
HETATM   22  C11 UNL     1      13.925  55.224   4.255  1.00  0.00     0.031 A 
ENDBRANCH   4  17
BRANCH   1  23
HETATM   23  C4  UNL     1      14.431  60.568   2.055  1.00  0.00    -0.010 A 
HETATM   24  C3  UNL     1      15.428  61.023   1.183  1.00  0.00     0.015 A 
HETATM   25  C2  UNL     1      15.688  62.391   1.059  1.00  0.00     0.026 A 
HETATM   26  C1  UNL     1      14.955  63.314   1.808  1.00  0.00     0.055 A 
HETATM   27 CL1  UNL     1      15.326  64.989   1.610  1.00  0.00    -0.083 Cl
HETATM   28  C25 UNL     1      13.959  62.863   2.683  1.00  0.00     0.056 A 
HETATM   29  C24 UNL     1      13.697  61.492   2.805  1.00  0.00     0.039 A 
HETATM   30 CL2  UNL     1      13.013  63.945   3.642  1.00  0.00    -0.083 Cl
ENDBRANCH   1  23
TORSDOF 3
ENDMDL
MODEL 5
REMARK minimizedAffinity -6.55301762
REMARK CNNscore 0.477995396
REMARK CNNaffinity 5.63368368
REMARK  3 active torsions:
REMARK  status: ('A' for Active; 'I' for Inactive)
REMARK    1  A    between atoms: C4_5  and  C5_6 
REMARK    2  A    between atoms: N2_9  and  C6_10 
REMARK    3  A    between atoms: C12_16  and  C13_17 
ROOT
HETATM    1  C5  UNL     1      12.638  53.200  -2.805  1.00  0.00     0.038 C 
HETATM    2  N1  UNL     1      12.769  53.816  -1.671  1.00  0.00    -0.301 N 
ATOM      3  H1  UNL     1      12.683  53.402  -0.743  1.00  0.00     0.187 HD
HETATM    4  N2  UNL     1      13.046  55.124  -1.952  1.00  0.00    -0.283 N 
HETATM    5  C12 UNL     1      12.983  55.432  -3.382  1.00  0.00     0.147 C 
HETATM    6  C23 UNL     1      12.885  54.045  -4.024  1.00  0.00     0.091 C 
ENDROOT
BRANCH   5   7
HETATM    7  C13 UNL     1      11.787  56.290  -3.771  1.00  0.00    -0.032 A 
HETATM    8  C14 UNL     1      10.466  55.874  -3.556  1.00  0.00     0.010 A 
HETATM    9  C15 UNL     1       9.393  56.675  -3.950  1.00  0.00     0.013 A 
HETATM   10  C16 UNL     1       9.609  57.910  -4.577  1.00  0.00    -0.026 A 
HETATM   11  C17 UNL     1       8.539  58.725  -4.978  1.00  0.00     0.012 A 
HETATM   12  C21 UNL     1      10.933  58.342  -4.809  1.00  0.00    -0.025 A 
HETATM   13  C18 UNL     1       8.771  59.952  -5.603  1.00  0.00     0.001 A 
HETATM   14  C19 UNL     1      10.076  60.378  -5.832  1.00  0.00     0.001 A 
HETATM   15  C20 UNL     1      11.151  59.580  -5.439  1.00  0.00     0.012 A 
HETATM   16  C22 UNL     1      12.005  57.526  -4.405  1.00  0.00     0.021 A 
ENDBRANCH   5   7
BRANCH   4  17
HETATM   17  C6  UNL     1      13.453  56.003  -0.947  1.00  0.00     0.051 A 
HETATM   18  C7  UNL     1      14.794  56.125  -0.549  1.00  0.00     0.031 A 
HETATM   19  C8  UNL     1      15.184  57.014   0.459  1.00  0.00     0.002 A 
HETATM   20  C9  UNL     1      14.237  57.806   1.100  1.00  0.00     0.000 A 
HETATM   21  C10 UNL     1      12.901  57.709   0.727  1.00  0.00     0.002 A 
HETATM   22  C11 UNL     1      12.521  56.820  -0.284  1.00  0.00     0.031 A 
ENDBRANCH   4  17
BRANCH   1  23
HETATM   23  C4  UNL     1      12.306  51.759  -2.902  1.00  0.00    -0.010 A 
HETATM   24  C3  UNL     1      11.243  51.363  -3.722  1.00  0.00     0.015 A 
HETATM   25  C2  UNL     1      10.904  50.012  -3.837  1.00  0.00     0.026 A 
HETATM   26  C1  UNL     1      11.626  49.046  -3.131  1.00  0.00     0.055 A 
HETATM   27 CL1  UNL     1      11.156  47.394  -3.316  1.00  0.00    -0.083 Cl
HETATM   28  C25 UNL     1      12.689  49.439  -2.309  1.00  0.00     0.056 A 
HETATM   29  C24 UNL     1      13.029  50.794  -2.194  1.00  0.00     0.039 A 
HETATM   30 CL2  UNL     1      13.624  48.302  -1.404  1.00  0.00    -0.083 Cl
ENDBRANCH   1  23
TORSDOF 3
ENDMDL
MODEL 6
REMARK minimizedAffinity -7.46747637
REMARK CNNscore 0.468481541
REMARK CNNaffinity 5.79086161
REMARK  3 active torsions:
REMARK  status: ('A' for Active; 'I' for Inactive)
REMARK    1  A    between atoms: C4_5  and  C5_6 
REMARK    2  A    between atoms: N2_9  and  C6_10 
REMARK    3  A    between atoms: C12_16  and  C13_17 
ROOT
HETATM    1  C5  UNL     1      13.492  57.194   0.614  1.00  0.00     0.038 C 
HETATM    2  N1  UNL     1      12.342  57.272   0.018  1.00  0.00    -0.301 N 
ATOM      3  H1  UNL     1      11.441  57.454   0.460  1.00  0.00     0.187 HD
HETATM    4  N2  UNL     1      12.565  57.064  -1.314  1.00  0.00    -0.283 N 
HETATM    5  C12 UNL     1      13.952  56.707  -1.618  1.00  0.00     0.147 C 
HETATM    6  C23 UNL     1      14.671  56.980  -0.294  1.00  0.00     0.091 C 
ENDROOT
BRANCH   5   7
HETATM    7  C13 UNL     1      14.132  55.255  -2.038  1.00  0.00    -0.032 A 
HETATM    8  C14 UNL     1      15.332  54.778  -2.583  1.00  0.00     0.010 A 
HETATM    9  C15 UNL     1      15.454  53.446  -2.983  1.00  0.00     0.013 A 
HETATM   10  C16 UNL     1      14.378  52.556  -2.857  1.00  0.00    -0.026 A 
HETATM   11  C17 UNL     1      14.487  51.214  -3.255  1.00  0.00     0.012 A 
HETATM   12  C21 UNL     1      13.159  53.021  -2.317  1.00  0.00    -0.025 A 
HETATM   13  C18 UNL     1      13.406  50.341  -3.124  1.00  0.00     0.001 A 
HETATM   14  C19 UNL     1      12.204  50.799  -2.594  1.00  0.00     0.001 A 
HETATM   15  C20 UNL     1      12.079  52.129  -2.192  1.00  0.00     0.012 A 
HETATM   16  C22 UNL     1      13.051  54.365  -1.918  1.00  0.00     0.021 A 
ENDBRANCH   5   7
BRANCH   4  17
HETATM   17  C6  UNL     1      11.560  57.296  -2.253  1.00  0.00     0.051 A 
HETATM   18  C7  UNL     1      10.430  56.470  -2.370  1.00  0.00     0.031 A 
HETATM   19  C8  UNL     1       9.430  56.720  -3.317  1.00  0.00     0.002 A 
HETATM   20  C9  UNL     1       9.535  57.808  -4.176  1.00  0.00     0.000 A 
HETATM   21  C10 UNL     1      10.641  58.646  -4.084  1.00  0.00     0.002 A 
HETATM   22  C11 UNL     1      11.635  58.390  -3.133  1.00  0.00     0.031 A 
ENDBRANCH   4  17
BRANCH   1  23
HETATM   23  C4  UNL     1      13.646  57.341   2.081  1.00  0.00    -0.010 A 
HETATM   24  C3  UNL     1      13.455  58.603   2.658  1.00  0.00     0.015 A 
HETATM   25  C2  UNL     1      13.592  58.777   4.038  1.00  0.00     0.026 A 
HETATM   26  C1  UNL     1      13.923  57.691   4.852  1.00  0.00     0.055 A 
HETATM   27 CL1  UNL     1      14.077  57.973   6.549  1.00  0.00    -0.083 Cl
HETATM   28  C25 UNL     1      14.116  56.428   4.278  1.00  0.00     0.056 A 
HETATM   29  C24 UNL     1      13.978  56.254   2.894  1.00  0.00     0.039 A 
HETATM   30 CL2  UNL     1      14.529  55.039   5.220  1.00  0.00    -0.083 Cl
ENDBRANCH   1  23
TORSDOF 3
ENDMDL
MODEL 7
REMARK minimizedAffinity -7.89749908
REMARK CNNscore 0.459474146
REMARK CNNaffinity 5.54222059
REMARK  3 active torsions:
REMARK  status: ('A' for Active; 'I' for Inactive)
REMARK    1  A    between atoms: C4_5  and  C5_6 
REMARK    2  A    between atoms: N2_9  and  C6_10 
REMARK    3  A    between atoms: C12_16  and  C13_17 
ROOT
HETATM    1  C5  UNL     1      13.166  57.604   0.533  1.00  0.00     0.038 C 
HETATM    2  N1  UNL     1      13.280  56.593   1.338  1.00  0.00    -0.301 N 
ATOM      3  H1  UNL     1      12.853  55.674   1.222  1.00  0.00     0.187 HD
HETATM    4  N2  UNL     1      14.080  56.990   2.373  1.00  0.00    -0.283 N 
HETATM    5  C12 UNL     1      14.436  58.409   2.314  1.00  0.00     0.147 C 
HETATM    6  C23 UNL     1      13.960  58.821   0.919  1.00  0.00     0.091 C 
ENDROOT
BRANCH   5   7
HETATM    7  C13 UNL     1      13.760  59.254   3.385  1.00  0.00    -0.032 A 
HETATM    8  C14 UNL     1      13.140  60.476   3.091  1.00  0.00     0.010 A 
HETATM    9  C15 UNL     1      12.553  61.239   4.102  1.00  0.00     0.013 A 
HETATM   10  C16 UNL     1      12.577  60.807   5.435  1.00  0.00    -0.026 A 
HETATM   11  C17 UNL     1      11.991  61.564   6.462  1.00  0.00     0.012 A 
HETATM   12  C21 UNL     1      13.205  59.581   5.751  1.00  0.00    -0.025 A 
HETATM   13  C18 UNL     1      12.024  61.120   7.785  1.00  0.00     0.001 A 
HETATM   14  C19 UNL     1      12.644  59.913   8.097  1.00  0.00     0.001 A 
HETATM   15  C20 UNL     1      13.230  59.148   7.088  1.00  0.00     0.012 A 
HETATM   16  C22 UNL     1      13.790  58.823   4.722  1.00  0.00     0.021 A 
ENDBRANCH   5   7
BRANCH   4  17
HETATM   17  C6  UNL     1      14.568  56.065   3.296  1.00  0.00     0.051 A 
HETATM   18  C7  UNL     1      13.724  55.281   4.098  1.00  0.00     0.031 A 
HETATM   19  C8  UNL     1      14.232  54.355   5.018  1.00  0.00     0.002 A 
HETATM   20  C9  UNL     1      15.606  54.192   5.159  1.00  0.00     0.000 A 
HETATM   21  C10 UNL     1      16.469  54.953   4.378  1.00  0.00     0.002 A 
HETATM   22  C11 UNL     1      15.951  55.873   3.460  1.00  0.00     0.031 A 
ENDBRANCH   4  17
BRANCH   1  23
HETATM   23  C4  UNL     1      12.345  57.559  -0.699  1.00  0.00    -0.010 A 
HETATM   24  C3  UNL     1      11.556  56.429  -0.947  1.00  0.00     0.015 A 
HETATM   25  C2  UNL     1      10.769  56.355  -2.099  1.00  0.00     0.026 A 
HETATM   26  C1  UNL     1      10.766  57.410  -3.015  1.00  0.00     0.055 A 
HETATM   27 CL1  UNL     1       9.772  57.256  -4.419  1.00  0.00    -0.083 Cl
HETATM   28  C25 UNL     1      11.555  58.541  -2.772  1.00  0.00     0.056 A 
HETATM   29  C24 UNL     1      12.343  58.616  -1.616  1.00  0.00     0.039 A 
HETATM   30 CL2  UNL     1      11.605  59.883  -3.859  1.00  0.00    -0.083 Cl
ENDBRANCH   1  23
TORSDOF 3
ENDMDL
MODEL 8
REMARK minimizedAffinity -7.0562973
REMARK CNNscore 0.410158098
REMARK CNNaffinity 5.60492563
REMARK  3 active torsions:
REMARK  status: ('A' for Active; 'I' for Inactive)
REMARK    1  A    between atoms: C4_5  and  C5_6 
REMARK    2  A    between atoms: N2_9  and  C6_10 
REMARK    3  A    between atoms: C12_16  and  C13_17 
ROOT
HETATM    1  C5  UNL     1      15.840  54.583   4.548  1.00  0.00     0.038 C 
HETATM    2  N1  UNL     1      16.135  55.124   3.406  1.00  0.00    -0.301 N 
ATOM      3  H1  UNL     1      16.995  54.987   2.874  1.00  0.00     0.187 HD
HETATM    4  N2  UNL     1      15.078  55.914   3.049  1.00  0.00    -0.283 N 
HETATM    5  C12 UNL     1      14.046  55.997   4.084  1.00  0.00     0.147 C 
HETATM    6  C23 UNL     1      14.471  54.911   5.076  1.00  0.00     0.091 C 
ENDROOT
BRANCH   5   7
HETATM    7  C13 UNL     1      13.975  57.354   4.770  1.00  0.00    -0.032 A 
HETATM    8  C14 UNL     1      14.434  57.555   6.078  1.00  0.00     0.010 A 
HETATM    9  C15 UNL     1      14.328  58.807   6.687  1.00  0.00     0.013 A 
HETATM   10  C16 UNL     1      13.753  59.890   6.008  1.00  0.00    -0.026 A 
HETATM   11  C17 UNL     1      13.641  61.155   6.608  1.00  0.00     0.012 A 
HETATM   12  C21 UNL     1      13.278  59.704   4.691  1.00  0.00    -0.025 A 
HETATM   13  C18 UNL     1      13.065  62.223   5.918  1.00  0.00     0.001 A 
HETATM   14  C19 UNL     1      12.595  62.040   4.621  1.00  0.00     0.001 A 
HETATM   15  C20 UNL     1      12.700  60.790   4.010  1.00  0.00     0.012 A 
HETATM   16  C22 UNL     1      13.392  58.438   4.090  1.00  0.00     0.021 A 
ENDBRANCH   5   7
BRANCH   4  17
HETATM   17  C6  UNL     1      14.996  56.465   1.770  1.00  0.00     0.051 A 
HETATM   18  C7  UNL     1      16.072  57.135   1.165  1.00  0.00     0.031 A 
HETATM   19  C8  UNL     1      15.971  57.679  -0.121  1.00  0.00     0.002 A 
HETATM   20  C9  UNL     1      14.784  57.567  -0.837  1.00  0.00     0.000 A 
HETATM   21  C10 UNL     1      13.701  56.908  -0.266  1.00  0.00     0.002 A 
HETATM   22  C11 UNL     1      13.812  56.365   1.019  1.00  0.00     0.031 A 
ENDBRANCH   4  17
BRANCH   1  23
HETATM   23  C4  UNL     1      16.764  53.676   5.268  1.00  0.00    -0.010 A 
HETATM   24  C3  UNL     1      16.580  52.293   5.154  1.00  0.00     0.015 A 
HETATM   25  C2  UNL     1      17.435  51.409   5.820  1.00  0.00     0.026 A 
HETATM   26  C1  UNL     1      18.479  51.902   6.606  1.00  0.00     0.055 A 
HETATM   27 CL1  UNL     1      19.498  50.758   7.402  1.00  0.00    -0.083 Cl
HETATM   28  C25 UNL     1      18.665  53.285   6.723  1.00  0.00     0.056 A 
HETATM   29  C24 UNL     1      17.809  54.171   6.055  1.00  0.00     0.039 A 
HETATM   30 CL2  UNL     1      19.933  53.968   7.678  1.00  0.00    -0.083 Cl
ENDBRANCH   1  23
TORSDOF 3
ENDMDL
MODEL 9
REMARK minimizedAffinity -7.74340248
REMARK CNNscore 0.408382326
REMARK CNNaffinity 5.27929306
REMARK  3 active torsions:
REMARK  status: ('A' for Active; 'I' for Inactive)
REMARK    1  A    between atoms: C4_5  and  C5_6 
REMARK    2  A    between atoms: N2_9  and  C6_10 
REMARK    3  A    between atoms: C12_16  and  C13_17 
ROOT
HETATM    1  C5  UNL     1      13.650  60.232   2.270  1.00  0.00     0.038 C 
HETATM    2  N1  UNL     1      12.862  59.668   1.407  1.00  0.00    -0.301 N 
ATOM      3  H1  UNL     1      11.938  59.997   1.125  1.00  0.00     0.187 HD
HETATM    4  N2  UNL     1      13.501  58.551   0.948  1.00  0.00    -0.283 N 
HETATM    5  C12 UNL     1      14.764  58.284   1.638  1.00  0.00     0.147 C 
HETATM    6  C23 UNL     1      14.986  59.565   2.446  1.00  0.00     0.091 C 
ENDROOT
BRANCH   5   7
HETATM    7  C13 UNL     1      14.715  57.071   2.556  1.00  0.00    -0.032 A 
HETATM    8  C14 UNL     1      13.511  56.574   3.075  1.00  0.00     0.010 A 
HETATM    9  C15 UNL     1      13.506  55.475   3.936  1.00  0.00     0.013 A 
HETATM   10  C16 UNL     1      14.702  54.848   4.309  1.00  0.00    -0.026 A 
HETATM   11  C17 UNL     1      14.711  53.742   5.174  1.00  0.00     0.012 A 
HETATM   12  C21 UNL     1      15.925  55.340   3.802  1.00  0.00    -0.025 A 
HETATM   13  C18 UNL     1      15.912  53.130   5.537  1.00  0.00     0.001 A 
HETATM   14  C19 UNL     1      17.117  53.614   5.039  1.00  0.00     0.001 A 
HETATM   15  C20 UNL     1      17.126  54.712   4.177  1.00  0.00     0.012 A 
HETATM   16  C22 UNL     1      15.916  56.446   2.935  1.00  0.00     0.021 A 
ENDBRANCH   5   7
BRANCH   4  17
HETATM   17  C6  UNL     1      13.006  57.844  -0.149  1.00  0.00     0.051 A 
HETATM   18  C7  UNL     1      12.259  58.456  -1.168  1.00  0.00     0.031 A 
HETATM   19  C8  UNL     1      11.773  57.730  -2.262  1.00  0.00     0.002 A 
HETATM   20  C9  UNL     1      12.023  56.366  -2.364  1.00  0.00     0.000 A 
HETATM   21  C10 UNL     1      12.762  55.731  -1.372  1.00  0.00     0.002 A 
HETATM   22  C11 UNL     1      13.246  56.465  -0.283  1.00  0.00     0.031 A 
ENDBRANCH   4  17
BRANCH   1  23
HETATM   23  C4  UNL     1      13.284  61.465   3.006  1.00  0.00    -0.010 A 
HETATM   24  C3  UNL     1      13.651  62.706   2.472  1.00  0.00     0.015 A 
HETATM   25  C2  UNL     1      13.320  63.888   3.139  1.00  0.00     0.026 A 
HETATM   26  C1  UNL     1      12.621  63.839   4.348  1.00  0.00     0.055 A 
HETATM   27 CL1  UNL     1      12.244  65.336   5.123  1.00  0.00    -0.083 Cl
HETATM   28  C25 UNL     1      12.255  62.599   4.886  1.00  0.00     0.056 A 
HETATM   29  C24 UNL     1      12.585  61.414   4.216  1.00  0.00     0.039 A 
HETATM   30 CL2  UNL     1      11.392  62.459   6.377  1.00  0.00    -0.083 Cl
ENDBRANCH   1  23
TORSDOF 3
ENDMDL
