MODEL 1
REMARK minimizedAffinity -9.3945322
REMARK  1 active torsions:
REMARK  status: ('A' for Active; 'I' for Inactive)
REMARK    1  A    between atoms: C2_2  and  C3_3 
REMARK       I    between atoms: C3_3  and  N1_5 
ROOT
HETATM    1  C3  UNL     1      -7.105   7.288  14.542  1.00  0.00     0.247 C 
HETATM    2  O1  UNL     1      -7.842   6.595  13.842  1.00  0.00    -0.268 OA
HETATM    3  N1  UNL     1      -5.777   6.957  14.835  1.00  0.00    -0.315 N 
HETATM    4  C4  UNL     1      -5.389   5.567  14.567  1.00  0.00     0.132 C 
HETATM    5  C5  UNL     1      -4.696   5.394  13.211  1.00  0.00     0.020 C 
HETATM    6  C6  UNL     1      -4.566   3.913  12.842  1.00  0.00     0.002 C 
HETATM    7  C7  UNL     1      -3.641   3.668  11.644  1.00  0.00     0.000 C 
HETATM    8  C8  UNL     1      -2.168   3.803  12.033  1.00  0.00     0.002 C 
HETATM    9  C9  UNL     1      -1.220   3.531  10.861  1.00  0.00     0.020 C 
HETATM   10  C10 UNL     1       0.249   3.480  11.297  1.00  0.00     0.128 C 
HETATM   11  N2  UNL     1       0.753   4.749  11.796  1.00  0.00    -0.355 N 
HETATM   12  C11 UNL     1       0.655   5.143  13.106  1.00  0.00     0.106 A 
HETATM   13  C12 UNL     1       1.144   6.428  13.209  1.00  0.00     0.019 A 
HETATM   14  C13 UNL     1       1.627   6.802  11.918  1.00  0.00     0.005 A 
HETATM   15  C14 UNL     1       2.231   7.967  11.394  1.00  0.00     0.014 A 
HETATM   16  C15 UNL     1       2.580   8.021  10.041  1.00  0.00     0.001 A 
HETATM   17  C16 UNL     1       2.326   6.940   9.203  1.00  0.00     0.002 A 
HETATM   18  C17 UNL     1       1.716   5.781   9.689  1.00  0.00     0.030 A 
HETATM   19  C18 UNL     1       1.375   5.730  11.050  1.00  0.00     0.045 A 
HETATM   20  C19 UNL     1       1.098   7.171  14.453  1.00  0.00     0.048 A 
HETATM   21  C20 UNL     1       2.237   7.730  14.983  1.00  0.00     0.047 A 
HETATM   22  C21 UNL     1       2.060   8.399  16.166  1.00  0.00     0.093 A 
HETATM   23  N3  UNL     1       0.866   8.531  16.776  1.00  0.00    -0.342 N 
ATOM     24  H3  UNL     1       0.769   9.040  17.654  1.00  0.00     0.167 HD
HETATM   25  C22 UNL     1      -0.192   7.961  16.175  1.00  0.00     0.162 A 
HETATM   26  N4  UNL     1      -0.115   7.267  15.033  1.00  0.00    -0.332 N 
ATOM     27  H4  UNL     1      -0.938   6.830  14.619  1.00  0.00     0.168 HD
HETATM   28  N5  UNL     1      -1.434   8.166  16.805  1.00  0.00    -0.230 NA
HETATM   29  C23 UNL     1      -2.581   8.534  16.061  1.00  0.00     0.017 A 
HETATM   30  C24 UNL     1      -2.694   9.816  15.514  1.00  0.00     0.024 A 
HETATM   31  C25 UNL     1      -3.806  10.155  14.751  1.00  0.00     0.004 A 
HETATM   32  C26 UNL     1      -4.815   9.214  14.532  1.00  0.00     0.030 A 
HETATM   33  C27 UNL     1      -4.737   7.921  15.076  1.00  0.00     0.039 A 
HETATM   34  C28 UNL     1      -3.591   7.590  15.817  1.00  0.00     0.053 A 
HETATM   35  H25 UNL     1      -1.198   8.893  17.475  1.00  0.00     0.136 HD
ENDROOT
BRANCH   1  36
HETATM   36  C2  UNL     1      -7.660   8.480  15.253  1.00  0.00     0.064 C 
HETATM   37  C1  UNL     1      -8.966   8.771  15.188  1.00  0.00     0.017 C 
ENDBRANCH   1  36
TORSDOF 1
ENDMDL
MODEL 2
REMARK minimizedAffinity -8.88746071
REMARK  1 active torsions:
REMARK  status: ('A' for Active; 'I' for Inactive)
REMARK    1  A    between atoms: C2_2  and  C3_3 
REMARK       I    between atoms: C3_3  and  N1_5 
ROOT
HETATM    1  C3  UNL     1      -3.866   5.008  12.648  1.00  0.00     0.247 C 
HETATM    2  O1  UNL     1      -5.005   4.865  13.093  1.00  0.00    -0.268 OA
HETATM    3  N1  UNL     1      -3.154   6.212  12.711  1.00  0.00    -0.315 N 
HETATM    4  C4  UNL     1      -3.946   7.410  13.014  1.00  0.00     0.132 C 
HETATM    5  C5  UNL     1      -3.905   7.791  14.497  1.00  0.00     0.020 C 
HETATM    6  C6  UNL     1      -4.956   8.856  14.824  1.00  0.00     0.002 C 
HETATM    7  C7  UNL     1      -4.777   9.474  16.215  1.00  0.00     0.000 C 
HETATM    8  C8  UNL     1      -3.615  10.468  16.244  1.00  0.00     0.002 C 
HETATM    9  C9  UNL     1      -3.435  11.127  17.616  1.00  0.00     0.020 C 
HETATM   10  C10 UNL     1      -2.397  12.256  17.592  1.00  0.00     0.128 C 
HETATM   11  N2  UNL     1      -1.048  11.801  17.302  1.00  0.00    -0.355 N 
HETATM   12  C11 UNL     1      -0.545  11.672  16.033  1.00  0.00     0.106 A 
HETATM   13  C12 UNL     1       0.720  11.129  16.121  1.00  0.00     0.019 A 
HETATM   14  C13 UNL     1       1.026  10.993  17.510  1.00  0.00     0.005 A 
HETATM   15  C14 UNL     1       2.144  10.512  18.227  1.00  0.00     0.014 A 
HETATM   16  C15 UNL     1       2.118  10.495  19.625  1.00  0.00     0.001 A 
HETATM   17  C16 UNL     1       0.995  10.937  20.316  1.00  0.00     0.002 A 
HETATM   18  C17 UNL     1      -0.132  11.403  19.634  1.00  0.00     0.030 A 
HETATM   19  C18 UNL     1      -0.097  11.424  18.230  1.00  0.00     0.045 A 
HETATM   20  C19 UNL     1       1.492  10.782  14.944  1.00  0.00     0.048 A 
HETATM   21  C20 UNL     1       2.764  11.270  14.766  1.00  0.00     0.047 A 
HETATM   22  C21 UNL     1       3.383  10.873  13.609  1.00  0.00     0.093 A 
HETATM   23  N3  UNL     1       2.816  10.050  12.706  1.00  0.00    -0.342 N 
ATOM     24  H3  UNL     1       3.307   9.770  11.857  1.00  0.00     0.167 HD
HETATM   25  C22 UNL     1       1.574   9.615  12.974  1.00  0.00     0.162 A 
HETATM   26  N4  UNL     1       0.880   9.966  14.063  1.00  0.00    -0.332 N 
ATOM     27  H4  UNL     1      -0.071   9.632  14.220  1.00  0.00     0.168 HD
HETATM   28  N5  UNL     1       1.031   8.710  12.041  1.00  0.00    -0.230 NA
HETATM   29  C23 UNL     1       0.367   7.533  12.463  1.00  0.00     0.017 A 
HETATM   30  C24 UNL     1       1.087   6.468  13.013  1.00  0.00     0.024 A 
HETATM   31  C25 UNL     1       0.421   5.332  13.462  1.00  0.00     0.004 A 
HETATM   32  C26 UNL     1      -0.970   5.253  13.359  1.00  0.00     0.030 A 
HETATM   33  C27 UNL     1      -1.721   6.301  12.801  1.00  0.00     0.039 A 
HETATM   34  C28 UNL     1      -1.032   7.450  12.384  1.00  0.00     0.053 A 
HETATM   35  H25 UNL     1       1.854   8.476  11.491  1.00  0.00     0.136 HD
ENDROOT
BRANCH   1  36
HETATM   36  C2  UNL     1      -3.230   3.905  11.866  1.00  0.00     0.064 C 
HETATM   37  C1  UNL     1      -3.678   3.581  10.646  1.00  0.00     0.017 C 
ENDBRANCH   1  36
TORSDOF 1
ENDMDL
MODEL 3
REMARK minimizedAffinity -8.75634193
REMARK  1 active torsions:
REMARK  status: ('A' for Active; 'I' for Inactive)
REMARK    1  A    between atoms: C2_2  and  C3_3 
REMARK       I    between atoms: C3_3  and  N1_5 
ROOT
HETATM    1  C3  UNL     1      -1.024  10.910  17.589  1.00  0.00     0.247 C 
HETATM    2  O1  UNL     1      -2.249  10.805  17.537  1.00  0.00    -0.268 OA
HETATM    3  N1  UNL     1      -0.141   9.984  17.022  1.00  0.00    -0.315 N 
HETATM    4  C4  UNL     1      -0.720   8.684  16.662  1.00  0.00     0.132 C 
HETATM    5  C5  UNL     1      -1.106   8.594  15.182  1.00  0.00     0.020 C 
HETATM    6  C6  UNL     1      -1.959   7.351  14.908  1.00  0.00     0.002 C 
HETATM    7  C7  UNL     1      -2.138   7.060  13.414  1.00  0.00     0.000 C 
HETATM    8  C8  UNL     1      -0.874   6.451  12.803  1.00  0.00     0.002 C 
HETATM    9  C9  UNL     1      -1.037   6.118  11.317  1.00  0.00     0.020 C 
HETATM   10  C10 UNL     1       0.158   5.337  10.757  1.00  0.00     0.128 C 
HETATM   11  N2  UNL     1       1.400   6.093  10.757  1.00  0.00    -0.355 N 
HETATM   12  C11 UNL     1       2.264   6.135  11.820  1.00  0.00     0.106 A 
HETATM   13  C12 UNL     1       3.282   7.015  11.517  1.00  0.00     0.019 A 
HETATM   14  C13 UNL     1       3.062   7.471  10.182  1.00  0.00     0.005 A 
HETATM   15  C14 UNL     1       3.744   8.362   9.324  1.00  0.00     0.014 A 
HETATM   16  C15 UNL     1       3.243   8.615   8.043  1.00  0.00     0.001 A 
HETATM   17  C16 UNL     1       2.071   8.004   7.610  1.00  0.00     0.002 A 
HETATM   18  C17 UNL     1       1.366   7.131   8.443  1.00  0.00     0.030 A 
HETATM   19  C18 UNL     1       1.879   6.876   9.725  1.00  0.00     0.045 A 
HETATM   20  C19 UNL     1       4.317   7.354  12.474  1.00  0.00     0.048 A 
HETATM   21  C20 UNL     1       5.646   7.217  12.154  1.00  0.00     0.047 A 
HETATM   22  C21 UNL     1       6.523   7.563  13.149  1.00  0.00     0.093 A 
HETATM   23  N3  UNL     1       6.138   8.025  14.354  1.00  0.00    -0.342 N 
ATOM     24  H3  UNL     1       6.818   8.278  15.070  1.00  0.00     0.167 HD
HETATM   25  C22 UNL     1       4.816   8.136  14.570  1.00  0.00     0.162 A 
HETATM   26  N4  UNL     1       3.884   7.800  13.671  1.00  0.00    -0.332 N 
ATOM     27  H4  UNL     1       2.889   7.878  13.881  1.00  0.00     0.168 HD
HETATM   28  N5  UNL     1       4.446   8.676  15.817  1.00  0.00    -0.230 NA
HETATM   29  C23 UNL     1       3.449   9.676  15.915  1.00  0.00     0.017 A 
HETATM   30  C24 UNL     1       3.700  10.979  15.472  1.00  0.00     0.024 A 
HETATM   31  C25 UNL     1       2.700  11.943  15.536  1.00  0.00     0.004 A 
HETATM   32  C26 UNL     1       1.443  11.612  16.046  1.00  0.00     0.030 A 
HETATM   33  C27 UNL     1       1.162  10.316  16.508  1.00  0.00     0.039 A 
HETATM   34  C28 UNL     1       2.175   9.349  16.406  1.00  0.00     0.053 A 
HETATM   35  H25 UNL     1       5.339   9.031  16.150  1.00  0.00     0.136 HD
ENDROOT
BRANCH   1  36
HETATM   36  C2  UNL     1      -0.405  11.994  18.411  1.00  0.00     0.064 C 
HETATM   37  C1  UNL     1       0.081  11.736  19.632  1.00  0.00     0.017 C 
ENDBRANCH   1  36
TORSDOF 1
ENDMDL
MODEL 4
REMARK minimizedAffinity -8.75022507
REMARK  1 active torsions:
REMARK  status: ('A' for Active; 'I' for Inactive)
REMARK    1  A    between atoms: C2_2  and  C3_3 
REMARK       I    between atoms: C3_3  and  N1_5 
ROOT
HETATM    1  C3  UNL     1      -3.410   6.056  14.782  1.00  0.00     0.247 C 
HETATM    2  O1  UNL     1      -3.727   6.307  15.944  1.00  0.00    -0.268 OA
HETATM    3  N1  UNL     1      -2.498   6.820  14.044  1.00  0.00    -0.315 N 
HETATM    4  C4  UNL     1      -2.188   8.149  14.586  1.00  0.00     0.132 C 
HETATM    5  C5  UNL     1      -0.899   8.168  15.414  1.00  0.00     0.020 C 
HETATM    6  C6  UNL     1      -0.762   9.481  16.191  1.00  0.00     0.002 C 
HETATM    7  C7  UNL     1       0.627   9.674  16.810  1.00  0.00     0.000 C 
HETATM    8  C8  UNL     1       1.663  10.073  15.757  1.00  0.00     0.002 C 
HETATM    9  C9  UNL     1       3.054  10.304  16.354  1.00  0.00     0.020 C 
HETATM   10  C10 UNL     1       4.040  10.885  15.333  1.00  0.00     0.128 C 
HETATM   11  N2  UNL     1       4.336   9.985  14.231  1.00  0.00    -0.355 N 
HETATM   12  C11 UNL     1       3.594   9.921  13.080  1.00  0.00     0.106 A 
HETATM   13  C12 UNL     1       4.094   8.901  12.298  1.00  0.00     0.019 A 
HETATM   14  C13 UNL     1       5.236   8.371  12.973  1.00  0.00     0.005 A 
HETATM   15  C14 UNL     1       6.155   7.338  12.685  1.00  0.00     0.014 A 
HETATM   16  C15 UNL     1       7.182   7.049  13.590  1.00  0.00     0.001 A 
HETATM   17  C16 UNL     1       7.298   7.764  14.777  1.00  0.00     0.002 A 
HETATM   18  C17 UNL     1       6.394   8.780  15.097  1.00  0.00     0.030 A 
HETATM   19  C18 UNL     1       5.370   9.070  14.180  1.00  0.00     0.045 A 
HETATM   20  C19 UNL     1       3.470   8.514  11.048  1.00  0.00     0.048 A 
HETATM   21  C20 UNL     1       4.198   8.460   9.884  1.00  0.00     0.047 A 
HETATM   22  C21 UNL     1       3.490   8.088   8.771  1.00  0.00     0.093 A 
HETATM   23  N3  UNL     1       2.180   7.774   8.792  1.00  0.00    -0.342 N 
ATOM     24  H3  UNL     1       1.684   7.496   7.946  1.00  0.00     0.167 HD
HETATM   25  C22 UNL     1       1.556   7.844   9.980  1.00  0.00     0.162 A 
HETATM   26  N4  UNL     1       2.156   8.220  11.116  1.00  0.00    -0.332 N 
ATOM     27  H4  UNL     1       1.642   8.282  11.995  1.00  0.00     0.168 HD
HETATM   28  N5  UNL     1       0.203   7.453   9.981  1.00  0.00    -0.230 NA
HETATM   29  C23 UNL     1      -0.311   6.595  10.983  1.00  0.00     0.017 A 
HETATM   30  C24 UNL     1       0.037   5.241  11.007  1.00  0.00     0.024 A 
HETATM   31  C25 UNL     1      -0.441   4.415  12.019  1.00  0.00     0.004 A 
HETATM   32  C26 UNL     1      -1.273   4.937  13.011  1.00  0.00     0.030 A 
HETATM   33  C27 UNL     1      -1.649   6.290  13.010  1.00  0.00     0.039 A 
HETATM   34  C28 UNL     1      -1.130   7.114  11.998  1.00  0.00     0.053 A 
HETATM   35  H25 UNL     1       0.123   7.019   9.066  1.00  0.00     0.136 HD
ENDROOT
BRANCH   1  36
HETATM   36  C2  UNL     1      -4.120   4.973  14.035  1.00  0.00     0.064 C 
HETATM   37  C1  UNL     1      -5.178   5.252  13.262  1.00  0.00     0.017 C 
ENDBRANCH   1  36
TORSDOF 1
ENDMDL
MODEL 5
REMARK minimizedAffinity -8.59008789
REMARK  1 active torsions:
REMARK  status: ('A' for Active; 'I' for Inactive)
REMARK    1  A    between atoms: C2_2  and  C3_3 
REMARK       I    between atoms: C3_3  and  N1_5 
ROOT
HETATM    1  C3  UNL     1      18.971  -3.620  10.283  1.00  0.00     0.247 C 
HETATM    2  O1  UNL     1      19.899  -2.819  10.168  1.00  0.00    -0.268 OA
HETATM    3  N1  UNL     1      17.715  -3.442   9.691  1.00  0.00    -0.315 N 
HETATM    4  C4  UNL     1      17.418  -2.087   9.211  1.00  0.00     0.132 C 
HETATM    5  C5  UNL     1      17.687  -1.915   7.712  1.00  0.00     0.020 C 
HETATM    6  C6  UNL     1      17.644  -0.438   7.309  1.00  0.00     0.002 C 
HETATM    7  C7  UNL     1      17.627  -0.227   5.791  1.00  0.00     0.000 C 
HETATM    8  C8  UNL     1      16.251  -0.532   5.196  1.00  0.00     0.002 C 
HETATM    9  C9  UNL     1      16.195  -0.297   3.683  1.00  0.00     0.020 C 
HETATM   10  C10 UNL     1      14.773  -0.420   3.123  1.00  0.00     0.128 C 
HETATM   11  N2  UNL     1      14.216  -1.758   3.236  1.00  0.00    -0.355 N 
HETATM   12  C11 UNL     1      13.535  -2.208   4.337  1.00  0.00     0.106 A 
HETATM   13  C12 UNL     1      13.235  -3.540   4.147  1.00  0.00     0.019 A 
HETATM   14  C13 UNL     1      13.689  -3.893   2.839  1.00  0.00     0.005 A 
HETATM   15  C14 UNL     1      13.669  -5.084   2.081  1.00  0.00     0.014 A 
HETATM   16  C15 UNL     1      14.230  -5.103   0.801  1.00  0.00     0.001 A 
HETATM   17  C16 UNL     1      14.820  -3.960   0.271  1.00  0.00     0.002 A 
HETATM   18  C17 UNL     1      14.870  -2.771   1.004  1.00  0.00     0.030 A 
HETATM   19  C18 UNL     1      14.297  -2.757   2.287  1.00  0.00     0.045 A 
HETATM   20  C19 UNL     1      12.593  -4.338   5.172  1.00  0.00     0.048 A 
HETATM   21  C20 UNL     1      11.440  -5.037   4.904  1.00  0.00     0.047 A 
HETATM   22  C21 UNL     1      10.930  -5.745   5.960  1.00  0.00     0.093 A 
HETATM   23  N3  UNL     1      11.505  -5.787   7.177  1.00  0.00    -0.342 N 
ATOM     24  H3  UNL     1      11.101  -6.328   7.941  1.00  0.00     0.167 HD
HETATM   25  C22 UNL     1      12.637  -5.080   7.340  1.00  0.00     0.162 A 
HETATM   26  N4  UNL     1      13.198  -4.340   6.377  1.00  0.00    -0.332 N 
ATOM     27  H4  UNL     1      14.046  -3.799   6.547  1.00  0.00     0.168 HD
HETATM   28  N5  UNL     1      13.247  -5.190   8.605  1.00  0.00    -0.230 NA
HETATM   29  C23 UNL     1      14.641  -5.400   8.730  1.00  0.00     0.017 A 
HETATM   30  C24 UNL     1      15.209  -6.633   8.396  1.00  0.00     0.024 A 
HETATM   31  C25 UNL     1      16.585  -6.816   8.484  1.00  0.00     0.004 A 
HETATM   32  C26 UNL     1      17.402  -5.767   8.911  1.00  0.00     0.030 A 
HETATM   33  C27 UNL     1      16.862  -4.519   9.264  1.00  0.00     0.039 A 
HETATM   34  C28 UNL     1      15.475  -4.346   9.137  1.00  0.00     0.053 A 
HETATM   35  H25 UNL     1      12.733  -5.972   9.004  1.00  0.00     0.136 HD
ENDROOT
BRANCH   1  36
HETATM   36  C2  UNL     1      19.104  -4.784  11.211  1.00  0.00     0.064 C 
HETATM   37  C1  UNL     1      18.815  -4.662  12.512  1.00  0.00     0.017 C 
ENDBRANCH   1  36
TORSDOF 1
ENDMDL
MODEL 6
REMARK minimizedAffinity -8.31260586
REMARK  1 active torsions:
REMARK  status: ('A' for Active; 'I' for Inactive)
REMARK    1  A    between atoms: C2_2  and  C3_3 
REMARK       I    between atoms: C3_3  and  N1_5 
ROOT
HETATM    1  C3  UNL     1      -0.981   4.743  11.719  1.00  0.00     0.247 C 
HETATM    2  O1  UNL     1      -0.117   4.540  10.867  1.00  0.00    -0.268 OA
HETATM    3  N1  UNL     1      -0.778   5.528  12.859  1.00  0.00    -0.315 N 
HETATM    4  C4  UNL     1       0.621   5.821  13.194  1.00  0.00     0.132 C 
HETATM    5  C5  UNL     1       1.081   7.189  12.680  1.00  0.00     0.020 C 
HETATM    6  C6  UNL     1       2.602   7.339  12.791  1.00  0.00     0.002 C 
HETATM    7  C7  UNL     1       3.086   8.774  12.557  1.00  0.00     0.000 C 
HETATM    8  C8  UNL     1       2.809   9.666  13.768  1.00  0.00     0.002 C 
HETATM    9  C9  UNL     1       3.314  11.100  13.574  1.00  0.00     0.020 C 
HETATM   10  C10 UNL     1       3.206  11.937  14.855  1.00  0.00     0.128 C 
HETATM   11  N2  UNL     1       1.838  12.161  15.291  1.00  0.00    -0.355 N 
HETATM   12  C11 UNL     1       1.152  11.303  16.112  1.00  0.00     0.106 A 
HETATM   13  C12 UNL     1      -0.139  11.770  16.244  1.00  0.00     0.019 A 
HETATM   14  C13 UNL     1      -0.217  13.005  15.531  1.00  0.00     0.005 A 
HETATM   15  C14 UNL     1      -1.248  13.943  15.300  1.00  0.00     0.014 A 
HETATM   16  C15 UNL     1      -0.997  15.075  14.519  1.00  0.00     0.001 A 
HETATM   17  C16 UNL     1       0.259  15.280  13.957  1.00  0.00     0.002 A 
HETATM   18  C17 UNL     1       1.294  14.362  14.154  1.00  0.00     0.030 A 
HETATM   19  C18 UNL     1       1.036  13.231  14.946  1.00  0.00     0.045 A 
HETATM   20  C19 UNL     1      -1.151  11.037  16.979  1.00  0.00     0.048 A 
HETATM   21  C20 UNL     1      -1.860  11.637  17.992  1.00  0.00     0.047 A 
HETATM   22  C21 UNL     1      -2.781  10.834  18.613  1.00  0.00     0.093 A 
HETATM   23  N3  UNL     1      -3.008   9.553  18.263  1.00  0.00    -0.342 N 
ATOM     24  H3  UNL     1      -3.705   8.985  18.743  1.00  0.00     0.167 HD
HETATM   25  C22 UNL     1      -2.274   9.058  17.252  1.00  0.00     0.162 A 
HETATM   26  N4  UNL     1      -1.335   9.756  16.602  1.00  0.00    -0.332 N 
ATOM     27  H4  UNL     1      -0.783   9.337  15.854  1.00  0.00     0.168 HD
HETATM   28  N5  UNL     1      -2.575   7.736  16.871  1.00  0.00    -0.230 NA
HETATM   29  C23 UNL     1      -2.716   7.381  15.508  1.00  0.00     0.017 A 
HETATM   30  C24 UNL     1      -3.829   7.801  14.773  1.00  0.00     0.024 A 
HETATM   31  C25 UNL     1      -3.937   7.481  13.425  1.00  0.00     0.004 A 
HETATM   32  C26 UNL     1      -2.935   6.734  12.802  1.00  0.00     0.030 A 
HETATM   33  C27 UNL     1      -1.809   6.288  13.514  1.00  0.00     0.039 A 
HETATM   34  C28 UNL     1      -1.704   6.648  14.866  1.00  0.00     0.053 A 
HETATM   35  H25 UNL     1      -3.447   7.581  17.370  1.00  0.00     0.136 HD
ENDROOT
BRANCH   1  36
HETATM   36  C2  UNL     1      -2.285   4.016  11.642  1.00  0.00     0.064 C 
HETATM   37  C1  UNL     1      -2.766   3.592  10.466  1.00  0.00     0.017 C 
ENDBRANCH   1  36
TORSDOF 1
ENDMDL
MODEL 7
REMARK minimizedAffinity -8.30679989
REMARK  1 active torsions:
REMARK  status: ('A' for Active; 'I' for Inactive)
REMARK    1  A    between atoms: C2_2  and  C3_3 
REMARK       I    between atoms: C3_3  and  N1_5 
ROOT
HETATM    1  C3  UNL     1       2.269  12.007  17.780  1.00  0.00     0.247 C 
HETATM    2  O1  UNL     1       1.109  12.237  18.120  1.00  0.00    -0.268 OA
HETATM    3  N1  UNL     1       2.660  10.859  17.082  1.00  0.00    -0.315 N 
HETATM    4  C4  UNL     1       1.693   9.754  17.072  1.00  0.00     0.132 C 
HETATM    5  C5  UNL     1       0.835   9.727  15.804  1.00  0.00     0.020 C 
HETATM    6  C6  UNL     1      -0.340   8.754  15.952  1.00  0.00     0.002 C 
HETATM    7  C7  UNL     1      -1.064   8.476  14.630  1.00  0.00     0.000 C 
HETATM    8  C8  UNL     1      -0.262   7.528  13.737  1.00  0.00     0.002 C 
HETATM    9  C9  UNL     1      -0.979   7.206  12.422  1.00  0.00     0.020 C 
HETATM   10  C10 UNL     1      -0.265   6.113  11.618  1.00  0.00     0.128 C 
HETATM   11  N2  UNL     1       1.054   6.504  11.149  1.00  0.00    -0.355 N 
HETATM   12  C11 UNL     1       2.201   6.341  11.882  1.00  0.00     0.106 A 
HETATM   13  C12 UNL     1       3.248   6.903  11.180  1.00  0.00     0.019 A 
HETATM   14  C13 UNL     1       2.723   7.360   9.933  1.00  0.00     0.005 A 
HETATM   15  C14 UNL     1       3.284   8.005   8.808  1.00  0.00     0.014 A 
HETATM   16  C15 UNL     1       2.470   8.344   7.723  1.00  0.00     0.001 A 
HETATM   17  C16 UNL     1       1.109   8.062   7.746  1.00  0.00     0.002 A 
HETATM   18  C17 UNL     1       0.522   7.439   8.851  1.00  0.00     0.030 A 
HETATM   19  C18 UNL     1       1.347   7.094   9.935  1.00  0.00     0.045 A 
HETATM   20  C19 UNL     1       4.588   6.977  11.727  1.00  0.00     0.048 A 
HETATM   21  C20 UNL     1       5.662   6.475  11.031  1.00  0.00     0.047 A 
HETATM   22  C21 UNL     1       6.873   6.601  11.661  1.00  0.00     0.093 A 
HETATM   23  N3  UNL     1       7.030   7.187  12.863  1.00  0.00    -0.342 N 
ATOM     24  H3  UNL     1       7.947   7.268  13.301  1.00  0.00     0.167 HD
HETATM   25  C22 UNL     1       5.923   7.659  13.460  1.00  0.00     0.162 A 
HETATM   26  N4  UNL     1       4.695   7.561  12.937  1.00  0.00    -0.332 N 
ATOM     27  H4  UNL     1       3.875   7.913  13.432  1.00  0.00     0.168 HD
HETATM   28  N5  UNL     1       6.127   8.318  14.688  1.00  0.00    -0.230 NA
HETATM   29  C23 UNL     1       5.496   9.553  14.970  1.00  0.00     0.017 A 
HETATM   30  C24 UNL     1       5.902  10.725  14.322  1.00  0.00     0.024 A 
HETATM   31  C25 UNL     1       5.249  11.926  14.576  1.00  0.00     0.004 A 
HETATM   32  C26 UNL     1       4.187  11.964  15.483  1.00  0.00     0.030 A 
HETATM   33  C27 UNL     1       3.762  10.808  16.158  1.00  0.00     0.039 A 
HETATM   34  C28 UNL     1       4.414   9.601  15.864  1.00  0.00     0.053 A 
HETATM   35  H25 UNL     1       7.138   8.427  14.688  1.00  0.00     0.136 HD
ENDROOT
BRANCH   1  36
HETATM   36  C2  UNL     1       3.371  12.907  18.240  1.00  0.00     0.064 C 
HETATM   37  C1  UNL     1       3.461  13.280  19.523  1.00  0.00     0.017 C 
ENDBRANCH   1  36
TORSDOF 1
ENDMDL
MODEL 8
REMARK minimizedAffinity -7.89607239
REMARK  1 active torsions:
REMARK  status: ('A' for Active; 'I' for Inactive)
REMARK    1  A    between atoms: C2_2  and  C3_3 
REMARK       I    between atoms: C3_3  and  N1_5 
ROOT
HETATM    1  C3  UNL     1      -4.587 -11.592   1.915  1.00  0.00     0.247 C 
HETATM    2  O1  UNL     1      -5.418 -11.576   1.007  1.00  0.00    -0.268 OA
HETATM    3  N1  UNL     1      -4.716 -10.855   3.098  1.00  0.00    -0.315 N 
HETATM    4  C4  UNL     1      -5.712  -9.777   3.076  1.00  0.00     0.132 C 
HETATM    5  C5  UNL     1      -7.055 -10.195   3.682  1.00  0.00     0.020 C 
HETATM    6  C6  UNL     1      -8.143  -9.158   3.386  1.00  0.00     0.002 C 
HETATM    7  C7  UNL     1      -9.425  -9.380   4.195  1.00  0.00     0.000 C 
HETATM    8  C8  UNL     1      -9.257  -8.936   5.650  1.00  0.00     0.002 C 
HETATM    9  C9  UNL     1     -10.536  -9.115   6.474  1.00  0.00     0.020 C 
HETATM   10  C10 UNL     1     -10.423  -8.496   7.872  1.00  0.00     0.128 C 
HETATM   11  N2  UNL     1      -9.432  -9.143   8.717  1.00  0.00    -0.355 N 
HETATM   12  C11 UNL     1      -8.108  -8.788   8.744  1.00  0.00     0.106 A 
HETATM   13  C12 UNL     1      -7.442  -9.663   9.576  1.00  0.00     0.019 A 
HETATM   14  C13 UNL     1      -8.420 -10.541  10.136  1.00  0.00     0.005 A 
HETATM   15  C14 UNL     1      -8.363 -11.625  11.041  1.00  0.00     0.014 A 
HETATM   16  C15 UNL     1      -9.535 -12.308  11.381  1.00  0.00     0.001 A 
HETATM   17  C16 UNL     1     -10.755 -11.936  10.827  1.00  0.00     0.002 A 
HETATM   18  C17 UNL     1     -10.840 -10.878   9.917  1.00  0.00     0.030 A 
HETATM   19  C18 UNL     1      -9.660 -10.192   9.586  1.00  0.00     0.045 A 
HETATM   20  C19 UNL     1      -6.004  -9.615   9.751  1.00  0.00     0.048 A 
HETATM   21  C20 UNL     1      -5.448  -9.518  11.004  1.00  0.00     0.047 A 
HETATM   22  C21 UNL     1      -4.079  -9.473  11.032  1.00  0.00     0.093 A 
HETATM   23  N3  UNL     1      -3.309  -9.536   9.928  1.00  0.00    -0.342 N 
ATOM     24  H3  UNL     1      -2.291  -9.505   9.986  1.00  0.00     0.167 HD
HETATM   25  C22 UNL     1      -3.943  -9.642   8.749  1.00  0.00     0.162 A 
HETATM   26  N4  UNL     1      -5.275  -9.669   8.618  1.00  0.00    -0.332 N 
ATOM     27  H4  UNL     1      -5.719  -9.728   7.702  1.00  0.00     0.168 HD
HETATM   28  N5  UNL     1      -3.111  -9.766   7.619  1.00  0.00    -0.230 NA
HETATM   29  C23 UNL     1      -3.374 -10.731   6.618  1.00  0.00     0.017 A 
HETATM   30  C24 UNL     1      -3.166 -12.091   6.867  1.00  0.00     0.024 A 
HETATM   31  C25 UNL     1      -3.465 -13.035   5.891  1.00  0.00     0.004 A 
HETATM   32  C26 UNL     1      -3.972 -12.624   4.656  1.00  0.00     0.030 A 
HETATM   33  C27 UNL     1      -4.183 -11.265   4.370  1.00  0.00     0.039 A 
HETATM   34  C28 UNL     1      -3.904 -10.332   5.380  1.00  0.00     0.053 A 
HETATM   35  H25 UNL     1      -2.210  -9.944   8.056  1.00  0.00     0.136 HD
ENDROOT
BRANCH   1  36
HETATM   36  C2  UNL     1      -3.292 -12.313   1.724  1.00  0.00     0.064 C 
HETATM   37  C1  UNL     1      -2.136 -11.640   1.651  1.00  0.00     0.017 C 
ENDBRANCH   1  36
TORSDOF 1
ENDMDL
MODEL 9
REMARK minimizedAffinity -7.81081772
REMARK  1 active torsions:
REMARK  status: ('A' for Active; 'I' for Inactive)
REMARK    1  A    between atoms: C2_2  and  C3_3 
REMARK       I    between atoms: C3_3  and  N1_5 
ROOT
HETATM    1  C3  UNL     1      -3.292   5.156  12.718  1.00  0.00     0.247 C 
HETATM    2  O1  UNL     1      -2.719   4.505  11.845  1.00  0.00    -0.268 OA
HETATM    3  N1  UNL     1      -2.623   5.870  13.719  1.00  0.00    -0.315 N 
HETATM    4  C4  UNL     1      -1.207   5.533  13.910  1.00  0.00     0.132 C 
HETATM    5  C5  UNL     1      -0.263   6.490  13.175  1.00  0.00     0.020 C 
HETATM    6  C6  UNL     1       1.170   5.948  13.158  1.00  0.00     0.002 C 
HETATM    7  C7  UNL     1       2.200   6.982  12.689  1.00  0.00     0.000 C 
HETATM    8  C8  UNL     1       2.498   8.014  13.778  1.00  0.00     0.002 C 
HETATM    9  C9  UNL     1       3.551   9.040  13.347  1.00  0.00     0.020 C 
HETATM   10  C10 UNL     1       3.983   9.954  14.501  1.00  0.00     0.128 C 
HETATM   11  N2  UNL     1       2.919  10.811  14.996  1.00  0.00    -0.355 N 
HETATM   12  C11 UNL     1       2.036  10.438  15.976  1.00  0.00     0.106 A 
HETATM   13  C12 UNL     1       1.108  11.446  16.131  1.00  0.00     0.019 A 
HETATM   14  C13 UNL     1       1.490  12.510  15.257  1.00  0.00     0.005 A 
HETATM   15  C14 UNL     1       0.954  13.784  14.969  1.00  0.00     0.014 A 
HETATM   16  C15 UNL     1       1.576  14.601  14.019  1.00  0.00     0.001 A 
HETATM   17  C16 UNL     1       2.712  14.164  13.347  1.00  0.00     0.002 A 
HETATM   18  C17 UNL     1       3.256  12.902  13.599  1.00  0.00     0.030 A 
HETATM   19  C18 UNL     1       2.631  12.089  14.560  1.00  0.00     0.045 A 
HETATM   20  C19 UNL     1      -0.021  11.322  17.032  1.00  0.00     0.048 A 
HETATM   21  C20 UNL     1      -0.260  12.270  17.997  1.00  0.00     0.047 A 
HETATM   22  C21 UNL     1      -1.354  12.031  18.788  1.00  0.00     0.093 A 
HETATM   23  N3  UNL     1      -2.161  10.964  18.640  1.00  0.00    -0.342 N 
ATOM     24  H3  UNL     1      -2.970  10.819  19.244  1.00  0.00     0.167 HD
HETATM   25  C22 UNL     1      -1.853  10.097  17.661  1.00  0.00     0.162 A 
HETATM   26  N4  UNL     1      -0.793  10.231  16.854  1.00  0.00    -0.332 N 
ATOM     27  H4  UNL     1      -0.580   9.539  16.136  1.00  0.00     0.168 HD
HETATM   28  N5  UNL     1      -2.748   9.023  17.493  1.00  0.00    -0.230 NA
HETATM   29  C23 UNL     1      -3.201   8.641  16.208  1.00  0.00     0.017 A 
HETATM   30  C24 UNL     1      -4.100   9.446  15.501  1.00  0.00     0.024 A 
HETATM   31  C25 UNL     1      -4.507   9.081  14.222  1.00  0.00     0.004 A 
HETATM   32  C26 UNL     1      -4.021   7.907  13.643  1.00  0.00     0.030 A 
HETATM   33  C27 UNL     1      -3.125   7.072  14.330  1.00  0.00     0.039 A 
HETATM   34  C28 UNL     1      -2.703   7.474  15.607  1.00  0.00     0.053 A 
HETATM   35  H25 UNL     1      -3.529   9.326  18.070  1.00  0.00     0.136 HD
ENDROOT
BRANCH   1  36
HETATM   36  C2  UNL     1      -4.781   5.092  12.837  1.00  0.00     0.064 C 
HETATM   37  C1  UNL     1      -5.443   3.961  12.562  1.00  0.00     0.017 C 
ENDBRANCH   1  36
TORSDOF 1
ENDMDL
