MODEL 1
REMARK minimizedAffinity -7.46547365
REMARK  7 active torsions:
REMARK  status: ('A' for Active; 'I' for Inactive)
REMARK    1  A    between atoms: O1_2  and  C2_3 
REMARK    2  A    between atoms: C6_11  and  N3_12 
REMARK    3  A    between atoms: N3_12  and  C7_13 
REMARK    4  A    between atoms: C9_15  and  O2_16 
REMARK    5  A    between atoms: C11_18  and  O3_19 
REMARK    6  A    between atoms: C13_21  and  O4_22 
REMARK    7  A    between atoms: C18_27  and  O5_28 
ROOT
HETATM    1  C2  UNL     1       4.292  -8.188  27.619  1.00  0.00     0.103 A 
HETATM    2  C3  UNL     1       3.736  -7.076  28.214  1.00  0.00     0.070 A 
HETATM    3  C4  UNL     1       4.455  -6.206  29.006  1.00  0.00     0.050 A 
HETATM    4  N1  UNL     1       3.905  -5.115  29.581  1.00  0.00    -0.351 N 
ATOM      5  H1  UNL     1       2.915  -4.921  29.429  1.00  0.00     0.166 HD
HETATM    6  C5  UNL     1       4.620  -4.279  30.346  1.00  0.00     0.182 A 
HETATM    7  N2  UNL     1       5.946  -4.470  30.594  1.00  0.00    -0.338 N 
ATOM      8  H2  UNL     1       6.475  -3.821  31.178  1.00  0.00     0.168 HD
HETATM    9  C6  UNL     1       6.540  -5.563  30.031  1.00  0.00     0.119 A 
HETATM   10  C16 UNL     1       5.795  -6.420  29.245  1.00  0.00     0.039 A 
HETATM   11  C17 UNL     1       6.375  -7.520  28.667  1.00  0.00     0.208 A 
HETATM   12  C18 UNL     1       5.641  -8.400  27.862  1.00  0.00     0.104 A 
ENDROOT
BRANCH   9  13
HETATM   13  N3  UNL     1       7.915  -5.848  30.219  1.00  0.00    -0.342 N 
HETATM   14  H6  UNL     1       8.180  -6.876  30.137  1.00  0.00     0.167 HD
BRANCH  13  15
HETATM   15  C7  UNL     1       8.900  -4.864  30.502  1.00  0.00     0.039 A 
HETATM   16  C8  UNL     1       9.071  -4.312  31.755  1.00  0.00     0.069 A 
HETATM   17  C9  UNL     1      10.031  -3.366  32.020  1.00  0.00     0.106 A 
HETATM   18  C11 UNL     1      10.840  -2.981  30.957  1.00  0.00     0.135 A 
HETATM   19  C13 UNL     1      10.698  -3.513  29.690  1.00  0.00     0.106 A 
HETATM   20  C15 UNL     1       9.714  -4.475  29.438  1.00  0.00     0.069 A 
BRANCH  17  21
HETATM   21  O2  UNL     1      10.194  -2.817  33.278  1.00  0.00    -0.353 OA
HETATM   22  C10 UNL     1      10.046  -3.665  34.399  1.00  0.00     0.210 C 
ENDBRANCH  17  21
BRANCH  18  23
HETATM   23  O3  UNL     1      11.800  -2.039  31.210  1.00  0.00    -0.351 OA
HETATM   24  C12 UNL     1      12.354  -1.719  32.450  1.00  0.00     0.210 C 
ENDBRANCH  18  23
BRANCH  19  25
HETATM   25  O4  UNL     1      11.534  -3.093  28.659  1.00  0.00    -0.353 OA
HETATM   26  C14 UNL     1      11.174  -3.449  27.336  1.00  0.00     0.210 C 
ENDBRANCH  19  25
ENDBRANCH  13  15
ENDBRANCH   9  13
BRANCH  12  27
HETATM   27  O5  UNL     1       6.296  -9.516  27.298  1.00  0.00    -0.353 OA
HETATM   28  C19 UNL     1       7.457  -9.998  27.953  1.00  0.00     0.210 C 
ENDBRANCH  12  27
BRANCH   1  29
HETATM   29  O1  UNL     1       3.592  -9.055  26.833  1.00  0.00    -0.353 OA
HETATM   30  C1  UNL     1       2.246  -9.392  27.070  1.00  0.00     0.210 C 
ENDBRANCH   1  29
TORSDOF 7
ENDMDL
MODEL 2
REMARK minimizedAffinity -7.46251345
REMARK  7 active torsions:
REMARK  status: ('A' for Active; 'I' for Inactive)
REMARK    1  A    between atoms: O1_2  and  C2_3 
REMARK    2  A    between atoms: C6_11  and  N3_12 
REMARK    3  A    between atoms: N3_12  and  C7_13 
REMARK    4  A    between atoms: C9_15  and  O2_16 
REMARK    5  A    between atoms: C11_18  and  O3_19 
REMARK    6  A    between atoms: C13_21  and  O4_22 
REMARK    7  A    between atoms: C18_27  and  O5_28 
ROOT
HETATM    1  C2  UNL     1      11.246  -3.255  33.040  1.00  0.00     0.103 A 
HETATM    2  C3  UNL     1      11.661  -3.035  31.743  1.00  0.00     0.070 A 
HETATM    3  C4  UNL     1      11.174  -3.745  30.666  1.00  0.00     0.050 A 
HETATM    4  N1  UNL     1      11.581  -3.521  29.398  1.00  0.00    -0.351 N 
ATOM      5  H1  UNL     1      12.279  -2.798  29.223  1.00  0.00     0.166 HD
HETATM    6  C5  UNL     1      11.095  -4.220  28.363  1.00  0.00     0.182 A 
HETATM    7  N2  UNL     1      10.161  -5.199  28.518  1.00  0.00    -0.338 N 
ATOM      8  H2  UNL     1       9.802  -5.720  27.717  1.00  0.00     0.168 HD
HETATM    9  C6  UNL     1       9.724  -5.458  29.786  1.00  0.00     0.119 A 
HETATM   10  C16 UNL     1      10.231  -4.733  30.847  1.00  0.00     0.039 A 
HETATM   11  C17 UNL     1       9.801  -4.974  32.127  1.00  0.00     0.208 A 
HETATM   12  C18 UNL     1      10.297  -4.249  33.217  1.00  0.00     0.104 A 
ENDROOT
BRANCH   9  13
HETATM   13  N3  UNL     1       8.749  -6.449  30.054  1.00  0.00    -0.342 N 
HETATM   14  H6  UNL     1       9.112  -7.321  30.545  1.00  0.00     0.167 HD
BRANCH  13  15
HETATM   15  C7  UNL     1       7.376  -6.330  29.707  1.00  0.00     0.039 A 
HETATM   16  C8  UNL     1       6.704  -7.280  28.967  1.00  0.00     0.069 A 
HETATM   17  C9  UNL     1       5.375  -7.159  28.642  1.00  0.00     0.106 A 
HETATM   18  C11 UNL     1       4.721  -6.020  29.099  1.00  0.00     0.135 A 
HETATM   19  C13 UNL     1       5.361  -5.048  29.843  1.00  0.00     0.106 A 
HETATM   20  C15 UNL     1       6.716  -5.189  30.164  1.00  0.00     0.069 A 
BRANCH  17  21
HETATM   21  O2  UNL     1       4.709  -8.115  27.898  1.00  0.00    -0.353 OA
HETATM   22  C10 UNL     1       5.481  -9.018  27.132  1.00  0.00     0.210 C 
ENDBRANCH  17  21
BRANCH  18  23
HETATM   23  O3  UNL     1       3.396  -5.889  28.782  1.00  0.00    -0.351 OA
HETATM   24  C12 UNL     1       2.570  -6.859  28.213  1.00  0.00     0.210 C 
ENDBRANCH  18  23
BRANCH  19  25
HETATM   25  O4  UNL     1       4.661  -3.926  30.277  1.00  0.00    -0.353 OA
HETATM   26  C14 UNL     1       5.381  -2.943  30.999  1.00  0.00     0.210 C 
ENDBRANCH  19  25
ENDBRANCH  13  15
ENDBRANCH   9  13
BRANCH  12  27
HETATM   27  O5  UNL     1       9.815  -4.548  34.510  1.00  0.00    -0.353 OA
HETATM   28  C19 UNL     1       8.506  -5.080  34.618  1.00  0.00     0.210 C 
ENDBRANCH  12  27
BRANCH   1  29
HETATM   29  O1  UNL     1      11.719  -2.558  34.113  1.00  0.00    -0.353 OA
HETATM   30  C1  UNL     1      12.482  -3.150  35.138  1.00  0.00     0.210 C 
ENDBRANCH   1  29
TORSDOF 7
ENDMDL
MODEL 3
REMARK minimizedAffinity -7.45839977
REMARK  7 active torsions:
REMARK  status: ('A' for Active; 'I' for Inactive)
REMARK    1  A    between atoms: O1_2  and  C2_3 
REMARK    2  A    between atoms: C6_11  and  N3_12 
REMARK    3  A    between atoms: N3_12  and  C7_13 
REMARK    4  A    between atoms: C9_15  and  O2_16 
REMARK    5  A    between atoms: C11_18  and  O3_19 
REMARK    6  A    between atoms: C13_21  and  O4_22 
REMARK    7  A    between atoms: C18_27  and  O5_28 
ROOT
HETATM    1  C2  UNL     1       4.084  -8.023  27.754  1.00  0.00     0.103 A 
HETATM    2  C3  UNL     1       3.590  -6.857  28.299  1.00  0.00     0.070 A 
HETATM    3  C4  UNL     1       4.346  -6.014  29.086  1.00  0.00     0.050 A 
HETATM    4  N1  UNL     1       3.857  -4.870  29.612  1.00  0.00    -0.351 N 
ATOM      5  H1  UNL     1       2.888  -4.614  29.425  1.00  0.00     0.166 HD
HETATM    6  C5  UNL     1       4.608  -4.061  30.372  1.00  0.00     0.182 A 
HETATM    7  N2  UNL     1       5.910  -4.335  30.664  1.00  0.00    -0.338 N 
ATOM      8  H2  UNL     1       6.467  -3.706  31.243  1.00  0.00     0.168 HD
HETATM    9  C6  UNL     1       6.443  -5.484  30.151  1.00  0.00     0.119 A 
HETATM   10  C16 UNL     1       5.661  -6.312  29.369  1.00  0.00     0.039 A 
HETATM   11  C17 UNL     1       6.179  -7.467  28.841  1.00  0.00     0.208 A 
HETATM   12  C18 UNL     1       5.407  -8.319  28.042  1.00  0.00     0.104 A 
ENDROOT
BRANCH   9  13
HETATM   13  N3  UNL     1       7.788  -5.856  30.387  1.00  0.00    -0.342 N 
HETATM   14  H6  UNL     1       7.978  -6.904  30.375  1.00  0.00     0.167 HD
BRANCH  13  15
HETATM   15  C7  UNL     1       8.839  -4.931  30.631  1.00  0.00     0.039 A 
HETATM   16  C8  UNL     1       9.694  -4.490  29.642  1.00  0.00     0.069 A 
HETATM   17  C9  UNL     1      10.703  -3.590  29.886  1.00  0.00     0.106 A 
HETATM   18  C11 UNL     1      10.830  -3.131  31.192  1.00  0.00     0.135 A 
HETATM   19  C13 UNL     1       9.991  -3.550  32.208  1.00  0.00     0.106 A 
HETATM   20  C15 UNL     1       8.969  -4.469  31.940  1.00  0.00     0.069 A 
BRANCH  17  21
HETATM   21  O2  UNL     1      11.557  -3.154  28.890  1.00  0.00    -0.353 OA
HETATM   22  C10 UNL     1      11.217  -3.444  27.549  1.00  0.00     0.210 C 
ENDBRANCH  17  21
BRANCH  18  23
HETATM   23  O3  UNL     1      11.830  -2.233  31.447  1.00  0.00    -0.351 OA
HETATM   24  C12 UNL     1      11.684  -0.887  31.783  1.00  0.00     0.210 C 
ENDBRANCH  18  23
BRANCH  19  25
HETATM   25  O4  UNL     1      10.159  -3.061  33.499  1.00  0.00    -0.353 OA
HETATM   26  C14 UNL     1      10.644  -3.958  34.483  1.00  0.00     0.210 C 
ENDBRANCH  19  25
ENDBRANCH  13  15
ENDBRANCH   9  13
BRANCH  12  27
HETATM   27  O5  UNL     1       5.998  -9.494  27.531  1.00  0.00    -0.353 OA
HETATM   28  C19 UNL     1       7.255  -9.883  28.059  1.00  0.00     0.210 C 
ENDBRANCH  12  27
BRANCH   1  29
HETATM   29  O1  UNL     1       3.346  -8.865  26.974  1.00  0.00    -0.353 OA
HETATM   30  C1  UNL     1       2.065  -8.539  26.490  1.00  0.00     0.210 C 
ENDBRANCH   1  29
TORSDOF 7
ENDMDL
MODEL 4
REMARK minimizedAffinity -7.22132635
REMARK  7 active torsions:
REMARK  status: ('A' for Active; 'I' for Inactive)
REMARK    1  A    between atoms: O1_2  and  C2_3 
REMARK    2  A    between atoms: C6_11  and  N3_12 
REMARK    3  A    between atoms: N3_12  and  C7_13 
REMARK    4  A    between atoms: C9_15  and  O2_16 
REMARK    5  A    between atoms: C11_18  and  O3_19 
REMARK    6  A    between atoms: C13_21  and  O4_22 
REMARK    7  A    between atoms: C18_27  and  O5_28 
ROOT
HETATM    1  C2  UNL     1      10.435  -2.955  32.634  1.00  0.00     0.103 A 
HETATM    2  C3  UNL     1       9.280  -2.215  32.489  1.00  0.00     0.070 A 
HETATM    3  C4  UNL     1       8.127  -2.720  31.927  1.00  0.00     0.050 A 
HETATM    4  N1  UNL     1       6.999  -1.990  31.793  1.00  0.00    -0.351 N 
ATOM      5  H1  UNL     1       6.993  -1.023  32.118  1.00  0.00     0.166 HD
HETATM    6  C5  UNL     1       5.886  -2.499  31.247  1.00  0.00     0.182 A 
HETATM    7  N2  UNL     1       5.816  -3.781  30.792  1.00  0.00    -0.338 N 
ATOM      8  H2  UNL     1       4.959  -4.151  30.381  1.00  0.00     0.168 HD
HETATM    9  C6  UNL     1       6.937  -4.552  30.909  1.00  0.00     0.119 A 
HETATM   10  C16 UNL     1       8.080  -4.019  31.473  1.00  0.00     0.039 A 
HETATM   11  C17 UNL     1       9.214  -4.780  31.603  1.00  0.00     0.208 A 
HETATM   12  C18 UNL     1      10.382  -4.263  32.176  1.00  0.00     0.104 A 
ENDROOT
BRANCH   9  13
HETATM   13  N3  UNL     1       6.967  -5.900  30.475  1.00  0.00    -0.342 N 
HETATM   14  H6  UNL     1       6.914  -6.627  31.252  1.00  0.00     0.167 HD
BRANCH  13  15
HETATM   15  C7  UNL     1       7.064  -6.296  29.115  1.00  0.00     0.039 A 
HETATM   16  C8  UNL     1       8.173  -6.041  28.336  1.00  0.00     0.069 A 
HETATM   17  C9  UNL     1       8.260  -6.434  27.022  1.00  0.00     0.106 A 
HETATM   18  C11 UNL     1       7.166  -7.113  26.499  1.00  0.00     0.135 A 
HETATM   19  C13 UNL     1       6.038  -7.387  27.249  1.00  0.00     0.106 A 
HETATM   20  C15 UNL     1       5.967  -6.977  28.586  1.00  0.00     0.069 A 
BRANCH  17  21
HETATM   21  O2  UNL     1       9.376  -6.174  26.249  1.00  0.00    -0.353 OA
HETATM   22  C10 UNL     1      10.360  -5.304  26.772  1.00  0.00     0.210 C 
ENDBRANCH  17  21
BRANCH  18  23
HETATM   23  O3  UNL     1       7.242  -7.510  25.192  1.00  0.00    -0.351 OA
HETATM   24  C12 UNL     1       7.939  -8.609  24.689  1.00  0.00     0.210 C 
ENDBRANCH  18  23
BRANCH  19  25
HETATM   25  O4  UNL     1       4.968  -8.070  26.678  1.00  0.00    -0.353 OA
HETATM   26  C14 UNL     1       3.932  -8.505  27.540  1.00  0.00     0.210 C 
ENDBRANCH  19  25
ENDBRANCH  13  15
ENDBRANCH   9  13
BRANCH  12  27
HETATM   27  O5  UNL     1      11.517  -5.096  32.279  1.00  0.00    -0.353 OA
HETATM   28  C19 UNL     1      12.270  -5.333  31.101  1.00  0.00     0.210 C 
ENDBRANCH  12  27
BRANCH   1  29
HETATM   29  O1  UNL     1      11.581  -2.468  33.189  1.00  0.00    -0.353 OA
HETATM   30  C1  UNL     1      11.923  -2.662  34.541  1.00  0.00     0.210 C 
ENDBRANCH   1  29
TORSDOF 7
ENDMDL
MODEL 5
REMARK minimizedAffinity -7.11874533
REMARK  7 active torsions:
REMARK  status: ('A' for Active; 'I' for Inactive)
REMARK    1  A    between atoms: O1_2  and  C2_3 
REMARK    2  A    between atoms: C6_11  and  N3_12 
REMARK    3  A    between atoms: N3_12  and  C7_13 
REMARK    4  A    between atoms: C9_15  and  O2_16 
REMARK    5  A    between atoms: C11_18  and  O3_19 
REMARK    6  A    between atoms: C13_21  and  O4_22 
REMARK    7  A    between atoms: C18_27  and  O5_28 
ROOT
HETATM    1  C2  UNL     1      10.442  -2.880  32.614  1.00  0.00     0.103 A 
HETATM    2  C3  UNL     1       9.273  -2.162  32.475  1.00  0.00     0.070 A 
HETATM    3  C4  UNL     1       8.123  -2.693  31.929  1.00  0.00     0.050 A 
HETATM    4  N1  UNL     1       6.980  -1.985  31.802  1.00  0.00    -0.351 N 
ATOM      5  H1  UNL     1       6.960  -1.016  32.119  1.00  0.00     0.166 HD
HETATM    6  C5  UNL     1       5.871  -2.519  31.271  1.00  0.00     0.182 A 
HETATM    7  N2  UNL     1       5.821  -3.806  30.827  1.00  0.00    -0.338 N 
ATOM      8  H2  UNL     1       4.967  -4.195  30.427  1.00  0.00     0.168 HD
HETATM    9  C6  UNL     1       6.957  -4.555  30.937  1.00  0.00     0.119 A 
HETATM   10  C16 UNL     1       8.096  -3.997  31.485  1.00  0.00     0.039 A 
HETATM   11  C17 UNL     1       9.245  -4.735  31.610  1.00  0.00     0.208 A 
HETATM   12  C18 UNL     1      10.410  -4.191  32.166  1.00  0.00     0.104 A 
ENDROOT
BRANCH   9  13
HETATM   13  N3  UNL     1       7.008  -5.906  30.514  1.00  0.00    -0.342 N 
HETATM   14  H6  UNL     1       7.017  -6.627  31.298  1.00  0.00     0.167 HD
BRANCH  13  15
HETATM   15  C7  UNL     1       7.050  -6.312  29.153  1.00  0.00     0.039 A 
HETATM   16  C8  UNL     1       6.027  -7.013  28.548  1.00  0.00     0.069 A 
HETATM   17  C9  UNL     1       6.074  -7.396  27.229  1.00  0.00     0.106 A 
HETATM   18  C11 UNL     1       7.212  -7.040  26.514  1.00  0.00     0.135 A 
HETATM   19  C13 UNL     1       8.255  -6.337  27.087  1.00  0.00     0.106 A 
HETATM   20  C15 UNL     1       8.190  -5.957  28.433  1.00  0.00     0.069 A 
BRANCH  17  21
HETATM   21  O2  UNL     1       5.046  -8.099  26.631  1.00  0.00    -0.353 OA
HETATM   22  C10 UNL     1       4.073  -8.695  27.465  1.00  0.00     0.210 C 
ENDBRANCH  17  21
BRANCH  18  23
HETATM   23  O3  UNL     1       7.269  -7.414  25.200  1.00  0.00    -0.351 OA
HETATM   24  C12 UNL     1       7.890  -8.549  24.677  1.00  0.00     0.210 C 
ENDBRANCH  18  23
BRANCH  19  25
HETATM   25  O4  UNL     1       9.373  -6.005  26.328  1.00  0.00    -0.353 OA
HETATM   26  C14 UNL     1      10.566  -6.733  26.565  1.00  0.00     0.210 C 
ENDBRANCH  19  25
ENDBRANCH  13  15
ENDBRANCH   9  13
BRANCH  12  27
HETATM   27  O5  UNL     1      11.561  -5.003  32.264  1.00  0.00    -0.353 OA
HETATM   28  C19 UNL     1      11.933  -5.758  31.123  1.00  0.00     0.210 C 
ENDBRANCH  12  27
BRANCH   1  29
HETATM   29  O1  UNL     1      11.585  -2.367  33.153  1.00  0.00    -0.353 OA
HETATM   30  C1  UNL     1      11.943  -2.541  34.504  1.00  0.00     0.210 C 
ENDBRANCH   1  29
TORSDOF 7
ENDMDL
MODEL 6
REMARK minimizedAffinity -6.91137791
REMARK  7 active torsions:
REMARK  status: ('A' for Active; 'I' for Inactive)
REMARK    1  A    between atoms: O1_2  and  C2_3 
REMARK    2  A    between atoms: C6_11  and  N3_12 
REMARK    3  A    between atoms: N3_12  and  C7_13 
REMARK    4  A    between atoms: C9_15  and  O2_16 
REMARK    5  A    between atoms: C11_18  and  O3_19 
REMARK    6  A    between atoms: C13_21  and  O4_22 
REMARK    7  A    between atoms: C18_27  and  O5_28 
ROOT
HETATM    1  C2  UNL     1      11.238  -3.128  32.844  1.00  0.00     0.103 A 
HETATM    2  C3  UNL     1      11.737  -3.031  31.562  1.00  0.00     0.070 A 
HETATM    3  C4  UNL     1      11.299  -3.820  30.521  1.00  0.00     0.050 A 
HETATM    4  N1  UNL     1      11.789  -3.715  29.267  1.00  0.00    -0.351 N 
ATOM      5  H1  UNL     1      12.516  -3.026  29.076  1.00  0.00     0.166 HD
HETATM    6  C5  UNL     1      11.349  -4.490  28.266  1.00  0.00     0.182 A 
HETATM    7  N2  UNL     1      10.380  -5.431  28.443  1.00  0.00    -0.338 N 
ATOM      8  H2  UNL     1      10.056  -6.010  27.668  1.00  0.00     0.168 HD
HETATM    9  C6  UNL     1       9.858  -5.569  29.697  1.00  0.00     0.119 A 
HETATM   10  C16 UNL     1      10.319  -4.767  30.724  1.00  0.00     0.039 A 
HETATM   11  C17 UNL     1       9.804  -4.888  31.989  1.00  0.00     0.208 A 
HETATM   12  C18 UNL     1      10.252  -4.082  33.043  1.00  0.00     0.104 A 
ENDROOT
BRANCH   9  13
HETATM   13  N3  UNL     1       8.841  -6.512  29.986  1.00  0.00    -0.342 N 
HETATM   14  H6  UNL     1       9.156  -7.362  30.544  1.00  0.00     0.167 HD
BRANCH  13  15
HETATM   15  C7  UNL     1       7.488  -6.373  29.576  1.00  0.00     0.039 A 
HETATM   16  C8  UNL     1       6.735  -5.248  29.843  1.00  0.00     0.069 A 
HETATM   17  C9  UNL     1       5.429  -5.120  29.437  1.00  0.00     0.106 A 
HETATM   18  C11 UNL     1       4.886  -6.188  28.730  1.00  0.00     0.135 A 
HETATM   19  C13 UNL     1       5.611  -7.329  28.443  1.00  0.00     0.106 A 
HETATM   20  C15 UNL     1       6.940  -7.442  28.867  1.00  0.00     0.069 A 
BRANCH  17  21
HETATM   21  O2  UNL     1       4.681  -3.991  29.710  1.00  0.00    -0.353 OA
HETATM   22  C10 UNL     1       5.020  -3.227  30.849  1.00  0.00     0.210 C 
ENDBRANCH  17  21
BRANCH  18  23
HETATM   23  O3  UNL     1       3.587  -6.071  28.319  1.00  0.00    -0.351 OA
HETATM   24  C12 UNL     1       2.486  -6.774  28.809  1.00  0.00     0.210 C 
ENDBRANCH  18  23
BRANCH  19  25
HETATM   25  O4  UNL     1       5.022  -8.370  27.733  1.00  0.00    -0.353 OA
HETATM   26  C14 UNL     1       5.376  -8.516  26.369  1.00  0.00     0.210 C 
ENDBRANCH  19  25
ENDBRANCH  13  15
ENDBRANCH   9  13
BRANCH  12  27
HETATM   27  O5  UNL     1       9.683  -4.258  34.323  1.00  0.00    -0.353 OA
HETATM   28  C19 UNL     1       8.541  -5.090  34.428  1.00  0.00     0.210 C 
ENDBRANCH  12  27
BRANCH   1  29
HETATM   29  O1  UNL     1      11.662  -2.353  33.882  1.00  0.00    -0.353 OA
HETATM   30  C1  UNL     1      12.320  -2.874  35.013  1.00  0.00     0.210 C 
ENDBRANCH   1  29
TORSDOF 7
ENDMDL
MODEL 7
REMARK minimizedAffinity -6.91027403
REMARK  7 active torsions:
REMARK  status: ('A' for Active; 'I' for Inactive)
REMARK    1  A    between atoms: O1_2  and  C2_3 
REMARK    2  A    between atoms: C6_11  and  N3_12 
REMARK    3  A    between atoms: N3_12  and  C7_13 
REMARK    4  A    between atoms: C9_15  and  O2_16 
REMARK    5  A    between atoms: C11_18  and  O3_19 
REMARK    6  A    between atoms: C13_21  and  O4_22 
REMARK    7  A    between atoms: C18_27  and  O5_28 
ROOT
HETATM    1  C2  UNL     1      10.601  -2.984  32.647  1.00  0.00     0.103 A 
HETATM    2  C3  UNL     1      11.080  -3.040  31.355  1.00  0.00     0.070 A 
HETATM    3  C4  UNL     1      10.465  -3.763  30.355  1.00  0.00     0.050 A 
HETATM    4  N1  UNL     1      10.937  -3.809  29.090  1.00  0.00    -0.351 N 
ATOM      5  H1  UNL     1      11.785  -3.292  28.859  1.00  0.00     0.166 HD
HETATM    6  C5  UNL     1      10.323  -4.514  28.130  1.00  0.00     0.182 A 
HETATM    7  N2  UNL     1       9.186  -5.228  28.361  1.00  0.00    -0.338 N 
ATOM      8  H2  UNL     1       8.733  -5.758  27.617  1.00  0.00     0.168 HD
HETATM    9  C6  UNL     1       8.677  -5.208  29.629  1.00  0.00     0.119 A 
HETATM   10  C16 UNL     1       9.316  -4.479  30.613  1.00  0.00     0.039 A 
HETATM   11  C17 UNL     1       8.817  -4.441  31.890  1.00  0.00     0.208 A 
HETATM   12  C18 UNL     1       9.446  -3.706  32.902  1.00  0.00     0.104 A 
ENDROOT
BRANCH   9  13
HETATM   13  N3  UNL     1       7.495  -5.909  29.973  1.00  0.00    -0.342 N 
HETATM   14  H6  UNL     1       7.021  -5.585  30.870  1.00  0.00     0.167 HD
BRANCH  13  15
HETATM   15  C7  UNL     1       6.951  -6.973  29.206  1.00  0.00     0.039 A 
HETATM   16  C8  UNL     1       5.690  -6.927  28.647  1.00  0.00     0.069 A 
HETATM   17  C9  UNL     1       5.175  -7.960  27.901  1.00  0.00     0.106 A 
HETATM   18  C11 UNL     1       5.989  -9.073  27.728  1.00  0.00     0.135 A 
HETATM   19  C13 UNL     1       7.257  -9.154  28.273  1.00  0.00     0.106 A 
HETATM   20  C15 UNL     1       7.764  -8.093  29.030  1.00  0.00     0.069 A 
BRANCH  17  21
HETATM   21  O2  UNL     1       3.911  -7.906  27.345  1.00  0.00    -0.353 OA
HETATM   22  C10 UNL     1       2.902  -7.213  28.051  1.00  0.00     0.210 C 
ENDBRANCH  17  21
BRANCH  18  23
HETATM   23  O3  UNL     1       5.486 -10.107  26.986  1.00  0.00    -0.351 OA
HETATM   24  C12 UNL     1       5.695 -10.343  25.627  1.00  0.00     0.210 C 
ENDBRANCH  18  23
BRANCH  19  25
HETATM   25  O4  UNL     1       8.032 -10.292  28.070  1.00  0.00    -0.353 OA
HETATM   26  C14 UNL     1       9.369 -10.106  27.639  1.00  0.00     0.210 C 
ENDBRANCH  19  25
ENDBRANCH  13  15
ENDBRANCH   9  13
BRANCH  12  27
HETATM   27  O5  UNL     1       8.883  -3.710  34.197  1.00  0.00    -0.353 OA
HETATM   28  C19 UNL     1       8.696  -4.965  34.829  1.00  0.00     0.210 C 
ENDBRANCH  12  27
BRANCH   1  29
HETATM   29  O1  UNL     1      11.200  -2.272  33.645  1.00  0.00    -0.353 OA
HETATM   30  C1  UNL     1      12.124  -2.838  34.544  1.00  0.00     0.210 C 
ENDBRANCH   1  29
TORSDOF 7
ENDMDL
MODEL 8
REMARK minimizedAffinity -6.8259244
REMARK  7 active torsions:
REMARK  status: ('A' for Active; 'I' for Inactive)
REMARK    1  A    between atoms: O1_2  and  C2_3 
REMARK    2  A    between atoms: C6_11  and  N3_12 
REMARK    3  A    between atoms: N3_12  and  C7_13 
REMARK    4  A    between atoms: C9_15  and  O2_16 
REMARK    5  A    between atoms: C11_18  and  O3_19 
REMARK    6  A    between atoms: C13_21  and  O4_22 
REMARK    7  A    between atoms: C18_27  and  O5_28 
ROOT
HETATM    1  C2  UNL     1       4.615  -6.550  28.493  1.00  0.00     0.103 A 
HETATM    2  C3  UNL     1       5.311  -7.258  27.536  1.00  0.00     0.070 A 
HETATM    3  C4  UNL     1       6.647  -7.576  27.657  1.00  0.00     0.050 A 
HETATM    4  N1  UNL     1       7.320  -8.275  26.718  1.00  0.00    -0.351 N 
ATOM      5  H1  UNL     1       6.826  -8.581  25.880  1.00  0.00     0.166 HD
HETATM    6  C5  UNL     1       8.619  -8.577  26.855  1.00  0.00     0.182 A 
HETATM    7  N2  UNL     1       9.345  -8.205  27.945  1.00  0.00    -0.338 N 
ATOM      8  H2  UNL     1      10.332  -8.446  28.032  1.00  0.00     0.168 HD
HETATM    9  C6  UNL     1       8.700  -7.495  28.918  1.00  0.00     0.119 A 
HETATM   10  C16 UNL     1       7.361  -7.187  28.769  1.00  0.00     0.039 A 
HETATM   11  C17 UNL     1       6.696  -6.480  29.737  1.00  0.00     0.208 A 
HETATM   12  C18 UNL     1       5.338  -6.160  29.610  1.00  0.00     0.104 A 
ENDROOT
BRANCH   9  13
HETATM   13  N3  UNL     1       9.361  -7.067  30.096  1.00  0.00    -0.342 N 
HETATM   14  H6  UNL     1       9.449  -7.804  30.859  1.00  0.00     0.167 HD
BRANCH  13  15
HETATM   15  C7  UNL     1       9.880  -5.759  30.285  1.00  0.00     0.039 A 
HETATM   16  C8  UNL     1      10.477  -5.034  29.275  1.00  0.00     0.069 A 
HETATM   17  C9  UNL     1      10.970  -3.766  29.466  1.00  0.00     0.106 A 
HETATM   18  C11 UNL     1      10.839  -3.231  30.743  1.00  0.00     0.135 A 
HETATM   19  C13 UNL     1      10.246  -3.927  31.779  1.00  0.00     0.106 A 
HETATM   20  C15 UNL     1       9.751  -5.218  31.565  1.00  0.00     0.069 A 
BRANCH  17  21
HETATM   21  O2  UNL     1      11.567  -3.047  28.448  1.00  0.00    -0.353 OA
HETATM   22  C10 UNL     1      11.137  -3.287  27.124  1.00  0.00     0.210 C 
ENDBRANCH  17  21
BRANCH  18  23
HETATM   23  O3  UNL     1      11.325  -1.968  30.945  1.00  0.00    -0.351 OA
HETATM   24  C12 UNL     1      10.633  -0.878  31.473  1.00  0.00     0.210 C 
ENDBRANCH  18  23
BRANCH  19  25
HETATM   25  O4  UNL     1      10.140  -3.346  33.039  1.00  0.00    -0.353 OA
HETATM   26  C14 UNL     1      11.021  -3.805  34.050  1.00  0.00     0.210 C 
ENDBRANCH  19  25
ENDBRANCH  13  15
ENDBRANCH   9  13
BRANCH  12  27
HETATM   27  O5  UNL     1       4.711  -5.428  30.641  1.00  0.00    -0.353 OA
HETATM   28  C19 UNL     1       4.834  -4.016  30.615  1.00  0.00     0.210 C 
ENDBRANCH  12  27
BRANCH   1  29
HETATM   29  O1  UNL     1       3.294  -6.230  28.385  1.00  0.00    -0.353 OA
HETATM   30  C1  UNL     1       2.307  -7.158  28.002  1.00  0.00     0.210 C 
ENDBRANCH   1  29
TORSDOF 7
ENDMDL
MODEL 9
REMARK minimizedAffinity -6.70895576
REMARK  7 active torsions:
REMARK  status: ('A' for Active; 'I' for Inactive)
REMARK    1  A    between atoms: O1_2  and  C2_3 
REMARK    2  A    between atoms: C6_11  and  N3_12 
REMARK    3  A    between atoms: N3_12  and  C7_13 
REMARK    4  A    between atoms: C9_15  and  O2_16 
REMARK    5  A    between atoms: C11_18  and  O3_19 
REMARK    6  A    between atoms: C13_21  and  O4_22 
REMARK    7  A    between atoms: C18_27  and  O5_28 
ROOT
HETATM    1  C2  UNL     1      10.595  -2.951  32.689  1.00  0.00     0.103 A 
HETATM    2  C3  UNL     1       9.378  -2.317  32.560  1.00  0.00     0.070 A 
HETATM    3  C4  UNL     1       8.288  -2.897  31.945  1.00  0.00     0.050 A 
HETATM    4  N1  UNL     1       7.097  -2.271  31.826  1.00  0.00    -0.351 N 
ATOM      5  H1  UNL     1       6.993  -1.330  32.203  1.00  0.00     0.166 HD
HETATM    6  C5  UNL     1       6.048  -2.852  31.228  1.00  0.00     0.182 A 
HETATM    7  N2  UNL     1       6.110  -4.107  30.702  1.00  0.00    -0.338 N 
ATOM      8  H2  UNL     1       5.300  -4.533  30.251  1.00  0.00     0.168 HD
HETATM    9  C6  UNL     1       7.298  -4.773  30.801  1.00  0.00     0.119 A 
HETATM   10  C16 UNL     1       8.375  -4.167  31.419  1.00  0.00     0.039 A 
HETATM   11  C17 UNL     1       9.574  -4.822  31.532  1.00  0.00     0.208 A 
HETATM   12  C18 UNL     1      10.678  -4.229  32.158  1.00  0.00     0.104 A 
ENDROOT
BRANCH   9  13
HETATM   13  N3  UNL     1       7.465  -6.086  30.295  1.00  0.00    -0.342 N 
HETATM   14  H6  UNL     1       6.786  -6.810  30.679  1.00  0.00     0.167 HD
BRANCH  13  15
HETATM   15  C7  UNL     1       8.457  -6.451  29.346  1.00  0.00     0.039 A 
HETATM   16  C8  UNL     1       9.050  -7.697  29.322  1.00  0.00     0.069 A 
HETATM   17  C9  UNL     1      10.004  -8.044  28.396  1.00  0.00     0.106 A 
HETATM   18  C11 UNL     1      10.354  -7.072  27.465  1.00  0.00     0.135 A 
HETATM   19  C13 UNL     1       9.781  -5.815  27.458  1.00  0.00     0.106 A 
HETATM   20  C15 UNL     1       8.811  -5.480  28.410  1.00  0.00     0.069 A 
BRANCH  17  21
HETATM   21  O2  UNL     1      10.593  -9.294  28.380  1.00  0.00    -0.353 OA
HETATM   22  C10 UNL     1       9.850 -10.373  27.850  1.00  0.00     0.210 C 
ENDBRANCH  17  21
BRANCH  18  23
HETATM   23  O3  UNL     1      11.302  -7.407  26.537  1.00  0.00    -0.351 OA
HETATM   24  C12 UNL     1      11.079  -7.858  25.236  1.00  0.00     0.210 C 
ENDBRANCH  18  23
BRANCH  19  25
HETATM   25  O4  UNL     1      10.166  -4.878  26.504  1.00  0.00    -0.353 OA
HETATM   26  C14 UNL     1      11.036  -3.839  26.919  1.00  0.00     0.210 C 
ENDBRANCH  19  25
ENDBRANCH  13  15
ENDBRANCH   9  13
BRANCH  12  27
HETATM   27  O5  UNL     1      11.885  -4.955  32.241  1.00  0.00    -0.353 OA
HETATM   28  C19 UNL     1      12.350  -5.597  31.065  1.00  0.00     0.210 C 
ENDBRANCH  12  27
BRANCH   1  29
HETATM   29  O1  UNL     1      11.680  -2.389  33.296  1.00  0.00    -0.353 OA
HETATM   30  C1  UNL     1      11.977  -2.570  34.660  1.00  0.00     0.210 C 
ENDBRANCH   1  29
TORSDOF 7
ENDMDL
