MODEL 1
REMARK minimizedAffinity -7.50103807
REMARK CNNscore 0.765250206
REMARK CNNaffinity 5.43419266
REMARK  3 active torsions:
REMARK  status: ('A' for Active; 'I' for Inactive)
REMARK    1  A    between atoms: C4_4  and  C5_5 
REMARK    2  A    between atoms: N2_8  and  C6_9 
REMARK    3  A    between atoms: C12_15  and  C13_16 
ROOT
HETATM    1  C5  UNL     1      17.409  49.531   4.824  1.00  0.00     0.038 C 
HETATM    2  N1  UNL     1      16.549  50.501   4.757  1.00  0.00    -0.301 N 
ATOM      3  H1  UNL     1      15.624  50.456   4.327  1.00  0.00     0.187 HD
HETATM    4  N2  UNL     1      17.106  51.599   5.368  1.00  0.00    -0.283 N 
HETATM    5  C12 UNL     1      18.518  51.377   5.698  1.00  0.00     0.148 C 
HETATM    6  C23 UNL     1      18.698  49.868   5.514  1.00  0.00     0.091 C 
ENDROOT
BRANCH   5   7
HETATM    7  C13 UNL     1      18.970  51.823   7.086  1.00  0.00    -0.022 A 
HETATM    8  C14 UNL     1      18.876  53.208   7.350  1.00  0.00     0.010 A 
HETATM    9  C15 UNL     1      19.279  53.742   8.568  1.00  0.00     0.002 A 
HETATM   10  C16 UNL     1      19.800  52.906   9.547  1.00  0.00     0.012 A 
HETATM   11  C17 UNL     1      19.927  51.529   9.325  1.00  0.00    -0.025 A 
HETATM   12  C18 UNL     1      20.469  50.720  10.338  1.00  0.00     0.012 A 
HETATM   13  C22 UNL     1      19.515  50.959   8.089  1.00  0.00    -0.018 A 
HETATM   14  C19 UNL     1      20.619  49.347  10.161  1.00  0.00     0.001 A 
HETATM   15  C20 UNL     1      20.228  48.767   8.965  1.00  0.00     0.001 A 
HETATM   16  C21 UNL     1      19.687  49.560   7.948  1.00  0.00     0.013 A 
ENDBRANCH   5   7
BRANCH   4  17
HETATM   17  C6  UNL     1      16.541  52.856   5.109  1.00  0.00     0.051 A 
HETATM   18  C7  UNL     1      15.178  53.089   5.367  1.00  0.00     0.031 A 
HETATM   19  C8  UNL     1      14.577  54.332   5.134  1.00  0.00     0.002 A 
HETATM   20  C9  UNL     1      15.336  55.385   4.640  1.00  0.00     0.000 A 
HETATM   21  C10 UNL     1      16.687  55.192   4.385  1.00  0.00     0.002 A 
HETATM   22  C11 UNL     1      17.280  53.944   4.619  1.00  0.00     0.031 A 
ENDBRANCH   4  17
BRANCH   1  23
HETATM   23  C4  UNL     1      17.150  48.179   4.277  1.00  0.00    -0.012 A 
HETATM   24  C3  UNL     1      15.827  47.783   4.046  1.00  0.00     0.013 A 
HETATM   25  C2  UNL     1      15.551  46.516   3.530  1.00  0.00     0.001 A 
HETATM   26  C1  UNL     1      16.595  45.638   3.244  1.00  0.00     0.000 A 
HETATM   27  C25 UNL     1      17.915  46.025   3.475  1.00  0.00     0.001 A 
HETATM   28  C24 UNL     1      18.195  47.293   3.991  1.00  0.00     0.013 A 
ENDBRANCH   1  23
TORSDOF 3
ENDMDL
MODEL 2
REMARK minimizedAffinity -6.33162642
REMARK CNNscore 0.761727214
REMARK CNNaffinity 6.03449392
REMARK  3 active torsions:
REMARK  status: ('A' for Active; 'I' for Inactive)
REMARK    1  A    between atoms: C4_4  and  C5_5 
REMARK    2  A    between atoms: N2_8  and  C6_9 
REMARK    3  A    between atoms: C12_15  and  C13_16 
ROOT
HETATM    1  C5  UNL     1      13.167  61.290   3.558  1.00  0.00     0.038 C 
HETATM    2  N1  UNL     1      12.479  62.341   3.886  1.00  0.00    -0.301 N 
ATOM      3  H1  UNL     1      11.783  62.810   3.306  1.00  0.00     0.187 HD
HETATM    4  N2  UNL     1      12.856  62.709   5.156  1.00  0.00    -0.283 N 
HETATM    5  C12 UNL     1      14.017  61.940   5.620  1.00  0.00     0.148 C 
HETATM    6  C23 UNL     1      14.126  60.803   4.603  1.00  0.00     0.091 C 
ENDROOT
BRANCH   5   7
HETATM    7  C13 UNL     1      13.950  61.403   7.047  1.00  0.00    -0.022 A 
HETATM    8  C14 UNL     1      15.126  61.551   7.818  1.00  0.00     0.010 A 
HETATM    9  C15 UNL     1      15.201  61.080   9.123  1.00  0.00     0.002 A 
HETATM   10  C16 UNL     1      14.105  60.438   9.686  1.00  0.00     0.012 A 
HETATM   11  C17 UNL     1      12.924  60.255   8.956  1.00  0.00    -0.025 A 
HETATM   12  C18 UNL     1      11.843  59.591   9.559  1.00  0.00     0.012 A 
HETATM   13  C22 UNL     1      12.823  60.734   7.620  1.00  0.00    -0.018 A 
HETATM   14  C19 UNL     1      10.651  59.381   8.871  1.00  0.00     0.001 A 
HETATM   15  C20 UNL     1      10.527  59.836   7.568  1.00  0.00     0.001 A 
HETATM   16  C21 UNL     1      11.594  60.498   6.955  1.00  0.00     0.013 A 
ENDBRANCH   5   7
BRANCH   4  17
HETATM   17  C6  UNL     1      12.537  64.002   5.591  1.00  0.00     0.051 A 
HETATM   18  C7  UNL     1      12.809  65.115   4.773  1.00  0.00     0.031 A 
HETATM   19  C8  UNL     1      12.496  66.422   5.163  1.00  0.00     0.002 A 
HETATM   20  C9  UNL     1      11.890  66.651   6.392  1.00  0.00     0.000 A 
HETATM   21  C10 UNL     1      11.598  65.574   7.219  1.00  0.00     0.002 A 
HETATM   22  C11 UNL     1      11.915  64.268   6.821  1.00  0.00     0.031 A 
ENDBRANCH   4  17
BRANCH   1  23
HETATM   23  C4  UNL     1      13.020  60.601   2.255  1.00  0.00    -0.012 A 
HETATM   24  C3  UNL     1      13.311  59.233   2.174  1.00  0.00     0.013 A 
HETATM   25  C2  UNL     1      13.181  58.556   0.961  1.00  0.00     0.001 A 
HETATM   26  C1  UNL     1      12.762  59.241  -0.178  1.00  0.00     0.000 A 
HETATM   27  C25 UNL     1      12.473  60.604  -0.106  1.00  0.00     0.001 A 
HETATM   28  C24 UNL     1      12.602  61.285   1.108  1.00  0.00     0.013 A 
ENDBRANCH   1  23
TORSDOF 3
ENDMDL
MODEL 3
REMARK minimizedAffinity -6.53945398
REMARK CNNscore 0.740412176
REMARK CNNaffinity 5.79856348
REMARK  3 active torsions:
REMARK  status: ('A' for Active; 'I' for Inactive)
REMARK    1  A    between atoms: C4_4  and  C5_5 
REMARK    2  A    between atoms: N2_8  and  C6_9 
REMARK    3  A    between atoms: C12_15  and  C13_16 
ROOT
HETATM    1  C5  UNL     1      12.653  52.688  -2.385  1.00  0.00     0.038 C 
HETATM    2  N1  UNL     1      11.689  53.557  -2.400  1.00  0.00    -0.301 N 
ATOM      3  H1  UNL     1      10.703  53.366  -2.220  1.00  0.00     0.187 HD
HETATM    4  N2  UNL     1      12.235  54.782  -2.703  1.00  0.00    -0.283 N 
HETATM    5  C12 UNL     1      13.644  54.665  -3.097  1.00  0.00     0.148 C 
HETATM    6  C23 UNL     1      14.015  53.239  -2.686  1.00  0.00     0.091 C 
ENDROOT
BRANCH   5   7
HETATM    7  C13 UNL     1      14.606  55.684  -2.492  1.00  0.00    -0.022 A 
HETATM    8  C14 UNL     1      15.654  56.119  -3.336  1.00  0.00     0.010 A 
HETATM    9  C15 UNL     1      16.609  57.027  -2.894  1.00  0.00     0.002 A 
HETATM   10  C16 UNL     1      16.548  57.511  -1.594  1.00  0.00     0.012 A 
HETATM   11  C17 UNL     1      15.537  57.097  -0.717  1.00  0.00    -0.025 A 
HETATM   12  C18 UNL     1      15.518  57.602   0.594  1.00  0.00     0.012 A 
HETATM   13  C22 UNL     1      14.546  56.173  -1.149  1.00  0.00    -0.018 A 
HETATM   14  C19 UNL     1      14.537  57.215   1.502  1.00  0.00     0.001 A 
HETATM   15  C20 UNL     1      13.560  56.315   1.107  1.00  0.00     0.001 A 
HETATM   16  C21 UNL     1      13.566  55.804  -0.194  1.00  0.00     0.013 A 
ENDBRANCH   5   7
BRANCH   4  17
HETATM   17  C6  UNL     1      11.374  55.800  -3.136  1.00  0.00     0.051 A 
HETATM   18  C7  UNL     1      11.038  56.862  -2.275  1.00  0.00     0.031 A 
HETATM   19  C8  UNL     1      10.192  57.904  -2.671  1.00  0.00     0.002 A 
HETATM   20  C9  UNL     1       9.660  57.914  -3.954  1.00  0.00     0.000 A 
HETATM   21  C10 UNL     1       9.980  56.886  -4.833  1.00  0.00     0.002 A 
HETATM   22  C11 UNL     1      10.827  55.847  -4.428  1.00  0.00     0.031 A 
ENDBRANCH   4  17
BRANCH   1  23
HETATM   23  C4  UNL     1      12.444  51.253  -2.082  1.00  0.00    -0.012 A 
HETATM   24  C3  UNL     1      13.562  50.429  -1.899  1.00  0.00     0.013 A 
HETATM   25  C2  UNL     1      13.397  49.073  -1.610  1.00  0.00     0.001 A 
HETATM   26  C1  UNL     1      12.116  48.534  -1.505  1.00  0.00     0.000 A 
HETATM   27  C25 UNL     1      10.999  49.348  -1.689  1.00  0.00     0.001 A 
HETATM   28  C24 UNL     1      11.160  50.707  -1.977  1.00  0.00     0.013 A 
ENDBRANCH   1  23
TORSDOF 3
ENDMDL
MODEL 4
REMARK minimizedAffinity -7.26431561
REMARK CNNscore 0.642035484
REMARK CNNaffinity 5.79266167
REMARK  3 active torsions:
REMARK  status: ('A' for Active; 'I' for Inactive)
REMARK    1  A    between atoms: C4_4  and  C5_5 
REMARK    2  A    between atoms: N2_8  and  C6_9 
REMARK    3  A    between atoms: C12_15  and  C13_16 
ROOT
HETATM    1  C5  UNL     1      12.801  60.365   3.167  1.00  0.00     0.038 C 
HETATM    2  N1  UNL     1      12.359  61.558   3.428  1.00  0.00    -0.301 N 
ATOM      3  H1  UNL     1      12.043  62.245   2.744  1.00  0.00     0.187 HD
HETATM    4  N2  UNL     1      12.394  61.728   4.792  1.00  0.00    -0.283 N 
HETATM    5  C12 UNL     1      13.087  60.620   5.459  1.00  0.00     0.148 C 
HETATM    6  C23 UNL     1      13.201  59.556   4.365  1.00  0.00     0.091 C 
ENDROOT
BRANCH   5   7
HETATM    7  C13 UNL     1      12.422  60.056   6.712  1.00  0.00    -0.022 A 
HETATM    8  C14 UNL     1      11.038  60.314   6.844  1.00  0.00     0.010 A 
HETATM    9  C15 UNL     1      10.323  59.876   7.952  1.00  0.00     0.002 A 
HETATM   10  C16 UNL     1      10.977  59.180   8.961  1.00  0.00     0.012 A 
HETATM   11  C17 UNL     1      12.350  58.915   8.881  1.00  0.00    -0.025 A 
HETATM   12  C18 UNL     1      12.975  58.219   9.929  1.00  0.00     0.012 A 
HETATM   13  C22 UNL     1      13.101  59.349   7.754  1.00  0.00    -0.018 A 
HETATM   14  C19 UNL     1      14.338  57.937   9.896  1.00  0.00     0.001 A 
HETATM   15  C20 UNL     1      15.093  58.350   8.810  1.00  0.00     0.001 A 
HETATM   16  C21 UNL     1      14.484  59.044   7.760  1.00  0.00     0.013 A 
ENDBRANCH   5   7
BRANCH   4  17
HETATM   17  C6  UNL     1      12.319  63.033   5.296  1.00  0.00     0.051 A 
HETATM   18  C7  UNL     1      12.600  64.134   4.465  1.00  0.00     0.031 A 
HETATM   19  C8  UNL     1      12.525  65.454   4.925  1.00  0.00     0.002 A 
HETATM   20  C9  UNL     1      12.158  65.709   6.240  1.00  0.00     0.000 A 
HETATM   21  C10 UNL     1      11.864  64.645   7.085  1.00  0.00     0.002 A 
HETATM   22  C11 UNL     1      11.942  63.327   6.616  1.00  0.00     0.031 A 
ENDBRANCH   4  17
BRANCH   1  23
HETATM   23  C4  UNL     1      12.897  59.821   1.793  1.00  0.00    -0.012 A 
HETATM   24  C3  UNL     1      13.117  58.448   1.621  1.00  0.00     0.013 A 
HETATM   25  C2  UNL     1      13.212  57.905   0.338  1.00  0.00     0.001 A 
HETATM   26  C1  UNL     1      13.089  58.730  -0.778  1.00  0.00     0.000 A 
HETATM   27  C25 UNL     1      12.873  60.098  -0.614  1.00  0.00     0.001 A 
HETATM   28  C24 UNL     1      12.777  60.645   0.669  1.00  0.00     0.013 A 
ENDBRANCH   1  23
TORSDOF 3
ENDMDL
MODEL 5
REMARK minimizedAffinity -6.74200583
REMARK CNNscore 0.641230106
REMARK CNNaffinity 5.47531128
REMARK  3 active torsions:
REMARK  status: ('A' for Active; 'I' for Inactive)
REMARK    1  A    between atoms: C4_4  and  C5_5 
REMARK    2  A    between atoms: N2_8  and  C6_9 
REMARK    3  A    between atoms: C12_15  and  C13_16 
ROOT
HETATM    1  C5  UNL     1      17.071  51.957   5.434  1.00  0.00     0.038 C 
HETATM    2  N1  UNL     1      16.743  50.807   4.930  1.00  0.00    -0.301 N 
ATOM      3  H1  UNL     1      15.994  50.636   4.259  1.00  0.00     0.187 HD
HETATM    4  N2  UNL     1      17.585  49.860   5.463  1.00  0.00    -0.283 N 
HETATM    5  C12 UNL     1      18.410  50.415   6.542  1.00  0.00     0.148 C 
HETATM    6  C23 UNL     1      18.216  51.926   6.403  1.00  0.00     0.091 C 
ENDROOT
BRANCH   5   7
HETATM    7  C13 UNL     1      19.891  50.043   6.525  1.00  0.00    -0.022 A 
HETATM    8  C14 UNL     1      20.596  50.370   5.344  1.00  0.00     0.010 A 
HETATM    9  C15 UNL     1      21.943  50.061   5.196  1.00  0.00     0.002 A 
HETATM   10  C16 UNL     1      22.614  49.406   6.220  1.00  0.00     0.012 A 
HETATM   11  C17 UNL     1      21.954  49.049   7.403  1.00  0.00    -0.025 A 
HETATM   12  C18 UNL     1      22.667  48.377   8.409  1.00  0.00     0.012 A 
HETATM   13  C22 UNL     1      20.577  49.360   7.578  1.00  0.00    -0.018 A 
HETATM   14  C19 UNL     1      22.051  47.997   9.598  1.00  0.00     0.001 A 
HETATM   15  C20 UNL     1      20.711  48.287   9.794  1.00  0.00     0.001 A 
HETATM   16  C21 UNL     1      19.988  48.954   8.801  1.00  0.00     0.013 A 
ENDBRANCH   5   7
BRANCH   4  17
HETATM   17  C6  UNL     1      17.209  48.513   5.366  1.00  0.00     0.051 A 
HETATM   18  C7  UNL     1      16.467  48.060   4.259  1.00  0.00     0.031 A 
HETATM   19  C8  UNL     1      16.082  46.722   4.117  1.00  0.00     0.002 A 
HETATM   20  C9  UNL     1      16.440  45.792   5.085  1.00  0.00     0.000 A 
HETATM   21  C10 UNL     1      17.182  46.204   6.185  1.00  0.00     0.002 A 
HETATM   22  C11 UNL     1      17.563  47.546   6.319  1.00  0.00     0.031 A 
ENDBRANCH   4  17
BRANCH   1  23
HETATM   23  C4  UNL     1      16.385  53.222   5.081  1.00  0.00    -0.012 A 
HETATM   24  C3  UNL     1      17.145  54.289   4.583  1.00  0.00     0.013 A 
HETATM   25  C2  UNL     1      16.527  55.493   4.240  1.00  0.00     0.001 A 
HETATM   26  C1  UNL     1      15.149  55.637   4.394  1.00  0.00     0.000 A 
HETATM   27  C25 UNL     1      14.388  54.580   4.892  1.00  0.00     0.001 A 
HETATM   28  C24 UNL     1      15.003  53.373   5.236  1.00  0.00     0.013 A 
ENDBRANCH   1  23
TORSDOF 3
ENDMDL
MODEL 6
REMARK minimizedAffinity -6.42916346
REMARK CNNscore 0.595507681
REMARK CNNaffinity 5.60760307
REMARK  3 active torsions:
REMARK  status: ('A' for Active; 'I' for Inactive)
REMARK    1  A    between atoms: C4_4  and  C5_5 
REMARK    2  A    between atoms: N2_8  and  C6_9 
REMARK    3  A    between atoms: C12_15  and  C13_16 
ROOT
HETATM    1  C5  UNL     1      17.007  51.806   5.449  1.00  0.00     0.038 C 
HETATM    2  N1  UNL     1      16.788  50.721   4.770  1.00  0.00    -0.301 N 
ATOM      3  H1  UNL     1      16.185  50.635   3.951  1.00  0.00     0.187 HD
HETATM    4  N2  UNL     1      17.513  49.709   5.353  1.00  0.00    -0.283 N 
HETATM    5  C12 UNL     1      18.109  50.133   6.625  1.00  0.00     0.148 C 
HETATM    6  C23 UNL     1      17.939  51.653   6.613  1.00  0.00     0.091 C 
ENDROOT
BRANCH   5   7
HETATM    7  C13 UNL     1      19.565  49.740   6.859  1.00  0.00    -0.022 A 
HETATM    8  C14 UNL     1      19.886  48.386   6.609  1.00  0.00     0.010 A 
HETATM    9  C15 UNL     1      21.172  47.899   6.808  1.00  0.00     0.002 A 
HETATM   10  C16 UNL     1      22.166  48.750   7.274  1.00  0.00     0.012 A 
HETATM   11  C17 UNL     1      21.891  50.095   7.549  1.00  0.00    -0.025 A 
HETATM   12  C18 UNL     1      22.922  50.920   8.030  1.00  0.00     0.012 A 
HETATM   13  C22 UNL     1      20.583  50.617   7.348  1.00  0.00    -0.018 A 
HETATM   14  C19 UNL     1      22.695  52.262   8.323  1.00  0.00     0.001 A 
HETATM   15  C20 UNL     1      21.430  52.795   8.137  1.00  0.00     0.001 A 
HETATM   16  C21 UNL     1      20.394  51.986   7.660  1.00  0.00     0.013 A 
ENDBRANCH   5   7
BRANCH   4  17
HETATM   17  C6  UNL     1      17.169  48.386   5.041  1.00  0.00     0.051 A 
HETATM   18  C7  UNL     1      16.379  47.629   5.927  1.00  0.00     0.031 A 
HETATM   19  C8  UNL     1      16.003  46.311   5.649  1.00  0.00     0.002 A 
HETATM   20  C9  UNL     1      16.406  45.711   4.462  1.00  0.00     0.000 A 
HETATM   21  C10 UNL     1      17.178  46.434   3.561  1.00  0.00     0.002 A 
HETATM   22  C11 UNL     1      17.551  47.754   3.848  1.00  0.00     0.031 A 
ENDBRANCH   4  17
BRANCH   1  23
HETATM   23  C4  UNL     1      16.398  53.112   5.105  1.00  0.00    -0.012 A 
HETATM   24  C3  UNL     1      17.225  54.144   4.641  1.00  0.00     0.013 A 
HETATM   25  C2  UNL     1      16.680  55.386   4.308  1.00  0.00     0.001 A 
HETATM   26  C1  UNL     1      15.310  55.603   4.438  1.00  0.00     0.000 A 
HETATM   27  C25 UNL     1      14.482  54.581   4.902  1.00  0.00     0.001 A 
HETATM   28  C24 UNL     1      15.023  53.336   5.236  1.00  0.00     0.013 A 
ENDBRANCH   1  23
TORSDOF 3
ENDMDL
MODEL 7
REMARK minimizedAffinity -6.4501791
REMARK CNNscore 0.587871194
REMARK CNNaffinity 5.57091665
REMARK  3 active torsions:
REMARK  status: ('A' for Active; 'I' for Inactive)
REMARK    1  A    between atoms: C4_4  and  C5_5 
REMARK    2  A    between atoms: N2_8  and  C6_9 
REMARK    3  A    between atoms: C12_15  and  C13_16 
ROOT
HETATM    1  C5  UNL     1      16.976  52.508   5.367  1.00  0.00     0.038 C 
HETATM    2  N1  UNL     1      16.804  51.306   4.907  1.00  0.00    -0.301 N 
ATOM      3  H1  UNL     1      16.098  51.015   4.231  1.00  0.00     0.187 HD
HETATM    4  N2  UNL     1      17.744  50.494   5.496  1.00  0.00    -0.283 N 
HETATM    5  C12 UNL     1      18.470  51.192   6.564  1.00  0.00     0.148 C 
HETATM    6  C23 UNL     1      18.092  52.660   6.356  1.00  0.00     0.091 C 
ENDROOT
BRANCH   5   7
HETATM    7  C13 UNL     1      19.985  51.007   6.590  1.00  0.00    -0.022 A 
HETATM    8  C14 UNL     1      20.660  51.274   5.377  1.00  0.00     0.010 A 
HETATM    9  C15 UNL     1      22.036  51.119   5.265  1.00  0.00     0.002 A 
HETATM   10  C16 UNL     1      22.770  50.682   6.360  1.00  0.00     0.012 A 
HETATM   11  C17 UNL     1      22.143  50.391   7.578  1.00  0.00    -0.025 A 
HETATM   12  C18 UNL     1      22.921  49.939   8.657  1.00  0.00     0.012 A 
HETATM   13  C22 UNL     1      20.736  50.547   7.717  1.00  0.00    -0.018 A 
HETATM   14  C19 UNL     1      22.341  49.632   9.885  1.00  0.00     0.001 A 
HETATM   15  C20 UNL     1      20.972  49.774  10.047  1.00  0.00     0.001 A 
HETATM   16  C21 UNL     1      20.186  50.222   8.981  1.00  0.00     0.013 A 
ENDBRANCH   5   7
BRANCH   4  17
HETATM   17  C6  UNL     1      17.541  49.108   5.451  1.00  0.00     0.051 A 
HETATM   18  C7  UNL     1      16.988  48.507   4.305  1.00  0.00     0.031 A 
HETATM   19  C8  UNL     1      16.779  47.127   4.214  1.00  0.00     0.002 A 
HETATM   20  C9  UNL     1      17.130  46.302   5.275  1.00  0.00     0.000 A 
HETATM   21  C10 UNL     1      17.689  46.861   6.417  1.00  0.00     0.002 A 
HETATM   22  C11 UNL     1      17.894  48.245   6.500  1.00  0.00     0.031 A 
ENDBRANCH   4  17
BRANCH   1  23
HETATM   23  C4  UNL     1      16.146  53.661   4.946  1.00  0.00    -0.012 A 
HETATM   24  C3  UNL     1      14.768  53.631   5.193  1.00  0.00     0.013 A 
HETATM   25  C2  UNL     1      13.960  54.704   4.810  1.00  0.00     0.001 A 
HETATM   26  C1  UNL     1      14.525  55.810   4.177  1.00  0.00     0.000 A 
HETATM   27  C25 UNL     1      15.897  55.844   3.925  1.00  0.00     0.001 A 
HETATM   28  C24 UNL     1      16.708  54.772   4.308  1.00  0.00     0.013 A 
ENDBRANCH   1  23
TORSDOF 3
ENDMDL
MODEL 8
REMARK minimizedAffinity -6.56045723
REMARK CNNscore 0.564828753
REMARK CNNaffinity 5.45198965
REMARK  3 active torsions:
REMARK  status: ('A' for Active; 'I' for Inactive)
REMARK    1  A    between atoms: C4_4  and  C5_5 
REMARK    2  A    between atoms: N2_8  and  C6_9 
REMARK    3  A    between atoms: C12_15  and  C13_16 
ROOT
HETATM    1  C5  UNL     1      17.017  52.024   5.434  1.00  0.00     0.038 C 
HETATM    2  N1  UNL     1      16.709  50.874   4.918  1.00  0.00    -0.301 N 
ATOM      3  H1  UNL     1      15.986  50.702   4.219  1.00  0.00     0.187 HD
HETATM    4  N2  UNL     1      17.530  49.927   5.483  1.00  0.00    -0.283 N 
HETATM    5  C12 UNL     1      18.314  50.483   6.592  1.00  0.00     0.148 C 
HETATM    6  C23 UNL     1      18.124  51.994   6.446  1.00  0.00     0.091 C 
ENDROOT
BRANCH   5   7
HETATM    7  C13 UNL     1      19.794  50.112   6.632  1.00  0.00    -0.022 A 
HETATM    8  C14 UNL     1      20.299  49.724   7.894  1.00  0.00     0.010 A 
HETATM    9  C15 UNL     1      21.636  49.387   8.066  1.00  0.00     0.002 A 
HETATM   10  C16 UNL     1      22.504  49.442   6.984  1.00  0.00     0.012 A 
HETATM   11  C17 UNL     1      22.053  49.835   5.718  1.00  0.00    -0.025 A 
HETATM   12  C18 UNL     1      22.966  49.889   4.652  1.00  0.00     0.012 A 
HETATM   13  C22 UNL     1      20.688  50.180   5.517  1.00  0.00    -0.018 A 
HETATM   14  C19 UNL     1      22.565  50.279   3.377  1.00  0.00     0.001 A 
HETATM   15  C20 UNL     1      21.241  50.621   3.155  1.00  0.00     0.001 A 
HETATM   16  C21 UNL     1      20.321  50.574   4.206  1.00  0.00     0.013 A 
ENDBRANCH   5   7
BRANCH   4  17
HETATM   17  C6  UNL     1      17.160  48.580   5.372  1.00  0.00     0.051 A 
HETATM   18  C7  UNL     1      16.412  48.137   4.265  1.00  0.00     0.031 A 
HETATM   19  C8  UNL     1      16.032  46.800   4.109  1.00  0.00     0.002 A 
HETATM   20  C9  UNL     1      16.400  45.860   5.064  1.00  0.00     0.000 A 
HETATM   21  C10 UNL     1      17.147  46.262   6.164  1.00  0.00     0.002 A 
HETATM   22  C11 UNL     1      17.523  47.603   6.312  1.00  0.00     0.031 A 
ENDBRANCH   4  17
BRANCH   1  23
HETATM   23  C4  UNL     1      16.345  53.288   5.054  1.00  0.00    -0.012 A 
HETATM   24  C3  UNL     1      14.959  53.399   5.231  1.00  0.00     0.013 A 
HETATM   25  C2  UNL     1      14.297  54.578   4.884  1.00  0.00     0.001 A 
HETATM   26  C1  UNL     1      15.015  55.651   4.357  1.00  0.00     0.000 A 
HETATM   27  C25 UNL     1      16.394  55.546   4.175  1.00  0.00     0.001 A 
HETATM   28  C24 UNL     1      17.060  54.367   4.522  1.00  0.00     0.013 A 
ENDBRANCH   1  23
TORSDOF 3
ENDMDL
MODEL 9
REMARK minimizedAffinity -7.18698263
REMARK CNNscore 0.54068172
REMARK CNNaffinity 4.8384099
REMARK  3 active torsions:
REMARK  status: ('A' for Active; 'I' for Inactive)
REMARK    1  A    between atoms: C4_4  and  C5_5 
REMARK    2  A    between atoms: N2_8  and  C6_9 
REMARK    3  A    between atoms: C12_15  and  C13_16 
ROOT
HETATM    1  C5  UNL     1       4.600  65.139  -5.364  1.00  0.00     0.038 C 
HETATM    2  N1  UNL     1       3.687  65.464  -6.228  1.00  0.00    -0.301 N 
ATOM      3  H1  UNL     1       3.776  65.419  -7.243  1.00  0.00     0.187 HD
HETATM    4  N2  UNL     1       2.578  65.880  -5.529  1.00  0.00    -0.283 N 
HETATM    5  C12 UNL     1       2.859  66.009  -4.094  1.00  0.00     0.148 C 
HETATM    6  C23 UNL     1       4.205  65.302  -3.926  1.00  0.00     0.091 C 
ENDROOT
BRANCH   5   7
HETATM    7  C13 UNL     1       1.811  65.438  -3.143  1.00  0.00    -0.022 A 
HETATM    8  C14 UNL     1       1.431  64.096  -3.375  1.00  0.00     0.010 A 
HETATM    9  C15 UNL     1       0.468  63.470  -2.592  1.00  0.00     0.002 A 
HETATM   10  C16 UNL     1      -0.149  64.175  -1.567  1.00  0.00     0.012 A 
HETATM   11  C17 UNL     1       0.183  65.511  -1.309  1.00  0.00    -0.025 A 
HETATM   12  C18 UNL     1      -0.473  66.191  -0.270  1.00  0.00     0.012 A 
HETATM   13  C22 UNL     1       1.170  66.170  -2.093  1.00  0.00    -0.018 A 
HETATM   14  C19 UNL     1      -0.180  67.521   0.020  1.00  0.00     0.001 A 
HETATM   15  C20 UNL     1       0.776  68.187  -0.730  1.00  0.00     0.001 A 
HETATM   16  C21 UNL     1       1.436  67.523  -1.768  1.00  0.00     0.013 A 
ENDBRANCH   5   7
BRANCH   4  17
HETATM   17  C6  UNL     1       1.605  66.619  -6.215  1.00  0.00     0.051 A 
HETATM   18  C7  UNL     1       1.781  66.939  -7.574  1.00  0.00     0.031 A 
HETATM   19  C8  UNL     1       0.829  67.664  -8.299  1.00  0.00     0.002 A 
HETATM   20  C9  UNL     1      -0.340  68.085  -7.678  1.00  0.00     0.000 A 
HETATM   21  C10 UNL     1      -0.551  67.776  -6.340  1.00  0.00     0.002 A 
HETATM   22  C11 UNL     1       0.408  67.051  -5.622  1.00  0.00     0.031 A 
ENDBRANCH   4  17
BRANCH   1  23
HETATM   23  C4  UNL     1       5.937  64.631  -5.751  1.00  0.00    -0.012 A 
HETATM   24  C3  UNL     1       6.564  65.168  -6.883  1.00  0.00     0.013 A 
HETATM   25  C2  UNL     1       7.824  64.710  -7.272  1.00  0.00     0.001 A 
HETATM   26  C1  UNL     1       8.463  63.714  -6.534  1.00  0.00     0.000 A 
HETATM   27  C25 UNL     1       7.841  63.174  -5.408  1.00  0.00     0.001 A 
HETATM   28  C24 UNL     1       6.580  63.630  -5.015  1.00  0.00     0.013 A 
ENDBRANCH   1  23
TORSDOF 3
ENDMDL
