MODEL 1
REMARK minimizedAffinity -8.86946678
REMARK CNNscore 0.441861987
REMARK CNNaffinity 7.28431511
REMARK  9 active torsions:
REMARK  status: ('A' for Active; 'I' for Inactive)
REMARK    1  A    between atoms: O1_2  and  N1_3 
REMARK       I    between atoms: N1_3  and  C2_4 
REMARK    2  A    between atoms: C2_4  and  C3_6 
REMARK    3  A    between atoms: C5_8  and  N2_9 
REMARK    4  A    between atoms: N2_9  and  C6_10 
REMARK    5  A    between atoms: C9_18  and  N6_19 
REMARK       I    between atoms: N6_19  and  C10_20 
REMARK    6  A    between atoms: C10_20  and  O4_22 
REMARK    7  A    between atoms: O4_22  and  C11_23 
REMARK    8  A    between atoms: C11_23  and  C12_24 
REMARK    9  A    between atoms: C16_29  and  C17_30 
ROOT
HETATM    1  C6  UNL     1      -5.181   5.003  12.813  1.00  0.00     0.136 A 
HETATM    2  N3  UNL     1      -6.091   4.089  12.624  1.00  0.00    -0.336 N 
ATOM      3  H3  UNL     1      -7.053   4.266  12.913  1.00  0.00     0.168 HD
HETATM    4  C7  UNL     1      -5.771   2.899  12.043  1.00  0.00     0.199 A 
HETATM    5  N4  UNL     1      -4.601   2.532  11.639  1.00  0.00    -0.289 N 
ATOM      6  H4  UNL     1      -4.419   1.629  11.202  1.00  0.00     0.188 HD
HETATM    7  N5  UNL     1      -3.647   3.450  11.846  1.00  0.00    -0.260 N 
HETATM    8  C8  UNL     1      -2.346   3.275  11.493  1.00  0.00     0.147 C 
HETATM    9  C9  UNL     1      -1.647   4.410  11.825  1.00  0.00     0.063 C 
HETATM   10  C16 UNL     1      -2.553   5.274  12.548  1.00  0.00     0.006 C 
HETATM   11  C20 UNL     1      -3.819   4.672  12.441  1.00  0.00     0.109 A 
ENDROOT
BRANCH   1  12
HETATM   12  N2  UNL     1      -5.539   6.211  13.368  1.00  0.00    -0.338 N 
HETATM   13  H6  UNL     1      -5.033   7.026  13.073  1.00  0.00     0.167 HD
BRANCH  12  14
HETATM   14  C5  UNL     1      -6.480   6.454  14.388  1.00  0.00     0.073 A 
HETATM   15  C4  UNL     1      -7.788   6.803  14.012  1.00  0.00     0.053 A 
HETATM   16  C3  UNL     1      -8.764   7.132  14.970  1.00  0.00     0.074 A 
HETATM   17  C23 UNL     1      -8.417   7.105  16.321  1.00  0.00     0.135 A 
HETATM   18  C22 UNL     1      -7.134   6.753  16.720  1.00  0.00     0.088 A 
HETATM   19  F2  UNL     1      -9.317   7.396  17.272  1.00  0.00    -0.205 F 
HETATM   20  C21 UNL     1      -6.178   6.435  15.759  1.00  0.00     0.146 A 
HETATM   21  F1  UNL     1      -4.975   6.035  16.193  1.00  0.00    -0.204 F 
BRANCH  16  22
HETATM   22  C2  UNL     1     -10.126   7.498  14.490  1.00  0.00     0.278 C 
HETATM   23  N1  UNL     1     -11.029   6.467  14.334  1.00  0.00    -0.231 N 
HETATM   24  H4  UNL     1     -10.691   5.516  14.210  1.00  0.00     0.197 HD
HETATM   25  O2  UNL     1     -10.375   8.679  14.261  1.00  0.00    -0.265 OA
BRANCH  23  26
HETATM   26  O1  UNL     1     -12.149   6.795  13.531  1.00  0.00    -0.282 OA
HETATM   27  C1  UNL     1     -13.321   6.315  14.180  1.00  0.00     0.237 C 
ENDBRANCH  23  26
ENDBRANCH  16  22
ENDBRANCH  12  14
ENDBRANCH   1  12
BRANCH  10  28
HETATM   28  C17 UNL     1      -2.124   6.516  13.305  1.00  0.00     0.015 C 
HETATM   29  C18 UNL     1      -2.214   6.364  14.827  1.00  0.00     0.015 C 
HETATM   30  C19 UNL     1      -2.751   7.807  12.783  1.00  0.00     0.015 C 
ENDBRANCH  10  28
BRANCH   9  31
HETATM   31  N6  UNL     1      -0.308   4.504  11.495  1.00  0.00    -0.301 N 
HETATM   32  C10 UNL     1       0.330   5.538  10.871  1.00  0.00     0.365 C 
HETATM   33  O3  UNL     1      -0.138   6.594  10.474  1.00  0.00    -0.238 OA
HETATM   34  H9  UNL     1       0.224   3.645  11.468  1.00  0.00     0.171 HD
BRANCH  32  35
HETATM   35  O4  UNL     1       1.628   5.176  10.692  1.00  0.00    -0.301 OA
BRANCH  35  36
HETATM   36  C11 UNL     1       2.604   6.210  10.924  1.00  0.00     0.212 C 
BRANCH  36  37
HETATM   37  C12 UNL     1       3.497   6.400   9.690  1.00  0.00     0.145 C 
HETATM   38  C13 UNL     1       2.818   5.963   8.402  1.00  0.00     0.036 C 
HETATM   39  C14 UNL     1       2.164   7.231   7.917  1.00  0.00     0.029 C 
HETATM   40  C15 UNL     1       3.172   8.279   8.329  1.00  0.00     0.168 C 
HETATM   41  O5  UNL     1       3.784   7.808   9.536  1.00  0.00    -0.384 OA
ENDBRANCH  36  37
ENDBRANCH  35  36
ENDBRANCH  32  35
ENDBRANCH   9  31
TORSDOF 9
ENDMDL
MODEL 2
REMARK minimizedAffinity -9.07923889
REMARK CNNscore 0.391895741
REMARK CNNaffinity 7.3425107
REMARK  9 active torsions:
REMARK  status: ('A' for Active; 'I' for Inactive)
REMARK    1  A    between atoms: O1_2  and  N1_3 
REMARK       I    between atoms: N1_3  and  C2_4 
REMARK    2  A    between atoms: C2_4  and  C3_6 
REMARK    3  A    between atoms: C5_8  and  N2_9 
REMARK    4  A    between atoms: N2_9  and  C6_10 
REMARK    5  A    between atoms: C9_18  and  N6_19 
REMARK       I    between atoms: N6_19  and  C10_20 
REMARK    6  A    between atoms: C10_20  and  O4_22 
REMARK    7  A    between atoms: O4_22  and  C11_23 
REMARK    8  A    between atoms: C11_23  and  C12_24 
REMARK    9  A    between atoms: C16_29  and  C17_30 
ROOT
HETATM    1  C6  UNL     1      -5.849   4.032  12.862  1.00  0.00     0.136 A 
HETATM    2  N3  UNL     1      -6.661   3.043  12.611  1.00  0.00    -0.336 N 
ATOM      3  H3  UNL     1      -7.590   3.032  13.033  1.00  0.00     0.168 HD
HETATM    4  C7  UNL     1      -6.281   2.023  11.793  1.00  0.00     0.199 A 
HETATM    5  N4  UNL     1      -5.140   1.897  11.202  1.00  0.00    -0.289 N 
ATOM      6  H4  UNL     1      -4.911   1.113  10.591  1.00  0.00     0.188 HD
HETATM    7  N5  UNL     1      -4.283   2.892  11.467  1.00  0.00    -0.260 N 
HETATM    8  C8  UNL     1      -3.029   2.964  10.947  1.00  0.00     0.147 C 
HETATM    9  C9  UNL     1      -2.433   4.115  11.401  1.00  0.00     0.063 C 
HETATM   10  C16 UNL     1      -3.332   4.712  12.364  1.00  0.00     0.006 C 
HETATM   11  C20 UNL     1      -4.520   3.963  12.289  1.00  0.00     0.109 A 
ENDROOT
BRANCH   1  12
HETATM   12  N2  UNL     1      -6.273   5.069  13.664  1.00  0.00    -0.338 N 
HETATM   13  H6  UNL     1      -5.659   5.366  14.401  1.00  0.00     0.167 HD
BRANCH  12  14
HETATM   14  C5  UNL     1      -7.519   5.725  13.650  1.00  0.00     0.073 A 
HETATM   15  C4  UNL     1      -7.930   6.391  14.818  1.00  0.00     0.053 A 
HETATM   16  C3  UNL     1      -9.191   7.007  14.906  1.00  0.00     0.074 A 
HETATM   17  C23 UNL     1     -10.045   6.952  13.805  1.00  0.00     0.135 A 
HETATM   18  C22 UNL     1      -9.660   6.310  12.635  1.00  0.00     0.088 A 
HETATM   19  F2  UNL     1     -11.252   7.537  13.836  1.00  0.00    -0.205 F 
HETATM   20  C21 UNL     1      -8.410   5.701  12.565  1.00  0.00     0.146 A 
HETATM   21  F1  UNL     1      -8.054   5.153  11.395  1.00  0.00    -0.204 F 
BRANCH  16  22
HETATM   22  C2  UNL     1      -9.555   7.686  16.181  1.00  0.00     0.278 C 
HETATM   23  N1  UNL     1     -10.729   8.410  16.187  1.00  0.00    -0.231 N 
HETATM   24  H4  UNL     1     -11.120   8.744  15.311  1.00  0.00     0.197 HD
HETATM   25  O2  UNL     1      -8.805   7.572  17.147  1.00  0.00    -0.265 OA
BRANCH  23  26
HETATM   26  O1  UNL     1     -10.837   9.330  17.260  1.00  0.00    -0.282 OA
HETATM   27  C1  UNL     1     -10.548  10.632  16.764  1.00  0.00     0.237 C 
ENDBRANCH  23  26
ENDBRANCH  16  22
ENDBRANCH  12  14
ENDBRANCH   1  12
BRANCH  10  28
HETATM   28  C17 UNL     1      -2.957   5.859  13.282  1.00  0.00     0.015 C 
HETATM   29  C18 UNL     1      -2.879   5.457  14.758  1.00  0.00     0.015 C 
HETATM   30  C19 UNL     1      -3.762   7.134  13.039  1.00  0.00     0.015 C 
ENDBRANCH  10  28
BRANCH   9  31
HETATM   31  N6  UNL     1      -1.171   4.451  10.948  1.00  0.00    -0.301 N 
HETATM   32  C10 UNL     1      -0.013   4.521  11.668  1.00  0.00     0.365 C 
HETATM   33  O3  UNL     1       0.159   4.302  12.857  1.00  0.00    -0.238 OA
HETATM   34  H9  UNL     1      -1.112   4.942  10.065  1.00  0.00     0.171 HD
BRANCH  32  35
HETATM   35  O4  UNL     1       0.969   4.950  10.832  1.00  0.00    -0.301 OA
BRANCH  35  36
HETATM   36  C11 UNL     1       0.809   6.283  10.309  1.00  0.00     0.212 C 
BRANCH  36  37
HETATM   37  C12 UNL     1       2.153   6.841   9.823  1.00  0.00     0.145 C 
HETATM   38  C13 UNL     1       2.698   6.090   8.618  1.00  0.00     0.036 C 
HETATM   39  C14 UNL     1       2.143   6.869   7.453  1.00  0.00     0.029 C 
HETATM   40  C15 UNL     1       2.184   8.285   7.979  1.00  0.00     0.168 C 
HETATM   41  O5  UNL     1       1.961   8.207   9.392  1.00  0.00    -0.384 OA
ENDBRANCH  36  37
ENDBRANCH  35  36
ENDBRANCH  32  35
ENDBRANCH   9  31
TORSDOF 9
ENDMDL
MODEL 3
REMARK minimizedAffinity -8.26722527
REMARK CNNscore 0.388853073
REMARK CNNaffinity 7.3539443
REMARK  9 active torsions:
REMARK  status: ('A' for Active; 'I' for Inactive)
REMARK    1  A    between atoms: O1_2  and  N1_3 
REMARK       I    between atoms: N1_3  and  C2_4 
REMARK    2  A    between atoms: C2_4  and  C3_6 
REMARK    3  A    between atoms: C5_8  and  N2_9 
REMARK    4  A    between atoms: N2_9  and  C6_10 
REMARK    5  A    between atoms: C9_18  and  N6_19 
REMARK       I    between atoms: N6_19  and  C10_20 
REMARK    6  A    between atoms: C10_20  and  O4_22 
REMARK    7  A    between atoms: O4_22  and  C11_23 
REMARK    8  A    between atoms: C11_23  and  C12_24 
REMARK    9  A    between atoms: C16_29  and  C17_30 
ROOT
HETATM    1  C6  UNL     1      -5.878   3.589  12.031  1.00  0.00     0.136 A 
HETATM    2  N3  UNL     1      -6.366   2.445  11.639  1.00  0.00    -0.336 N 
ATOM      3  H3  UNL     1      -7.378   2.314  11.603  1.00  0.00     0.168 HD
HETATM    4  C7  UNL     1      -5.541   1.424  11.278  1.00  0.00     0.199 A 
HETATM    5  N4  UNL     1      -4.250   1.441  11.283  1.00  0.00    -0.289 N 
ATOM      6  H4  UNL     1      -3.680   0.647  10.994  1.00  0.00     0.188 HD
HETATM    7  N5  UNL     1      -3.729   2.601  11.705  1.00  0.00    -0.260 N 
HETATM    8  C8  UNL     1      -2.393   2.840  11.786  1.00  0.00     0.147 C 
HETATM    9  C9  UNL     1      -2.205   4.125  12.231  1.00  0.00     0.063 C 
HETATM   10  C16 UNL     1      -3.507   4.655  12.570  1.00  0.00     0.006 C 
HETATM   11  C20 UNL     1      -4.435   3.698  12.123  1.00  0.00     0.109 A 
ENDROOT
BRANCH   1  12
HETATM   12  N2  UNL     1      -6.735   4.617  12.355  1.00  0.00    -0.338 N 
HETATM   13  H6  UNL     1      -7.200   5.089  11.601  1.00  0.00     0.167 HD
BRANCH  12  14
HETATM   14  C5  UNL     1      -6.984   5.172  13.625  1.00  0.00     0.073 A 
HETATM   15  C4  UNL     1      -6.751   6.546  13.804  1.00  0.00     0.053 A 
HETATM   16  C3  UNL     1      -6.906   7.159  15.060  1.00  0.00     0.074 A 
HETATM   17  C23 UNL     1      -7.304   6.379  16.145  1.00  0.00     0.135 A 
HETATM   18  C22 UNL     1      -7.552   5.021  15.994  1.00  0.00     0.088 A 
HETATM   19  F2  UNL     1      -7.480   6.921  17.360  1.00  0.00    -0.205 F 
HETATM   20  C21 UNL     1      -7.388   4.428  14.745  1.00  0.00     0.146 A 
HETATM   21  F1  UNL     1      -7.705   3.130  14.631  1.00  0.00    -0.204 F 
BRANCH  16  22
HETATM   22  C2  UNL     1      -6.632   8.620  15.169  1.00  0.00     0.278 C 
HETATM   23  N1  UNL     1      -5.311   8.998  15.292  1.00  0.00    -0.231 N 
HETATM   24  H4  UNL     1      -4.626   8.330  15.637  1.00  0.00     0.197 HD
HETATM   25  O2  UNL     1      -7.578   9.403  15.145  1.00  0.00    -0.265 OA
BRANCH  23  26
HETATM   26  O1  UNL     1      -5.128  10.319  15.770  1.00  0.00    -0.282 OA
HETATM   27  C1  UNL     1      -3.850  10.777  15.343  1.00  0.00     0.237 C 
ENDBRANCH  23  26
ENDBRANCH  16  22
ENDBRANCH  12  14
ENDBRANCH   1  12
BRANCH  10  28
HETATM   28  C17 UNL     1      -3.728   5.951  13.327  1.00  0.00     0.015 C 
HETATM   29  C18 UNL     1      -3.077   7.166  12.659  1.00  0.00     0.015 C 
HETATM   30  C19 UNL     1      -3.441   5.850  14.824  1.00  0.00     0.015 C 
ENDBRANCH  10  28
BRANCH   9  31
HETATM   31  N6  UNL     1      -0.923   4.632  12.323  1.00  0.00    -0.301 N 
HETATM   32  C10 UNL     1       0.219   4.132  11.763  1.00  0.00     0.365 C 
HETATM   33  O3  UNL     1       0.353   3.139  11.065  1.00  0.00    -0.238 OA
HETATM   34  H9  UNL     1      -0.735   5.285  13.073  1.00  0.00     0.171 HD
BRANCH  32  35
HETATM   35  O4  UNL     1       1.255   4.914  12.168  1.00  0.00    -0.301 OA
BRANCH  35  36
HETATM   36  C11 UNL     1       0.923   6.279  12.485  1.00  0.00     0.212 C 
BRANCH  36  37
HETATM   37  C12 UNL     1       1.424   7.229  11.388  1.00  0.00     0.145 C 
HETATM   38  C13 UNL     1       1.434   8.683  11.832  1.00  0.00     0.036 C 
HETATM   39  C14 UNL     1       2.824   8.859  12.386  1.00  0.00     0.029 C 
HETATM   40  C15 UNL     1       3.640   7.984  11.463  1.00  0.00     0.168 C 
HETATM   41  O5  UNL     1       2.794   6.895  11.073  1.00  0.00    -0.384 OA
ENDBRANCH  36  37
ENDBRANCH  35  36
ENDBRANCH  32  35
ENDBRANCH   9  31
TORSDOF 9
ENDMDL
MODEL 4
REMARK minimizedAffinity -8.15237808
REMARK CNNscore 0.345917523
REMARK CNNaffinity 7.23421288
REMARK  9 active torsions:
REMARK  status: ('A' for Active; 'I' for Inactive)
REMARK    1  A    between atoms: O1_2  and  N1_3 
REMARK       I    between atoms: N1_3  and  C2_4 
REMARK    2  A    between atoms: C2_4  and  C3_6 
REMARK    3  A    between atoms: C5_8  and  N2_9 
REMARK    4  A    between atoms: N2_9  and  C6_10 
REMARK    5  A    between atoms: C9_18  and  N6_19 
REMARK       I    between atoms: N6_19  and  C10_20 
REMARK    6  A    between atoms: C10_20  and  O4_22 
REMARK    7  A    between atoms: O4_22  and  C11_23 
REMARK    8  A    between atoms: C11_23  and  C12_24 
REMARK    9  A    between atoms: C16_29  and  C17_30 
ROOT
HETATM    1  C6  UNL     1      -7.551   4.517  13.587  1.00  0.00     0.136 A 
HETATM    2  N3  UNL     1      -8.195   3.424  13.286  1.00  0.00    -0.336 N 
ATOM      3  H3  UNL     1      -9.178   3.330  13.544  1.00  0.00     0.168 HD
HETATM    4  C7  UNL     1      -7.569   2.407  12.632  1.00  0.00     0.199 A 
HETATM    5  N4  UNL     1      -6.335   2.381  12.254  1.00  0.00    -0.289 N 
ATOM      6  H4  UNL     1      -5.920   1.593  11.758  1.00  0.00     0.188 HD
HETATM    7  N5  UNL     1      -5.650   3.487  12.575  1.00  0.00    -0.260 N 
HETATM    8  C8  UNL     1      -4.339   3.674  12.270  1.00  0.00     0.147 C 
HETATM    9  C9  UNL     1      -3.959   4.915  12.719  1.00  0.00     0.063 C 
HETATM   10  C16 UNL     1      -5.072   5.460  13.464  1.00  0.00     0.006 C 
HETATM   11  C20 UNL     1      -6.141   4.571  13.253  1.00  0.00     0.109 A 
ENDROOT
BRANCH   1  12
HETATM   12  N2  UNL     1      -8.218   5.546  14.216  1.00  0.00    -0.338 N 
HETATM   13  H6  UNL     1      -7.988   5.729  15.176  1.00  0.00     0.167 HD
BRANCH  12  14
HETATM   14  C5  UNL     1      -9.271   6.334  13.713  1.00  0.00     0.073 A 
HETATM   15  C4  UNL     1     -10.116   6.976  14.635  1.00  0.00     0.053 A 
HETATM   16  C3  UNL     1     -11.232   7.721  14.213  1.00  0.00     0.074 A 
HETATM   17  C23 UNL     1     -11.496   7.821  12.847  1.00  0.00     0.135 A 
HETATM   18  C22 UNL     1     -10.671   7.206  11.914  1.00  0.00     0.088 A 
HETATM   19  F2  UNL     1     -12.540   8.533  12.395  1.00  0.00    -0.205 F 
HETATM   20  C21 UNL     1      -9.573   6.468  12.349  1.00  0.00     0.146 A 
HETATM   21  F1  UNL     1      -8.767   5.951  11.411  1.00  0.00    -0.204 F 
BRANCH  16  22
HETATM   22  C2  UNL     1     -12.082   8.364  15.253  1.00  0.00     0.278 C 
HETATM   23  N1  UNL     1     -13.253   7.716  15.588  1.00  0.00    -0.231 N 
HETATM   24  H4  UNL     1     -13.669   7.058  14.934  1.00  0.00     0.197 HD
HETATM   25  O2  UNL     1     -11.708   9.422  15.753  1.00  0.00    -0.265 OA
BRANCH  23  26
HETATM   26  O1  UNL     1     -14.191   8.529  16.271  1.00  0.00    -0.282 OA
HETATM   27  C1  UNL     1     -15.160   8.981  15.331  1.00  0.00     0.237 C 
ENDBRANCH  23  26
ENDBRANCH  16  22
ENDBRANCH  12  14
ENDBRANCH   1  12
BRANCH  10  28
HETATM   28  C17 UNL     1      -4.991   6.700  14.332  1.00  0.00     0.015 C 
HETATM   29  C18 UNL     1      -5.388   6.450  15.791  1.00  0.00     0.015 C 
HETATM   30  C19 UNL     1      -5.660   7.930  13.721  1.00  0.00     0.015 C 
ENDBRANCH  10  28
BRANCH   9  31
HETATM   31  N6  UNL     1      -2.680   5.370  12.458  1.00  0.00    -0.301 N 
HETATM   32  C10 UNL     1      -1.661   5.562  13.347  1.00  0.00     0.365 C 
HETATM   33  O3  UNL     1      -1.657   5.374  14.554  1.00  0.00    -0.238 OA
HETATM   34  H9  UNL     1      -2.531   5.855  11.584  1.00  0.00     0.171 HD
BRANCH  32  35
HETATM   35  O4  UNL     1      -0.606   6.078  12.663  1.00  0.00    -0.301 OA
BRANCH  35  36
HETATM   36  C11 UNL     1      -0.489   5.665  11.288  1.00  0.00     0.212 C 
BRANCH  36  37
HETATM   37  C12 UNL     1       0.981   5.656  10.846  1.00  0.00     0.145 C 
HETATM   38  C13 UNL     1       1.279   6.701   9.782  1.00  0.00     0.036 C 
HETATM   39  C14 UNL     1       1.703   7.899  10.592  1.00  0.00     0.029 C 
HETATM   40  C15 UNL     1       2.445   7.252  11.739  1.00  0.00     0.168 C 
HETATM   41  O5  UNL     1       1.809   5.991  11.982  1.00  0.00    -0.384 OA
ENDBRANCH  36  37
ENDBRANCH  35  36
ENDBRANCH  32  35
ENDBRANCH   9  31
TORSDOF 9
ENDMDL
MODEL 5
REMARK minimizedAffinity -8.8142271
REMARK CNNscore 0.344773144
REMARK CNNaffinity 7.15884256
REMARK  9 active torsions:
REMARK  status: ('A' for Active; 'I' for Inactive)
REMARK    1  A    between atoms: O1_2  and  N1_3 
REMARK       I    between atoms: N1_3  and  C2_4 
REMARK    2  A    between atoms: C2_4  and  C3_6 
REMARK    3  A    between atoms: C5_8  and  N2_9 
REMARK    4  A    between atoms: N2_9  and  C6_10 
REMARK    5  A    between atoms: C9_18  and  N6_19 
REMARK       I    between atoms: N6_19  and  C10_20 
REMARK    6  A    between atoms: C10_20  and  O4_22 
REMARK    7  A    between atoms: O4_22  and  C11_23 
REMARK    8  A    between atoms: C11_23  and  C12_24 
REMARK    9  A    between atoms: C16_29  and  C17_30 
ROOT
HETATM    1  C6  UNL     1      -7.091   5.296  13.916  1.00  0.00     0.136 A 
HETATM    2  N3  UNL     1      -8.084   4.455  13.845  1.00  0.00    -0.336 N 
ATOM      3  H3  UNL     1      -8.979   4.693  14.274  1.00  0.00     0.168 HD
HETATM    4  C7  UNL     1      -7.940   3.261  13.204  1.00  0.00     0.199 A 
HETATM    5  N4  UNL     1      -6.871   2.823  12.629  1.00  0.00    -0.289 N 
ATOM      6  H4  UNL     1      -6.822   1.922  12.155  1.00  0.00     0.188 HD
HETATM    7  N5  UNL     1      -5.831   3.664  12.711  1.00  0.00    -0.260 N 
HETATM    8  C8  UNL     1      -4.611   3.407  12.171  1.00  0.00     0.147 C 
HETATM    9  C9  UNL     1      -3.789   4.479  12.417  1.00  0.00     0.063 C 
HETATM   10  C16 UNL     1      -4.515   5.386  13.278  1.00  0.00     0.006 C 
HETATM   11  C20 UNL     1      -5.825   4.879  13.345  1.00  0.00     0.109 A 
ENDROOT
BRANCH   1  12
HETATM   12  N2  UNL     1      -7.275   6.511  14.538  1.00  0.00    -0.338 N 
HETATM   13  H6  UNL     1      -6.455   7.014  14.825  1.00  0.00     0.167 HD
BRANCH  12  14
HETATM   14  C5  UNL     1      -8.487   7.118  14.919  1.00  0.00     0.073 A 
HETATM   15  C4  UNL     1      -9.453   7.348  13.924  1.00  0.00     0.053 A 
HETATM   16  C3  UNL     1     -10.658   8.014  14.212  1.00  0.00     0.074 A 
HETATM   17  C23 UNL     1     -10.891   8.449  15.516  1.00  0.00     0.135 A 
HETATM   18  C22 UNL     1      -9.959   8.225  16.520  1.00  0.00     0.088 A 
HETATM   19  F2  UNL     1     -12.032   9.076  15.842  1.00  0.00    -0.205 F 
HETATM   20  C21 UNL     1      -8.769   7.569  16.218  1.00  0.00     0.146 A 
HETATM   21  F1  UNL     1      -7.929   7.314  17.232  1.00  0.00    -0.204 F 
BRANCH  16  22
HETATM   22  C2  UNL     1     -11.628   8.226  13.100  1.00  0.00     0.278 C 
HETATM   23  N1  UNL     1     -11.649   9.479  12.523  1.00  0.00    -0.231 N 
HETATM   24  H4  UNL     1     -11.297  10.278  13.043  1.00  0.00     0.197 HD
HETATM   25  O2  UNL     1     -12.348   7.292  12.758  1.00  0.00    -0.265 OA
BRANCH  23  26
HETATM   26  O1  UNL     1     -12.813   9.746  11.762  1.00  0.00    -0.282 OA
HETATM   27  C1  UNL     1     -13.697  10.530  12.556  1.00  0.00     0.237 C 
ENDBRANCH  23  26
ENDBRANCH  16  22
ENDBRANCH  12  14
ENDBRANCH   1  12
BRANCH  10  28
HETATM   28  C17 UNL     1      -3.890   6.573  13.986  1.00  0.00     0.015 C 
HETATM   29  C18 UNL     1      -2.933   7.376  13.100  1.00  0.00     0.015 C 
HETATM   30  C19 UNL     1      -3.314   6.240  15.361  1.00  0.00     0.015 C 
ENDBRANCH  10  28
BRANCH   9  31
HETATM   31  N6  UNL     1      -2.508   4.487  11.898  1.00  0.00    -0.301 N 
HETATM   32  C10 UNL     1      -1.804   3.434  11.387  1.00  0.00     0.365 C 
HETATM   33  O3  UNL     1      -2.150   2.268  11.278  1.00  0.00    -0.238 OA
HETATM   34  H9  UNL     1      -1.917   5.273  12.136  1.00  0.00     0.171 HD
BRANCH  32  35
HETATM   35  O4  UNL     1      -0.567   3.887  11.050  1.00  0.00    -0.301 OA
BRANCH  35  36
HETATM   36  C11 UNL     1      -0.405   5.318  11.043  1.00  0.00     0.212 C 
BRANCH  36  37
HETATM   37  C12 UNL     1       0.989   5.710  11.549  1.00  0.00     0.145 C 
HETATM   38  C13 UNL     1       2.107   5.147  10.685  1.00  0.00     0.036 C 
HETATM   39  C14 UNL     1       2.345   6.247   9.681  1.00  0.00     0.029 C 
HETATM   40  C15 UNL     1       2.117   7.485  10.517  1.00  0.00     0.168 C 
HETATM   41  O5  UNL     1       1.119   7.148  11.489  1.00  0.00    -0.384 OA
ENDBRANCH  36  37
ENDBRANCH  35  36
ENDBRANCH  32  35
ENDBRANCH   9  31
TORSDOF 9
ENDMDL
MODEL 6
REMARK minimizedAffinity -7.73214197
REMARK CNNscore 0.305667341
REMARK CNNaffinity 7.31223536
REMARK  9 active torsions:
REMARK  status: ('A' for Active; 'I' for Inactive)
REMARK    1  A    between atoms: O1_2  and  N1_3 
REMARK       I    between atoms: N1_3  and  C2_4 
REMARK    2  A    between atoms: C2_4  and  C3_6 
REMARK    3  A    between atoms: C5_8  and  N2_9 
REMARK    4  A    between atoms: N2_9  and  C6_10 
REMARK    5  A    between atoms: C9_18  and  N6_19 
REMARK       I    between atoms: N6_19  and  C10_20 
REMARK    6  A    between atoms: C10_20  and  O4_22 
REMARK    7  A    between atoms: O4_22  and  C11_23 
REMARK    8  A    between atoms: C11_23  and  C12_24 
REMARK    9  A    between atoms: C16_29  and  C17_30 
ROOT
HETATM    1  C6  UNL     1      -7.472   4.787  14.286  1.00  0.00     0.136 A 
HETATM    2  N3  UNL     1      -8.010   3.700  13.808  1.00  0.00    -0.336 N 
ATOM      3  H3  UNL     1      -8.936   3.413  14.126  1.00  0.00     0.168 HD
HETATM    4  C7  UNL     1      -7.348   2.943  12.890  1.00  0.00     0.199 A 
HETATM    5  N4  UNL     1      -6.173   3.174  12.407  1.00  0.00    -0.289 N 
ATOM      6  H4  UNL     1      -5.728   2.575  11.713  1.00  0.00     0.188 HD
HETATM    7  N5  UNL     1      -5.594   4.275  12.904  1.00  0.00    -0.260 N 
HETATM    8  C8  UNL     1      -4.361   4.709  12.532  1.00  0.00     0.147 C 
HETATM    9  C9  UNL     1      -4.083   5.870  13.211  1.00  0.00     0.063 C 
HETATM   10  C16 UNL     1      -5.157   6.081  14.155  1.00  0.00     0.006 C 
HETATM   11  C20 UNL     1      -6.128   5.112  13.848  1.00  0.00     0.109 A 
ENDROOT
BRANCH   1  12
HETATM   12  N2  UNL     1      -8.178   5.554  15.186  1.00  0.00    -0.338 N 
HETATM   13  H6  UNL     1      -8.116   5.305  16.157  1.00  0.00     0.167 HD
BRANCH  12  14
HETATM   14  C5  UNL     1      -9.072   6.608  14.916  1.00  0.00     0.073 A 
HETATM   15  C4  UNL     1      -9.338   7.530  15.943  1.00  0.00     0.053 A 
HETATM   16  C3  UNL     1     -10.274   8.567  15.774  1.00  0.00     0.074 A 
HETATM   17  C23 UNL     1     -10.946   8.675  14.557  1.00  0.00     0.135 A 
HETATM   18  C22 UNL     1     -10.695   7.783  13.522  1.00  0.00     0.088 A 
HETATM   19  F2  UNL     1     -11.836   9.655  14.343  1.00  0.00    -0.205 F 
HETATM   20  C21 UNL     1      -9.769   6.760  13.707  1.00  0.00     0.146 A 
HETATM   21  F1  UNL     1      -9.509   5.966  12.659  1.00  0.00    -0.204 F 
BRANCH  16  22
HETATM   22  C2  UNL     1     -10.503   9.500  16.912  1.00  0.00     0.278 C 
HETATM   23  N1  UNL     1     -11.077   8.966  18.048  1.00  0.00    -0.231 N 
HETATM   24  H4  UNL     1     -11.619   8.109  17.983  1.00  0.00     0.197 HD
HETATM   25  O2  UNL     1     -10.177  10.677  16.788  1.00  0.00    -0.265 OA
BRANCH  23  26
HETATM   26  O1  UNL     1     -11.620   9.931  18.932  1.00  0.00    -0.282 OA
HETATM   27  C1  UNL     1     -11.822   9.316  20.198  1.00  0.00     0.237 C 
ENDBRANCH  23  26
ENDBRANCH  16  22
ENDBRANCH  12  14
ENDBRANCH   1  12
BRANCH  10  28
HETATM   28  C17 UNL     1      -5.123   7.111  15.268  1.00  0.00     0.015 C 
HETATM   29  C18 UNL     1      -5.826   8.423  14.906  1.00  0.00     0.015 C 
HETATM   30  C19 UNL     1      -3.740   7.309  15.886  1.00  0.00     0.015 C 
ENDBRANCH  10  28
BRANCH   9  31
HETATM   31  N6  UNL     1      -2.908   6.549  12.945  1.00  0.00    -0.301 N 
HETATM   32  C10 UNL     1      -2.756   7.868  12.623  1.00  0.00     0.365 C 
HETATM   33  O3  UNL     1      -3.617   8.726  12.503  1.00  0.00    -0.238 OA
HETATM   34  H9  UNL     1      -2.096   5.994  12.709  1.00  0.00     0.171 HD
BRANCH  32  35
HETATM   35  O4  UNL     1      -1.436   8.086  12.385  1.00  0.00    -0.301 OA
BRANCH  35  36
HETATM   36  C11 UNL     1      -0.524   7.515  13.342  1.00  0.00     0.212 C 
BRANCH  36  37
HETATM   37  C12 UNL     1       0.841   7.244  12.697  1.00  0.00     0.145 C 
HETATM   38  C13 UNL     1       1.357   8.428  11.895  1.00  0.00     0.036 C 
HETATM   39  C14 UNL     1       2.173   9.192  12.906  1.00  0.00     0.029 C 
HETATM   40  C15 UNL     1       2.772   8.075  13.730  1.00  0.00     0.168 C 
HETATM   41  O5  UNL     1       1.812   7.012  13.742  1.00  0.00    -0.384 OA
ENDBRANCH  36  37
ENDBRANCH  35  36
ENDBRANCH  32  35
ENDBRANCH   9  31
TORSDOF 9
ENDMDL
MODEL 7
REMARK minimizedAffinity -8.96986485
REMARK CNNscore 0.28457579
REMARK CNNaffinity 7.1803956
REMARK  9 active torsions:
REMARK  status: ('A' for Active; 'I' for Inactive)
REMARK    1  A    between atoms: O1_2  and  N1_3 
REMARK       I    between atoms: N1_3  and  C2_4 
REMARK    2  A    between atoms: C2_4  and  C3_6 
REMARK    3  A    between atoms: C5_8  and  N2_9 
REMARK    4  A    between atoms: N2_9  and  C6_10 
REMARK    5  A    between atoms: C9_18  and  N6_19 
REMARK       I    between atoms: N6_19  and  C10_20 
REMARK    6  A    between atoms: C10_20  and  O4_22 
REMARK    7  A    between atoms: O4_22  and  C11_23 
REMARK    8  A    between atoms: C11_23  and  C12_24 
REMARK    9  A    between atoms: C16_29  and  C17_30 
ROOT
HETATM    1  C6  UNL     1      -1.674   4.424  12.106  1.00  0.00     0.136 A 
HETATM    2  N3  UNL     1      -1.285   3.397  11.404  1.00  0.00    -0.336 N 
ATOM      3  H3  UNL     1      -0.309   3.324  11.114  1.00  0.00     0.168 HD
HETATM    4  C7  UNL     1      -2.167   2.420  11.054  1.00  0.00     0.199 A 
HETATM    5  N4  UNL     1      -3.425   2.383  11.339  1.00  0.00    -0.289 N 
ATOM      6  H4  UNL     1      -4.040   1.620  11.057  1.00  0.00     0.188 HD
HETATM    7  N5  UNL     1      -3.850   3.443  12.041  1.00  0.00    -0.260 N 
HETATM    8  C8  UNL     1      -5.135   3.607  12.452  1.00  0.00     0.147 C 
HETATM    9  C9  UNL     1      -5.220   4.780  13.161  1.00  0.00     0.063 C 
HETATM   10  C16 UNL     1      -3.936   5.437  13.059  1.00  0.00     0.006 C 
HETATM   11  C20 UNL     1      -3.084   4.508  12.436  1.00  0.00     0.109 A 
ENDROOT
BRANCH   1  12
HETATM   12  N2  UNL     1      -0.754   5.379  12.477  1.00  0.00    -0.338 N 
HETATM   13  H6  UNL     1      -0.685   5.602  13.454  1.00  0.00     0.167 HD
BRANCH  12  14
HETATM   14  C5  UNL     1       0.059   6.173  11.645  1.00  0.00     0.073 A 
HETATM   15  C4  UNL     1       1.294   5.646  11.230  1.00  0.00     0.053 A 
HETATM   16  C3  UNL     1       2.193   6.404  10.458  1.00  0.00     0.074 A 
HETATM   17  C23 UNL     1       1.841   7.706  10.101  1.00  0.00     0.135 A 
HETATM   18  C22 UNL     1       0.623   8.247  10.488  1.00  0.00     0.088 A 
HETATM   19  F2  UNL     1       2.659   8.462   9.353  1.00  0.00    -0.205 F 
HETATM   20  C21 UNL     1      -0.254   7.485  11.256  1.00  0.00     0.146 A 
HETATM   21  F1  UNL     1      -1.446   8.023  11.549  1.00  0.00    -0.204 F 
BRANCH  16  22
HETATM   22  C2  UNL     1       3.485   5.776  10.064  1.00  0.00     0.278 C 
HETATM   23  N1  UNL     1       4.498   5.795  11.001  1.00  0.00    -0.231 N 
HETATM   24  H4  UNL     1       4.481   6.486  11.747  1.00  0.00     0.197 HD
HETATM   25  O2  UNL     1       3.586   5.282   8.944  1.00  0.00    -0.265 OA
BRANCH  23  26
HETATM   26  O1  UNL     1       5.786   5.547  10.467  1.00  0.00    -0.282 OA
HETATM   27  C1  UNL     1       6.738   6.272  11.238  1.00  0.00     0.237 C 
ENDBRANCH  23  26
ENDBRANCH  16  22
ENDBRANCH  12  14
ENDBRANCH   1  12
BRANCH  10  28
HETATM   28  C17 UNL     1      -3.674   6.867  13.488  1.00  0.00     0.015 C 
HETATM   29  C18 UNL     1      -3.068   6.980  14.891  1.00  0.00     0.015 C 
HETATM   30  C19 UNL     1      -4.853   7.810  13.256  1.00  0.00     0.015 C 
ENDBRANCH  10  28
BRANCH   9  31
HETATM   31  N6  UNL     1      -6.420   5.132  13.751  1.00  0.00    -0.301 N 
HETATM   32  C10 UNL     1      -7.640   5.272  13.152  1.00  0.00     0.365 C 
HETATM   33  O3  UNL     1      -7.933   5.118  11.977  1.00  0.00    -0.238 OA
HETATM   34  H9  UNL     1      -6.376   5.580  14.657  1.00  0.00     0.171 HD
BRANCH  32  35
HETATM   35  O4  UNL     1      -8.520   5.689  14.100  1.00  0.00    -0.301 OA
BRANCH  35  36
HETATM   36  C11 UNL     1      -9.561   6.573  13.642  1.00  0.00     0.212 C 
BRANCH  36  37
HETATM   37  C12 UNL     1     -10.201   7.317  14.822  1.00  0.00     0.145 C 
HETATM   38  C13 UNL     1      -9.173   7.830  15.818  1.00  0.00     0.036 C 
HETATM   39  C14 UNL     1      -8.881   9.221  15.317  1.00  0.00     0.029 C 
HETATM   40  C15 UNL     1     -10.234   9.659  14.807  1.00  0.00     0.168 C 
HETATM   41  O5  UNL     1     -10.891   8.482  14.319  1.00  0.00    -0.384 OA
ENDBRANCH  36  37
ENDBRANCH  35  36
ENDBRANCH  32  35
ENDBRANCH   9  31
TORSDOF 9
ENDMDL
MODEL 8
REMARK minimizedAffinity -8.82613277
REMARK CNNscore 0.272183061
REMARK CNNaffinity 7.17216873
REMARK  9 active torsions:
REMARK  status: ('A' for Active; 'I' for Inactive)
REMARK    1  A    between atoms: O1_2  and  N1_3 
REMARK       I    between atoms: N1_3  and  C2_4 
REMARK    2  A    between atoms: C2_4  and  C3_6 
REMARK    3  A    between atoms: C5_8  and  N2_9 
REMARK    4  A    between atoms: N2_9  and  C6_10 
REMARK    5  A    between atoms: C9_18  and  N6_19 
REMARK       I    between atoms: N6_19  and  C10_20 
REMARK    6  A    between atoms: C10_20  and  O4_22 
REMARK    7  A    between atoms: O4_22  and  C11_23 
REMARK    8  A    between atoms: C11_23  and  C12_24 
REMARK    9  A    between atoms: C16_29  and  C17_30 
ROOT
HETATM    1  C6  UNL     1      -4.831   4.854  13.453  1.00  0.00     0.136 A 
HETATM    2  N3  UNL     1      -4.485   3.775  12.809  1.00  0.00    -0.336 N 
ATOM      3  H3  UNL     1      -3.517   3.455  12.842  1.00  0.00     0.168 HD
HETATM    4  C7  UNL     1      -5.403   3.069  12.092  1.00  0.00     0.199 A 
HETATM    5  N4  UNL     1      -6.654   3.358  11.951  1.00  0.00    -0.289 N 
ATOM      6  H4  UNL     1      -7.300   2.787  11.407  1.00  0.00     0.188 HD
HETATM    7  N5  UNL     1      -7.023   4.477  12.587  1.00  0.00    -0.260 N 
HETATM    8  C8  UNL     1      -8.292   4.964  12.578  1.00  0.00     0.147 C 
HETATM    9  C9  UNL     1      -8.329   6.104  13.342  1.00  0.00     0.063 C 
HETATM   10  C16 UNL     1      -6.968   6.404  13.729  1.00  0.00     0.006 C 
HETATM   11  C20 UNL     1      -6.205   5.297  13.319  1.00  0.00     0.109 A 
ENDROOT
BRANCH   1  12
HETATM   12  N2  UNL     1      -3.890   5.528  14.201  1.00  0.00    -0.338 N 
HETATM   13  H6  UNL     1      -4.213   6.035  15.005  1.00  0.00     0.167 HD
BRANCH  12  14
HETATM   14  C5  UNL     1      -2.516   5.682  13.933  1.00  0.00     0.073 A 
HETATM   15  C4  UNL     1      -1.926   4.829  12.985  1.00  0.00     0.053 A 
HETATM   16  C3  UNL     1      -0.546   4.873  12.717  1.00  0.00     0.074 A 
HETATM   17  C23 UNL     1       0.245   5.788  13.410  1.00  0.00     0.135 A 
HETATM   18  C22 UNL     1      -0.313   6.650  14.345  1.00  0.00     0.088 A 
HETATM   19  F2  UNL     1       1.564   5.877  13.178  1.00  0.00    -0.205 F 
HETATM   20  C21 UNL     1      -1.680   6.590  14.603  1.00  0.00     0.146 A 
HETATM   21  F1  UNL     1      -2.186   7.487  15.461  1.00  0.00    -0.204 F 
BRANCH  16  22
HETATM   22  C2  UNL     1       0.003   3.931  11.702  1.00  0.00     0.278 C 
HETATM   23  N1  UNL     1      -0.640   2.718  11.566  1.00  0.00    -0.231 N 
HETATM   24  H4  UNL     1      -1.205   2.359  12.331  1.00  0.00     0.197 HD
HETATM   25  O2  UNL     1       0.985   4.273  11.047  1.00  0.00    -0.265 OA
BRANCH  23  26
HETATM   26  O1  UNL     1       0.122   1.730  10.894  1.00  0.00    -0.282 OA
HETATM   27  C1  UNL     1      -0.738   0.642  10.574  1.00  0.00     0.237 C 
ENDBRANCH  23  26
ENDBRANCH  16  22
ENDBRANCH  12  14
ENDBRANCH   1  12
BRANCH  10  28
HETATM   28  C17 UNL     1      -6.533   7.707  14.371  1.00  0.00     0.015 C 
HETATM   29  C18 UNL     1      -5.388   8.401  13.625  1.00  0.00     0.015 C 
HETATM   30  C19 UNL     1      -6.308   7.610  15.879  1.00  0.00     0.015 C 
ENDBRANCH  10  28
BRANCH   9  31
HETATM   31  N6  UNL     1      -9.536   6.746  13.548  1.00  0.00    -0.301 N 
HETATM   32  C10 UNL     1     -10.095   7.118  14.738  1.00  0.00     0.365 C 
HETATM   33  O3  UNL     1      -9.654   6.968  15.867  1.00  0.00    -0.238 OA
HETATM   34  H9  UNL     1     -10.207   6.724  12.792  1.00  0.00     0.171 HD
BRANCH  32  35
HETATM   35  O4  UNL     1     -11.312   7.661  14.471  1.00  0.00    -0.301 OA
BRANCH  35  36
HETATM   36  C11 UNL     1     -12.368   6.722  14.191  1.00  0.00     0.212 C 
BRANCH  36  37
HETATM   37  C12 UNL     1     -13.117   7.114  12.909  1.00  0.00     0.145 C 
HETATM   38  C13 UNL     1     -14.627   7.100  13.085  1.00  0.00     0.036 C 
HETATM   39  C14 UNL     1     -14.933   8.517  13.497  1.00  0.00     0.029 C 
HETATM   40  C15 UNL     1     -13.926   9.301  12.688  1.00  0.00     0.168 C 
HETATM   41  O5  UNL     1     -12.764   8.471  12.561  1.00  0.00    -0.384 OA
ENDBRANCH  36  37
ENDBRANCH  35  36
ENDBRANCH  32  35
ENDBRANCH   9  31
TORSDOF 9
ENDMDL
MODEL 9
REMARK minimizedAffinity -9.1607914
REMARK CNNscore 0.252151638
REMARK CNNaffinity 7.08333349
REMARK  9 active torsions:
REMARK  status: ('A' for Active; 'I' for Inactive)
REMARK    1  A    between atoms: O1_2  and  N1_3 
REMARK       I    between atoms: N1_3  and  C2_4 
REMARK    2  A    between atoms: C2_4  and  C3_6 
REMARK    3  A    between atoms: C5_8  and  N2_9 
REMARK    4  A    between atoms: N2_9  and  C6_10 
REMARK    5  A    between atoms: C9_18  and  N6_19 
REMARK       I    between atoms: N6_19  and  C10_20 
REMARK    6  A    between atoms: C10_20  and  O4_22 
REMARK    7  A    between atoms: O4_22  and  C11_23 
REMARK    8  A    between atoms: C11_23  and  C12_24 
REMARK    9  A    between atoms: C16_29  and  C17_30 
ROOT
HETATM    1  C6  UNL     1      -1.229   3.916  12.081  1.00  0.00     0.136 A 
HETATM    2  N3  UNL     1      -0.722   2.919  11.412  1.00  0.00    -0.336 N 
ATOM      3  H3  UNL     1       0.281   2.893  11.226  1.00  0.00     0.168 HD
HETATM    4  C7  UNL     1      -1.518   1.911  10.957  1.00  0.00     0.199 A 
HETATM    5  N4  UNL     1      -2.797   1.816  11.106  1.00  0.00    -0.289 N 
ATOM      6  H4  UNL     1      -3.343   1.032  10.750  1.00  0.00     0.188 HD
HETATM    7  N5  UNL     1      -3.340   2.844  11.772  1.00  0.00    -0.260 N 
HETATM    8  C8  UNL     1      -4.667   2.946  12.045  1.00  0.00     0.147 C 
HETATM    9  C9  UNL     1      -4.879   4.102  12.756  1.00  0.00     0.063 C 
HETATM   10  C16 UNL     1      -3.622   4.814  12.800  1.00  0.00     0.006 C 
HETATM   11  C20 UNL     1      -2.668   3.934  12.260  1.00  0.00     0.109 A 
ENDROOT
BRANCH   1  12
HETATM   12  N2  UNL     1      -0.397   4.903  12.561  1.00  0.00    -0.338 N 
HETATM   13  H6  UNL     1      -0.375   5.049  13.554  1.00  0.00     0.167 HD
BRANCH  12  14
HETATM   14  C5  UNL     1       0.378   5.820  11.825  1.00  0.00     0.073 A 
HETATM   15  C4  UNL     1       1.639   5.403  11.367  1.00  0.00     0.053 A 
HETATM   16  C3  UNL     1       2.501   6.284  10.688  1.00  0.00     0.074 A 
HETATM   17  C23 UNL     1       2.085   7.596  10.468  1.00  0.00     0.135 A 
HETATM   18  C22 UNL     1       0.840   8.032  10.901  1.00  0.00     0.088 A 
HETATM   19  F2  UNL     1       2.867   8.468   9.813  1.00  0.00    -0.205 F 
HETATM   20  C21 UNL     1       0.000   7.149  11.576  1.00  0.00     0.146 A 
HETATM   21  F1  UNL     1      -1.219   7.593  11.914  1.00  0.00    -0.204 F 
BRANCH  16  22
HETATM   22  C2  UNL     1       3.825   5.766  10.240  1.00  0.00     0.278 C 
HETATM   23  N1  UNL     1       4.868   5.865  11.138  1.00  0.00    -0.231 N 
HETATM   24  H4  UNL     1       4.823   6.548  11.889  1.00  0.00     0.197 HD
HETATM   25  O2  UNL     1       3.922   5.286   9.114  1.00  0.00    -0.265 OA
BRANCH  23  26
HETATM   26  O1  UNL     1       6.151   5.727  10.553  1.00  0.00    -0.282 OA
HETATM   27  C1  UNL     1       7.041   6.623  11.209  1.00  0.00     0.237 C 
ENDBRANCH  23  26
ENDBRANCH  16  22
ENDBRANCH  12  14
ENDBRANCH   1  12
BRANCH  10  28
HETATM   28  C17 UNL     1      -3.470   6.246  13.274  1.00  0.00     0.015 C 
HETATM   29  C18 UNL     1      -2.934   6.362  14.705  1.00  0.00     0.015 C 
HETATM   30  C19 UNL     1      -4.696   7.119  13.010  1.00  0.00     0.015 C 
ENDBRANCH  10  28
BRANCH   9  31
HETATM   31  N6  UNL     1      -6.149   4.391  13.220  1.00  0.00    -0.301 N 
HETATM   32  C10 UNL     1      -7.256   3.592  13.187  1.00  0.00     0.365 C 
HETATM   33  O3  UNL     1      -7.364   2.457  12.747  1.00  0.00    -0.238 OA
HETATM   34  H9  UNL     1      -6.376   5.365  13.370  1.00  0.00     0.171 HD
BRANCH  32  35
HETATM   35  O4  UNL     1      -8.297   4.305  13.694  1.00  0.00    -0.301 OA
BRANCH  35  36
HETATM   36  C11 UNL     1      -8.265   5.723  13.444  1.00  0.00     0.212 C 
BRANCH  36  37
HETATM   37  C12 UNL     1      -8.595   6.507  14.721  1.00  0.00     0.145 C 
HETATM   38  C13 UNL     1      -8.155   5.783  15.984  1.00  0.00     0.036 C 
HETATM   39  C14 UNL     1      -6.765   6.317  16.214  1.00  0.00     0.029 C 
HETATM   40  C15 UNL     1      -6.904   7.751  15.760  1.00  0.00     0.168 C 
HETATM   41  O5  UNL     1      -7.869   7.756  14.700  1.00  0.00    -0.384 OA
ENDBRANCH  36  37
ENDBRANCH  35  36
ENDBRANCH  32  35
ENDBRANCH   9  31
TORSDOF 9
ENDMDL
