MODEL 1
REMARK minimizedAffinity -8.06163883
REMARK  9 active torsions:
REMARK  status: ('A' for Active; 'I' for Inactive)
REMARK    1  A    between atoms: O1_1  and  C1_2 
REMARK    2  A    between atoms: C1_2  and  C2_3 
REMARK    3  A    between atoms: C2_3  and  N1_4 
REMARK    4  A    between atoms: N1_4  and  C3_5 
REMARK    5  A    between atoms: C3_5  and  C4_6 
REMARK    6  A    between atoms: C8_15  and  N5_16 
REMARK    7  A    between atoms: N5_16  and  C9_17 
REMARK    8  A    between atoms: N7_25  and  C15_26 
REMARK    9  A    between atoms: C15_26  and  C16_27 
ROOT
HETATM    1  N5  UNL     1      10.438  34.684  19.453  1.00  0.00    -0.341 N 
HETATM    2  H12 UNL     1       9.591  34.476  18.892  1.00  0.00     0.167 HD
ENDROOT
BRANCH   1   3
HETATM    3  C8  UNL     1      10.196  34.998  20.773  1.00  0.00     0.136 A 
HETATM    4  N4  UNL     1      11.112  34.931  21.694  1.00  0.00    -0.336 N 
HETATM    5  C7  UNL     1      10.832  35.279  22.986  1.00  0.00     0.199 A 
ATOM      6  H4  UNL     1      12.050  34.615  21.449  1.00  0.00     0.168 HD
HETATM    7  N3  UNL     1       9.703  35.701  23.446  1.00  0.00    -0.289 N 
HETATM    8  N2  UNL     1       8.739  35.758  22.520  1.00  0.00    -0.263 N 
ATOM      9  H3  UNL     1       9.559  35.966  24.421  1.00  0.00     0.188 HD
HETATM   10  C6  UNL     1       7.458  36.159  22.752  1.00  0.00     0.117 A 
HETATM   11  C23 UNL     1       8.884  35.415  21.207  1.00  0.00     0.108 A 
HETATM   12  C5  UNL     1       6.753  36.038  21.580  1.00  0.00     0.030 A 
HETATM   13  C4  UNL     1       7.645  35.539  20.583  1.00  0.00     0.004 A 
BRANCH  13  14
HETATM   14  C3  UNL     1       7.234  35.223  19.180  1.00  0.00     0.310 C 
BRANCH  14  15
HETATM   15  N1  UNL     1       5.830  34.789  19.171  1.00  0.00     0.089 N 
HETATM   16  H6  UNL     1       5.330  35.319  19.887  1.00  0.00     0.316 HD
BRANCH  15  17
HETATM   17  C2  UNL     1       5.747  33.382  19.584  1.00  0.00     0.295 C 
BRANCH  17  18
HETATM   18  C1  UNL     1       4.815  32.556  18.682  1.00  0.00     0.194 C 
BRANCH  18  19
HETATM   19  O1  UNL     1       4.198  33.397  17.693  1.00  0.00    -0.399 OA
HETATM   20  H1  UNL     1       3.821  34.175  18.157  1.00  0.00     0.209 HD
ENDBRANCH  18  19
ENDBRANCH  17  18
ENDBRANCH  15  17
ENDBRANCH  14  15
ENDBRANCH  13  14
ENDBRANCH   1   3
BRANCH   1  21
HETATM   21  C9  UNL     1      11.589  34.873  18.662  1.00  0.00     0.034 A 
HETATM   22  C10 UNL     1      11.676  35.790  17.607  1.00  0.00     0.032 A 
HETATM   23  C11 UNL     1      12.863  36.014  16.893  1.00  0.00     0.034 A 
HETATM   24  C12 UNL     1      13.994  35.287  17.279  1.00  0.00     0.062 A 
HETATM   25  C13 UNL     1      13.958  34.368  18.321  1.00  0.00     0.011 A 
HETATM   26  N7  UNL     1      15.294  35.270  16.824  1.00  0.00    -0.288 N 
HETATM   27  C14 UNL     1      15.275  33.856  18.396  1.00  0.00     0.121 A 
HETATM   28  C22 UNL     1      12.751  34.169  19.022  1.00  0.00     0.044 A 
HETATM   29  N6  UNL     1      16.095  34.393  17.490  1.00  0.00    -0.308 N 
ATOM     30  H6  UNL     1      17.083  34.195  17.334  1.00  0.00     0.186 HD
BRANCH  26  31
HETATM   31  C15 UNL     1      15.873  36.133  15.801  1.00  0.00     0.187 C 
BRANCH  31  32
HETATM   32  C16 UNL     1      16.333  35.362  14.589  1.00  0.00    -0.035 A 
HETATM   33  C17 UNL     1      15.447  35.050  13.539  1.00  0.00     0.009 A 
HETATM   34  C18 UNL     1      15.866  34.300  12.438  1.00  0.00     0.004 A 
HETATM   35  C19 UNL     1      17.171  33.833  12.383  1.00  0.00     0.042 A 
HETATM   36  C20 UNL     1      18.045  34.122  13.430  1.00  0.00     0.117 A 
HETATM   37  F1  UNL     1      19.297  33.616  13.421  1.00  0.00    -0.206 F 
HETATM   38  C21 UNL     1      17.639  34.879  14.525  1.00  0.00     0.051 A 
ENDBRANCH  31  32
ENDBRANCH  26  31
ENDBRANCH   1  21
TORSDOF 9
ENDMDL
MODEL 2
REMARK minimizedAffinity -7.83450317
REMARK  9 active torsions:
REMARK  status: ('A' for Active; 'I' for Inactive)
REMARK    1  A    between atoms: O1_1  and  C1_2 
REMARK    2  A    between atoms: C1_2  and  C2_3 
REMARK    3  A    between atoms: C2_3  and  N1_4 
REMARK    4  A    between atoms: N1_4  and  C3_5 
REMARK    5  A    between atoms: C3_5  and  C4_6 
REMARK    6  A    between atoms: C8_15  and  N5_16 
REMARK    7  A    between atoms: N5_16  and  C9_17 
REMARK    8  A    between atoms: N7_25  and  C15_26 
REMARK    9  A    between atoms: C15_26  and  C16_27 
ROOT
HETATM    1  N5  UNL     1      11.917  34.555  18.215  1.00  0.00    -0.341 N 
HETATM    2  H12 UNL     1      11.998  33.539  18.408  1.00  0.00     0.167 HD
ENDROOT
BRANCH   1   3
HETATM    3  C8  UNL     1      10.635  35.056  18.275  1.00  0.00     0.136 A 
HETATM    4  N4  UNL     1      10.077  35.689  17.284  1.00  0.00    -0.336 N 
HETATM    5  C7  UNL     1       8.792  36.144  17.380  1.00  0.00     0.199 A 
ATOM      6  H4  UNL     1      10.604  35.847  16.426  1.00  0.00     0.168 HD
HETATM    7  N3  UNL     1       7.999  36.015  18.390  1.00  0.00    -0.289 N 
HETATM    8  N2  UNL     1       8.559  35.386  19.429  1.00  0.00    -0.263 N 
ATOM      9  H3  UNL     1       7.038  36.360  18.396  1.00  0.00     0.188 HD
HETATM   10  C6  UNL     1       7.937  35.136  20.616  1.00  0.00     0.117 A 
HETATM   11  C23 UNL     1       9.837  34.909  19.469  1.00  0.00     0.108 A 
HETATM   12  C5  UNL     1       8.839  34.520  21.448  1.00  0.00     0.030 A 
HETATM   13  C4  UNL     1      10.071  34.388  20.739  1.00  0.00     0.004 A 
BRANCH  13  14
HETATM   14  C3  UNL     1      11.317  33.810  21.331  1.00  0.00     0.310 C 
BRANCH  14  15
HETATM   15  N1  UNL     1      12.255  34.896  21.643  1.00  0.00     0.089 N 
HETATM   16  H6  UNL     1      12.866  34.580  22.398  1.00  0.00     0.316 HD
BRANCH  15  17
HETATM   17  C2  UNL     1      11.516  36.046  22.180  1.00  0.00     0.295 C 
BRANCH  17  18
HETATM   18  C1  UNL     1      11.562  36.113  23.716  1.00  0.00     0.194 C 
BRANCH  18  19
HETATM   19  O1  UNL     1      10.987  34.927  24.288  1.00  0.00    -0.399 OA
HETATM   20  H1  UNL     1      10.117  34.781  23.858  1.00  0.00     0.209 HD
ENDBRANCH  18  19
ENDBRANCH  17  18
ENDBRANCH  15  17
ENDBRANCH  14  15
ENDBRANCH  13  14
ENDBRANCH   1   3
BRANCH   1  21
HETATM   21  C9  UNL     1      13.092  35.105  17.663  1.00  0.00     0.034 A 
HETATM   22  C10 UNL     1      14.348  34.488  17.713  1.00  0.00     0.032 A 
HETATM   23  C11 UNL     1      15.481  35.022  17.081  1.00  0.00     0.034 A 
HETATM   24  C12 UNL     1      15.319  36.215  16.369  1.00  0.00     0.062 A 
HETATM   25  C13 UNL     1      14.092  36.863  16.287  1.00  0.00     0.011 A 
HETATM   26  N7  UNL     1      16.188  36.988  15.631  1.00  0.00    -0.288 N 
HETATM   27  C14 UNL     1      14.341  38.009  15.495  1.00  0.00     0.121 A 
HETATM   28  C22 UNL     1      12.971  36.299  16.930  1.00  0.00     0.044 A 
HETATM   29  N6  UNL     1      15.611  38.098  15.093  1.00  0.00    -0.308 N 
ATOM     30  H6  UNL     1      16.044  38.822  14.521  1.00  0.00     0.186 HD
BRANCH  26  31
HETATM   31  C15 UNL     1      17.580  36.685  15.322  1.00  0.00     0.187 C 
BRANCH  31  32
HETATM   32  C16 UNL     1      17.724  35.478  14.429  1.00  0.00    -0.035 A 
HETATM   33  C17 UNL     1      18.931  34.756  14.362  1.00  0.00     0.009 A 
HETATM   34  C18 UNL     1      19.074  33.664  13.501  1.00  0.00     0.004 A 
HETATM   35  C19 UNL     1      18.018  33.296  12.681  1.00  0.00     0.042 A 
HETATM   36  C20 UNL     1      16.829  34.022  12.729  1.00  0.00     0.117 A 
HETATM   37  F1  UNL     1      15.819  33.716  11.886  1.00  0.00    -0.206 F 
HETATM   38  C21 UNL     1      16.674  35.103  13.592  1.00  0.00     0.051 A 
ENDBRANCH  31  32
ENDBRANCH  26  31
ENDBRANCH   1  21
TORSDOF 9
ENDMDL
MODEL 3
REMARK minimizedAffinity -7.68068838
REMARK  9 active torsions:
REMARK  status: ('A' for Active; 'I' for Inactive)
REMARK    1  A    between atoms: O1_1  and  C1_2 
REMARK    2  A    between atoms: C1_2  and  C2_3 
REMARK    3  A    between atoms: C2_3  and  N1_4 
REMARK    4  A    between atoms: N1_4  and  C3_5 
REMARK    5  A    between atoms: C3_5  and  C4_6 
REMARK    6  A    between atoms: C8_15  and  N5_16 
REMARK    7  A    between atoms: N5_16  and  C9_17 
REMARK    8  A    between atoms: N7_25  and  C15_26 
REMARK    9  A    between atoms: C15_26  and  C16_27 
ROOT
HETATM    1  N5  UNL     1      16.767  51.382   5.661  1.00  0.00    -0.341 N 
HETATM    2  H12 UNL     1      16.067  50.644   5.466  1.00  0.00     0.167 HD
ENDROOT
BRANCH   1   3
HETATM    3  C8  UNL     1      17.764  51.018   6.541  1.00  0.00     0.136 A 
HETATM    4  N4  UNL     1      18.273  51.840   7.411  1.00  0.00    -0.336 N 
HETATM    5  C7  UNL     1      19.241  51.426   8.283  1.00  0.00     0.199 A 
ATOM      6  H4  UNL     1      17.946  52.806   7.443  1.00  0.00     0.168 HD
HETATM    7  N3  UNL     1      19.748  50.243   8.369  1.00  0.00    -0.289 N 
HETATM    8  N2  UNL     1      19.254  49.385   7.470  1.00  0.00    -0.263 N 
ATOM      9  H3  UNL     1      20.457  49.986   9.057  1.00  0.00     0.188 HD
HETATM   10  C6  UNL     1      19.633  48.081   7.346  1.00  0.00     0.117 A 
HETATM   11  C23 UNL     1      18.308  49.681   6.532  1.00  0.00     0.108 A 
HETATM   12  C5  UNL     1      18.947  47.536   6.289  1.00  0.00     0.030 A 
HETATM   13  C4  UNL     1      18.110  48.554   5.738  1.00  0.00     0.004 A 
BRANCH  13  14
HETATM   14  C3  UNL     1      17.244  48.360   4.534  1.00  0.00     0.310 C 
BRANCH  14  15
HETATM   15  N1  UNL     1      15.850  48.185   4.963  1.00  0.00     0.089 N 
HETATM   16  H6  UNL     1      15.710  48.728   5.817  1.00  0.00     0.316 HD
BRANCH  15  17
HETATM   17  C2  UNL     1      15.623  46.783   5.338  1.00  0.00     0.295 C 
BRANCH  17  18
HETATM   18  C1  UNL     1      14.800  46.643   6.630  1.00  0.00     0.194 C 
BRANCH  18  19
HETATM   19  O1  UNL     1      15.341  45.601   7.458  1.00  0.00    -0.399 OA
HETATM   20  H1  UNL     1      15.458  44.805   6.897  1.00  0.00     0.209 HD
ENDBRANCH  18  19
ENDBRANCH  17  18
ENDBRANCH  15  17
ENDBRANCH  14  15
ENDBRANCH  13  14
ENDBRANCH   1   3
BRANCH   1  21
HETATM   21  C9  UNL     1      16.368  52.655   5.204  1.00  0.00     0.034 A 
HETATM   22  C10 UNL     1      15.049  53.125   5.241  1.00  0.00     0.032 A 
HETATM   23  C11 UNL     1      14.697  54.427   4.857  1.00  0.00     0.034 A 
HETATM   24  C12 UNL     1      15.727  55.274   4.434  1.00  0.00     0.062 A 
HETATM   25  C13 UNL     1      17.051  54.855   4.384  1.00  0.00     0.011 A 
HETATM   26  N7  UNL     1      15.744  56.586   4.016  1.00  0.00    -0.288 N 
HETATM   27  C14 UNL     1      17.768  55.981   3.914  1.00  0.00     0.121 A 
HETATM   28  C22 UNL     1      17.373  53.541   4.781  1.00  0.00     0.044 A 
HETATM   29  N6  UNL     1      16.986  57.038   3.684  1.00  0.00    -0.308 N 
ATOM     30  H6  UNL     1      17.253  57.961   3.342  1.00  0.00     0.186 HD
BRANCH  26  31
HETATM   31  C15 UNL     1      14.617  57.509   3.985  1.00  0.00     0.187 C 
BRANCH  31  32
HETATM   32  C16 UNL     1      13.965  57.581   2.627  1.00  0.00    -0.035 A 
HETATM   33  C17 UNL     1      13.835  56.437   1.816  1.00  0.00     0.009 A 
HETATM   34  C18 UNL     1      13.270  56.515   0.540  1.00  0.00     0.004 A 
HETATM   35  C19 UNL     1      12.848  57.743   0.052  1.00  0.00     0.042 A 
HETATM   36  C20 UNL     1      12.994  58.881   0.844  1.00  0.00     0.117 A 
HETATM   37  F1  UNL     1      12.651  60.091   0.354  1.00  0.00    -0.206 F 
HETATM   38  C21 UNL     1      13.545  58.810   2.120  1.00  0.00     0.051 A 
ENDBRANCH  31  32
ENDBRANCH  26  31
ENDBRANCH   1  21
TORSDOF 9
ENDMDL
MODEL 4
REMARK minimizedAffinity -7.57900763
REMARK  9 active torsions:
REMARK  status: ('A' for Active; 'I' for Inactive)
REMARK    1  A    between atoms: O1_1  and  C1_2 
REMARK    2  A    between atoms: C1_2  and  C2_3 
REMARK    3  A    between atoms: C2_3  and  N1_4 
REMARK    4  A    between atoms: N1_4  and  C3_5 
REMARK    5  A    between atoms: C3_5  and  C4_6 
REMARK    6  A    between atoms: C8_15  and  N5_16 
REMARK    7  A    between atoms: N5_16  and  C9_17 
REMARK    8  A    between atoms: N7_25  and  C15_26 
REMARK    9  A    between atoms: C15_26  and  C16_27 
ROOT
HETATM    1  N5  UNL     1      11.869  34.628  18.319  1.00  0.00    -0.341 N 
HETATM    2  H12 UNL     1      11.926  33.686  18.747  1.00  0.00     0.167 HD
ENDROOT
BRANCH   1   3
HETATM    3  C8  UNL     1      10.599  35.160  18.256  1.00  0.00     0.136 A 
HETATM    4  N4  UNL     1      10.033  35.508  17.137  1.00  0.00    -0.336 N 
HETATM    5  C7  UNL     1       8.761  36.005  17.122  1.00  0.00     0.199 A 
ATOM      6  H4  UNL     1      10.546  35.407  16.261  1.00  0.00     0.168 HD
HETATM    7  N3  UNL     1       7.987  36.183  18.139  1.00  0.00    -0.289 N 
HETATM    8  N2  UNL     1       8.556  35.853  19.304  1.00  0.00    -0.263 N 
ATOM      9  H3  UNL     1       7.035  36.542  18.064  1.00  0.00     0.188 HD
HETATM   10  C6  UNL     1       7.955  35.958  20.522  1.00  0.00     0.117 A 
HETATM   11  C23 UNL     1       9.824  35.371  19.455  1.00  0.00     0.108 A 
HETATM   12  C5  UNL     1       8.861  35.574  21.480  1.00  0.00     0.030 A 
HETATM   13  C4  UNL     1      10.075  35.218  20.817  1.00  0.00     0.004 A 
BRANCH  13  14
HETATM   14  C3  UNL     1      11.320  34.794  21.528  1.00  0.00     0.310 C 
BRANCH  14  15
HETATM   15  N1  UNL     1      12.291  35.896  21.506  1.00  0.00     0.089 N 
HETATM   16  H6  UNL     1      13.168  35.539  21.124  1.00  0.00     0.316 HD
BRANCH  15  17
HETATM   17  C2  UNL     1      12.594  36.314  22.881  1.00  0.00     0.295 C 
BRANCH  17  18
HETATM   18  C1  UNL     1      11.360  36.269  23.797  1.00  0.00     0.194 C 
BRANCH  18  19
HETATM   19  O1  UNL     1      11.146  34.935  24.287  1.00  0.00    -0.399 OA
HETATM   20  H1  UNL     1      11.171  34.328  23.517  1.00  0.00     0.209 HD
ENDBRANCH  18  19
ENDBRANCH  17  18
ENDBRANCH  15  17
ENDBRANCH  14  15
ENDBRANCH  13  14
ENDBRANCH   1   3
BRANCH   1  21
HETATM   21  C9  UNL     1      13.054  35.003  17.654  1.00  0.00     0.034 A 
HETATM   22  C10 UNL     1      13.134  36.038  16.713  1.00  0.00     0.032 A 
HETATM   23  C11 UNL     1      14.344  36.443  16.131  1.00  0.00     0.034 A 
HETATM   24  C12 UNL     1      15.506  35.776  16.533  1.00  0.00     0.062 A 
HETATM   25  C13 UNL     1      15.479  34.745  17.465  1.00  0.00     0.011 A 
HETATM   26  N7  UNL     1      16.833  35.922  16.191  1.00  0.00    -0.288 N 
HETATM   27  C14 UNL     1      16.829  34.342  17.597  1.00  0.00     0.121 A 
HETATM   28  C22 UNL     1      14.247  34.365  18.035  1.00  0.00     0.044 A 
HETATM   29  N6  UNL     1      17.661  35.047  16.827  1.00  0.00    -0.308 N 
ATOM     30  H6  UNL     1      18.672  34.953  16.736  1.00  0.00     0.186 HD
BRANCH  26  31
HETATM   31  C15 UNL     1      17.403  36.942  15.319  1.00  0.00     0.187 C 
BRANCH  31  32
HETATM   32  C16 UNL     1      17.467  36.499  13.879  1.00  0.00    -0.035 A 
HETATM   33  C17 UNL     1      17.850  37.388  12.856  1.00  0.00     0.009 A 
HETATM   34  C18 UNL     1      17.867  36.987  11.518  1.00  0.00     0.004 A 
HETATM   35  C19 UNL     1      17.479  35.698  11.184  1.00  0.00     0.042 A 
HETATM   36  C20 UNL     1      17.079  34.822  12.192  1.00  0.00     0.117 A 
HETATM   37  F1  UNL     1      16.634  33.587  11.873  1.00  0.00    -0.206 F 
HETATM   38  C21 UNL     1      17.071  35.210  13.529  1.00  0.00     0.051 A 
ENDBRANCH  31  32
ENDBRANCH  26  31
ENDBRANCH   1  21
TORSDOF 9
ENDMDL
MODEL 5
REMARK minimizedAffinity -7.54408455
REMARK  9 active torsions:
REMARK  status: ('A' for Active; 'I' for Inactive)
REMARK    1  A    between atoms: O1_1  and  C1_2 
REMARK    2  A    between atoms: C1_2  and  C2_3 
REMARK    3  A    between atoms: C2_3  and  N1_4 
REMARK    4  A    between atoms: N1_4  and  C3_5 
REMARK    5  A    between atoms: C3_5  and  C4_6 
REMARK    6  A    between atoms: C8_15  and  N5_16 
REMARK    7  A    between atoms: N5_16  and  C9_17 
REMARK    8  A    between atoms: N7_25  and  C15_26 
REMARK    9  A    between atoms: C15_26  and  C16_27 
ROOT
HETATM    1  N5  UNL     1      16.671  51.671   5.700  1.00  0.00    -0.341 N 
HETATM    2  H12 UNL     1      15.976  50.908   5.605  1.00  0.00     0.167 HD
ENDROOT
BRANCH   1   3
HETATM    3  C8  UNL     1      17.736  51.386   6.528  1.00  0.00     0.136 A 
HETATM    4  N4  UNL     1      18.392  52.304   7.175  1.00  0.00    -0.336 N 
HETATM    5  C7  UNL     1      19.424  51.971   8.007  1.00  0.00     0.199 A 
ATOM      6  H4  UNL     1      18.134  53.284   7.060  1.00  0.00     0.168 HD
HETATM    7  N3  UNL     1      19.861  50.783   8.260  1.00  0.00    -0.289 N 
HETATM    8  N2  UNL     1      19.214  49.825   7.589  1.00  0.00    -0.263 N 
ATOM      9  H3  UNL     1      20.626  50.594   8.909  1.00  0.00     0.188 HD
HETATM   10  C6  UNL     1      19.491  48.493   7.672  1.00  0.00     0.117 A 
HETATM   11  C23 UNL     1      18.188  50.028   6.712  1.00  0.00     0.108 A 
HETATM   12  C5  UNL     1      18.657  47.828   6.808  1.00  0.00     0.030 A 
HETATM   13  C4  UNL     1      17.830  48.799   6.164  1.00  0.00     0.004 A 
BRANCH  13  14
HETATM   14  C3  UNL     1      16.821  48.468   5.110  1.00  0.00     0.310 C 
BRANCH  14  15
HETATM   15  N1  UNL     1      16.775  47.012   4.923  1.00  0.00     0.089 N 
HETATM   16  H6  UNL     1      17.042  46.807   3.958  1.00  0.00     0.316 HD
BRANCH  15  17
HETATM   17  C2  UNL     1      15.391  46.541   5.063  1.00  0.00     0.295 C 
BRANCH  17  18
HETATM   18  C1  UNL     1      14.821  46.795   6.469  1.00  0.00     0.194 C 
BRANCH  18  19
HETATM   19  O1  UNL     1      15.231  45.755   7.372  1.00  0.00    -0.399 OA
HETATM   20  H1  UNL     1      15.037  44.895   6.943  1.00  0.00     0.209 HD
ENDBRANCH  18  19
ENDBRANCH  17  18
ENDBRANCH  15  17
ENDBRANCH  14  15
ENDBRANCH  13  14
ENDBRANCH   1   3
BRANCH   1  21
HETATM   21  C9  UNL     1      16.210  52.902   5.189  1.00  0.00     0.034 A 
HETATM   22  C10 UNL     1      14.869  53.305   5.202  1.00  0.00     0.032 A 
HETATM   23  C11 UNL     1      14.454  54.571   4.763  1.00  0.00     0.034 A 
HETATM   24  C12 UNL     1      15.442  55.451   4.309  1.00  0.00     0.062 A 
HETATM   25  C13 UNL     1      16.786  55.098   4.280  1.00  0.00     0.011 A 
HETATM   26  N7  UNL     1      15.395  56.744   3.837  1.00  0.00    -0.288 N 
HETATM   27  C14 UNL     1      17.447  56.238   3.767  1.00  0.00     0.121 A 
HETATM   28  C22 UNL     1      17.172  53.820   4.733  1.00  0.00     0.044 A 
HETATM   29  N6  UNL     1      16.614  57.244   3.491  1.00  0.00    -0.308 N 
ATOM     30  H6  UNL     1      16.836  58.164   3.112  1.00  0.00     0.186 HD
BRANCH  26  31
HETATM   31  C15 UNL     1      14.222  57.607   3.765  1.00  0.00     0.187 C 
BRANCH  31  32
HETATM   32  C16 UNL     1      13.906  58.263   5.086  1.00  0.00    -0.035 A 
HETATM   33  C17 UNL     1      13.088  59.407   5.159  1.00  0.00     0.009 A 
HETATM   34  C18 UNL     1      12.832  60.037   6.379  1.00  0.00     0.004 A 
HETATM   35  C19 UNL     1      13.410  59.543   7.539  1.00  0.00     0.042 A 
HETATM   36  C20 UNL     1      14.237  58.423   7.468  1.00  0.00     0.117 A 
HETATM   37  F1  UNL     1      14.859  57.974   8.579  1.00  0.00    -0.206 F 
HETATM   38  C21 UNL     1      14.487  57.782   6.258  1.00  0.00     0.051 A 
ENDBRANCH  31  32
ENDBRANCH  26  31
ENDBRANCH   1  21
TORSDOF 9
ENDMDL
MODEL 6
REMARK minimizedAffinity -7.51867628
REMARK  9 active torsions:
REMARK  status: ('A' for Active; 'I' for Inactive)
REMARK    1  A    between atoms: O1_1  and  C1_2 
REMARK    2  A    between atoms: C1_2  and  C2_3 
REMARK    3  A    between atoms: C2_3  and  N1_4 
REMARK    4  A    between atoms: N1_4  and  C3_5 
REMARK    5  A    between atoms: C3_5  and  C4_6 
REMARK    6  A    between atoms: C8_15  and  N5_16 
REMARK    7  A    between atoms: N5_16  and  C9_17 
REMARK    8  A    between atoms: N7_25  and  C15_26 
REMARK    9  A    between atoms: C15_26  and  C16_27 
ROOT
HETATM    1  N5  UNL     1      15.033  38.123  15.270  1.00  0.00    -0.341 N 
HETATM    2  H12 UNL     1      15.347  37.513  14.493  1.00  0.00     0.167 HD
ENDROOT
BRANCH   1   3
HETATM    3  C8  UNL     1      15.704  39.323  15.371  1.00  0.00     0.136 A 
HETATM    4  N4  UNL     1      15.262  40.321  16.079  1.00  0.00    -0.336 N 
HETATM    5  C7  UNL     1      15.976  41.483  16.173  1.00  0.00     0.199 A 
ATOM      6  H4  UNL     1      14.373  40.236  16.571  1.00  0.00     0.168 HD
HETATM    7  N3  UNL     1      17.113  41.739  15.619  1.00  0.00    -0.289 N 
HETATM    8  N2  UNL     1      17.577  40.733  14.868  1.00  0.00    -0.263 N 
ATOM      9  H3  UNL     1      17.610  42.621  15.741  1.00  0.00     0.188 HD
HETATM   10  C6  UNL     1      18.748  40.757  14.171  1.00  0.00     0.117 A 
HETATM   11  C23 UNL     1      16.949  39.537  14.674  1.00  0.00     0.108 A 
HETATM   12  C5  UNL     1      18.861  39.573  13.486  1.00  0.00     0.030 A 
HETATM   13  C4  UNL     1      17.704  38.787  13.776  1.00  0.00     0.004 A 
BRANCH  13  14
HETATM   14  C3  UNL     1      17.436  37.444  13.173  1.00  0.00     0.310 C 
BRANCH  14  15
HETATM   15  N1  UNL     1      17.755  36.399  14.154  1.00  0.00     0.089 N 
HETATM   16  H6  UNL     1      18.699  36.059  13.959  1.00  0.00     0.316 HD
BRANCH  15  17
HETATM   17  C2  UNL     1      16.866  35.248  13.955  1.00  0.00     0.295 C 
BRANCH  17  18
HETATM   18  C1  UNL     1      16.659  34.911  12.469  1.00  0.00     0.194 C 
BRANCH  18  19
HETATM   19  O1  UNL     1      15.263  34.717  12.188  1.00  0.00    -0.399 OA
HETATM   20  H1  UNL     1      14.909  34.092  12.856  1.00  0.00     0.209 HD
ENDBRANCH  18  19
ENDBRANCH  17  18
ENDBRANCH  15  17
ENDBRANCH  14  15
ENDBRANCH  13  14
ENDBRANCH   1   3
BRANCH   1  21
HETATM   21  C9  UNL     1      14.204  37.456  16.194  1.00  0.00     0.034 A 
HETATM   22  C10 UNL     1      13.131  36.631  15.834  1.00  0.00     0.032 A 
HETATM   23  C11 UNL     1      12.377  35.914  16.775  1.00  0.00     0.034 A 
HETATM   24  C12 UNL     1      12.740  36.037  18.120  1.00  0.00     0.062 A 
HETATM   25  C13 UNL     1      13.799  36.840  18.527  1.00  0.00     0.011 A 
HETATM   26  N7  UNL     1      12.245  35.476  19.277  1.00  0.00    -0.288 N 
HETATM   27  C14 UNL     1      13.842  36.697  19.933  1.00  0.00     0.121 A 
HETATM   28  C22 UNL     1      14.541  37.544  17.556  1.00  0.00     0.044 A 
HETATM   29  N6  UNL     1      12.901  35.873  20.402  1.00  0.00    -0.308 N 
ATOM     30  H6  UNL     1      12.719  35.606  21.369  1.00  0.00     0.186 HD
BRANCH  26  31
HETATM   31  C15 UNL     1      11.190  34.475  19.381  1.00  0.00     0.187 C 
BRANCH  31  32
HETATM   32  C16 UNL     1       9.816  35.091  19.461  1.00  0.00    -0.035 A 
HETATM   33  C17 UNL     1       9.324  35.920  18.434  1.00  0.00     0.009 A 
HETATM   34  C18 UNL     1       8.067  36.524  18.531  1.00  0.00     0.004 A 
HETATM   35  C19 UNL     1       7.297  36.323  19.667  1.00  0.00     0.042 A 
HETATM   36  C20 UNL     1       7.790  35.520  20.694  1.00  0.00     0.117 A 
HETATM   37  F1  UNL     1       7.079  35.373  21.833  1.00  0.00    -0.206 F 
HETATM   38  C21 UNL     1       9.035  34.905  20.600  1.00  0.00     0.051 A 
ENDBRANCH  31  32
ENDBRANCH  26  31
ENDBRANCH   1  21
TORSDOF 9
ENDMDL
MODEL 7
REMARK minimizedAffinity -7.35179043
REMARK  9 active torsions:
REMARK  status: ('A' for Active; 'I' for Inactive)
REMARK    1  A    between atoms: O1_1  and  C1_2 
REMARK    2  A    between atoms: C1_2  and  C2_3 
REMARK    3  A    between atoms: C2_3  and  N1_4 
REMARK    4  A    between atoms: N1_4  and  C3_5 
REMARK    5  A    between atoms: C3_5  and  C4_6 
REMARK    6  A    between atoms: C8_15  and  N5_16 
REMARK    7  A    between atoms: N5_16  and  C9_17 
REMARK    8  A    between atoms: N7_25  and  C15_26 
REMARK    9  A    between atoms: C15_26  and  C16_27 
ROOT
HETATM    1  N5  UNL     1      15.280  36.332  15.705  1.00  0.00    -0.341 N 
HETATM    2  H12 UNL     1      15.393  37.346  15.885  1.00  0.00     0.167 HD
ENDROOT
BRANCH   1   3
HETATM    3  C8  UNL     1      15.798  35.896  14.504  1.00  0.00     0.136 A 
HETATM    4  N4  UNL     1      15.231  34.972  13.784  1.00  0.00    -0.336 N 
HETATM    5  C7  UNL     1      15.767  34.592  12.585  1.00  0.00     0.199 A 
ATOM      6  H4  UNL     1      14.376  34.527  14.117  1.00  0.00     0.168 HD
HETATM    7  N3  UNL     1      16.832  35.064  12.030  1.00  0.00    -0.289 N 
HETATM    8  N2  UNL     1      17.443  36.001  12.763  1.00  0.00    -0.263 N 
ATOM      9  H3  UNL     1      17.174  34.753  11.120  1.00  0.00     0.188 HD
HETATM   10  C6  UNL     1      18.590  36.645  12.404  1.00  0.00     0.117 A 
HETATM   11  C23 UNL     1      17.026  36.448  13.983  1.00  0.00     0.108 A 
HETATM   12  C5  UNL     1      18.938  37.495  13.425  1.00  0.00     0.030 A 
HETATM   13  C4  UNL     1      17.960  37.365  14.457  1.00  0.00     0.004 A 
BRANCH  13  14
HETATM   14  C3  UNL     1      18.022  38.094  15.762  1.00  0.00     0.310 C 
BRANCH  14  15
HETATM   15  N1  UNL     1      17.951  39.540  15.513  1.00  0.00     0.089 N 
HETATM   16  H6  UNL     1      18.101  40.022  16.401  1.00  0.00     0.316 HD
BRANCH  15  17
HETATM   17  C2  UNL     1      16.593  39.900  15.085  1.00  0.00     0.295 C 
BRANCH  17  18
HETATM   18  C1  UNL     1      16.568  40.570  13.702  1.00  0.00     0.194 C 
BRANCH  18  19
HETATM   19  O1  UNL     1      15.542  39.988  12.881  1.00  0.00    -0.399 OA
HETATM   20  H1  UNL     1      15.647  39.014  12.920  1.00  0.00     0.209 HD
ENDBRANCH  18  19
ENDBRANCH  17  18
ENDBRANCH  15  17
ENDBRANCH  14  15
ENDBRANCH  13  14
ENDBRANCH   1   3
BRANCH   1  21
HETATM   21  C9  UNL     1      14.379  35.711  16.594  1.00  0.00     0.034 A 
HETATM   22  C10 UNL     1      14.748  34.747  17.541  1.00  0.00     0.032 A 
HETATM   23  C11 UNL     1      13.843  34.209  18.468  1.00  0.00     0.034 A 
HETATM   24  C12 UNL     1      12.527  34.681  18.430  1.00  0.00     0.062 A 
HETATM   25  C13 UNL     1      12.113  35.639  17.512  1.00  0.00     0.011 A 
HETATM   26  N7  UNL     1      11.411  34.395  19.185  1.00  0.00    -0.288 N 
HETATM   27  C14 UNL     1      10.742  35.842  17.795  1.00  0.00     0.121 A 
HETATM   28  C22 UNL     1      13.048  36.163  16.596  1.00  0.00     0.044 A 
HETATM   29  N6  UNL     1      10.302  35.091  18.808  1.00  0.00    -0.308 N 
ATOM     30  H6  UNL     1       9.363  35.048  19.202  1.00  0.00     0.186 HD
BRANCH  26  31
HETATM   31  C15 UNL     1      11.343  33.522  20.351  1.00  0.00     0.187 C 
BRANCH  31  32
HETATM   32  C16 UNL     1      10.990  34.270  21.613  1.00  0.00    -0.035 A 
HETATM   33  C17 UNL     1      11.805  35.309  22.101  1.00  0.00     0.009 A 
HETATM   34  C18 UNL     1      11.497  35.971  23.292  1.00  0.00     0.004 A 
HETATM   35  C19 UNL     1      10.382  35.585  24.022  1.00  0.00     0.042 A 
HETATM   36  C20 UNL     1       9.585  34.542  23.552  1.00  0.00     0.117 A 
HETATM   37  F1  UNL     1       8.537  34.113  24.287  1.00  0.00    -0.206 F 
HETATM   38  C21 UNL     1       9.878  33.887  22.360  1.00  0.00     0.051 A 
ENDBRANCH  31  32
ENDBRANCH  26  31
ENDBRANCH   1  21
TORSDOF 9
ENDMDL
MODEL 8
REMARK minimizedAffinity -7.28258419
REMARK  9 active torsions:
REMARK  status: ('A' for Active; 'I' for Inactive)
REMARK    1  A    between atoms: O1_1  and  C1_2 
REMARK    2  A    between atoms: C1_2  and  C2_3 
REMARK    3  A    between atoms: C2_3  and  N1_4 
REMARK    4  A    between atoms: N1_4  and  C3_5 
REMARK    5  A    between atoms: C3_5  and  C4_6 
REMARK    6  A    between atoms: C8_15  and  N5_16 
REMARK    7  A    between atoms: N5_16  and  C9_17 
REMARK    8  A    between atoms: N7_25  and  C15_26 
REMARK    9  A    between atoms: C15_26  and  C16_27 
ROOT
HETATM    1  N5  UNL     1      15.621  37.236  15.311  1.00  0.00    -0.341 N 
HETATM    2  H12 UNL     1      14.645  37.107  14.989  1.00  0.00     0.167 HD
ENDROOT
BRANCH   1   3
HETATM    3  C8  UNL     1      16.207  36.112  15.852  1.00  0.00     0.136 A 
HETATM    4  N4  UNL     1      17.265  35.552  15.342  1.00  0.00    -0.336 N 
HETATM    5  C7  UNL     1      17.828  34.454  15.930  1.00  0.00     0.199 A 
ATOM      6  H4  UNL     1      17.680  35.938  14.494  1.00  0.00     0.168 HD
HETATM    7  N3  UNL     1      17.425  33.859  17.003  1.00  0.00    -0.289 N 
HETATM    8  N2  UNL     1      16.325  34.405  17.532  1.00  0.00    -0.263 N 
ATOM      9  H3  UNL     1      17.900  33.051  17.407  1.00  0.00     0.188 HD
HETATM   10  C6  UNL     1      15.697  33.957  18.656  1.00  0.00     0.117 A 
HETATM   11  C23 UNL     1      15.656  35.483  17.029  1.00  0.00     0.108 A 
HETATM   12  C5  UNL     1      14.584  34.734  18.861  1.00  0.00     0.030 A 
HETATM   13  C4  UNL     1      14.527  35.703  17.813  1.00  0.00     0.004 A 
BRANCH  13  14
HETATM   14  C3  UNL     1      13.424  36.703  17.660  1.00  0.00     0.310 C 
BRANCH  14  15
HETATM   15  N1  UNL     1      12.207  36.183  18.296  1.00  0.00     0.089 N 
HETATM   16  H6  UNL     1      12.458  35.348  18.829  1.00  0.00     0.316 HD
BRANCH  15  17
HETATM   17  C2  UNL     1      11.267  35.729  17.262  1.00  0.00     0.295 C 
BRANCH  17  18
HETATM   18  C1  UNL     1       9.799  35.960  17.656  1.00  0.00     0.194 C 
BRANCH  18  19
HETATM   19  O1  UNL     1       8.954  35.909  16.495  1.00  0.00    -0.399 OA
HETATM   20  H1  UNL     1       9.347  36.496  15.815  1.00  0.00     0.209 HD
ENDBRANCH  18  19
ENDBRANCH  17  18
ENDBRANCH  15  17
ENDBRANCH  14  15
ENDBRANCH  13  14
ENDBRANCH   1   3
BRANCH   1  21
HETATM   21  C9  UNL     1      16.004  38.591  15.377  1.00  0.00     0.034 A 
HETATM   22  C10 UNL     1      16.782  39.236  14.407  1.00  0.00     0.032 A 
HETATM   23  C11 UNL     1      17.076  40.607  14.460  1.00  0.00     0.034 A 
HETATM   24  C12 UNL     1      16.549  41.338  15.529  1.00  0.00     0.062 A 
HETATM   25  C13 UNL     1      15.769  40.744  16.514  1.00  0.00     0.011 A 
HETATM   26  N7  UNL     1      16.618  42.670  15.874  1.00  0.00    -0.288 N 
HETATM   27  C14 UNL     1      15.437  41.798  17.397  1.00  0.00     0.121 A 
HETATM   28  C22 UNL     1      15.487  39.365  16.430  1.00  0.00     0.044 A 
HETATM   29  N6  UNL     1      15.950  42.973  17.022  1.00  0.00    -0.308 N 
ATOM     30  H6  UNL     1      15.862  43.878  17.483  1.00  0.00     0.186 HD
BRANCH  26  31
HETATM   31  C15 UNL     1      17.240  43.741  15.106  1.00  0.00     0.187 C 
BRANCH  31  32
HETATM   32  C16 UNL     1      17.884  44.784  15.985  1.00  0.00    -0.035 A 
HETATM   33  C17 UNL     1      19.092  44.527  16.662  1.00  0.00     0.009 A 
HETATM   34  C18 UNL     1      19.663  45.479  17.509  1.00  0.00     0.004 A 
HETATM   35  C19 UNL     1      19.022  46.693  17.706  1.00  0.00     0.042 A 
HETATM   36  C20 UNL     1      17.815  46.943  17.054  1.00  0.00     0.117 A 
HETATM   37  F1  UNL     1      17.147  48.092  17.292  1.00  0.00    -0.206 F 
HETATM   38  C21 UNL     1      17.246  46.004  16.200  1.00  0.00     0.051 A 
ENDBRANCH  31  32
ENDBRANCH  26  31
ENDBRANCH   1  21
TORSDOF 9
ENDMDL
MODEL 9
REMARK minimizedAffinity -7.19710159
REMARK  9 active torsions:
REMARK  status: ('A' for Active; 'I' for Inactive)
REMARK    1  A    between atoms: O1_1  and  C1_2 
REMARK    2  A    between atoms: C1_2  and  C2_3 
REMARK    3  A    between atoms: C2_3  and  N1_4 
REMARK    4  A    between atoms: N1_4  and  C3_5 
REMARK    5  A    between atoms: C3_5  and  C4_6 
REMARK    6  A    between atoms: C8_15  and  N5_16 
REMARK    7  A    between atoms: N5_16  and  C9_17 
REMARK    8  A    between atoms: N7_25  and  C15_26 
REMARK    9  A    between atoms: C15_26  and  C16_27 
ROOT
HETATM    1  N5  UNL     1      17.209  52.054   5.666  1.00  0.00    -0.341 N 
HETATM    2  H12 UNL     1      16.662  51.228   5.362  1.00  0.00     0.167 HD
ENDROOT
BRANCH   1   3
HETATM    3  C8  UNL     1      18.124  51.806   6.668  1.00  0.00     0.136 A 
HETATM    4  N4  UNL     1      18.604  52.742   7.433  1.00  0.00    -0.336 N 
HETATM    5  C7  UNL     1      19.488  52.444   8.432  1.00  0.00     0.199 A 
ATOM      6  H4  UNL     1      18.317  53.710   7.287  1.00  0.00     0.168 HD
HETATM    7  N3  UNL     1      19.938  51.275   8.744  1.00  0.00    -0.289 N 
HETATM    8  N2  UNL     1      19.473  50.300   7.956  1.00  0.00    -0.263 N 
ATOM      9  H3  UNL     1      20.584  51.111   9.516  1.00  0.00     0.188 HD
HETATM   10  C6  UNL     1      19.804  48.982   8.070  1.00  0.00     0.117 A 
HETATM   11  C23 UNL     1      18.610  50.469   6.912  1.00  0.00     0.108 A 
HETATM   12  C5  UNL     1      19.174  48.295   7.062  1.00  0.00     0.030 A 
HETATM   13  C4  UNL     1      18.423  49.236   6.294  1.00  0.00     0.004 A 
BRANCH  13  14
HETATM   14  C3  UNL     1      17.637  48.877   5.072  1.00  0.00     0.310 C 
BRANCH  14  15
HETATM   15  N1  UNL     1      16.246  48.600   5.454  1.00  0.00     0.089 N 
HETATM   16  H6  UNL     1      16.080  49.017   6.372  1.00  0.00     0.316 HD
BRANCH  15  17
HETATM   17  C2  UNL     1      16.064  47.153   5.633  1.00  0.00     0.295 C 
BRANCH  17  18
HETATM   18  C1  UNL     1      14.805  46.813   6.448  1.00  0.00     0.194 C 
BRANCH  18  19
HETATM   19  O1  UNL     1      15.084  45.762   7.387  1.00  0.00    -0.399 OA
HETATM   20  H1  UNL     1      15.528  45.036   6.899  1.00  0.00     0.209 HD
ENDBRANCH  18  19
ENDBRANCH  17  18
ENDBRANCH  15  17
ENDBRANCH  14  15
ENDBRANCH  13  14
ENDBRANCH   1   3
BRANCH   1  21
HETATM   21  C9  UNL     1      16.685  53.271   5.184  1.00  0.00     0.034 A 
HETATM   22  C10 UNL     1      17.466  54.313   4.668  1.00  0.00     0.032 A 
HETATM   23  C11 UNL     1      16.908  55.477   4.119  1.00  0.00     0.034 A 
HETATM   24  C12 UNL     1      15.513  55.570   4.088  1.00  0.00     0.062 A 
HETATM   25  C13 UNL     1      14.696  54.562   4.585  1.00  0.00     0.011 A 
HETATM   26  N7  UNL     1      14.652  56.536   3.616  1.00  0.00    -0.288 N 
HETATM   27  C14 UNL     1      13.377  55.028   4.373  1.00  0.00     0.121 A 
HETATM   28  C22 UNL     1      15.287  53.402   5.127  1.00  0.00     0.044 A 
HETATM   29  N6  UNL     1      13.337  56.227   3.788  1.00  0.00    -0.308 N 
ATOM     30  H6  UNL     1      12.518  56.778   3.531  1.00  0.00     0.186 HD
BRANCH  26  31
HETATM   31  C15 UNL     1      15.012  57.756   2.904  1.00  0.00     0.187 C 
BRANCH  31  32
HETATM   32  C16 UNL     1      14.163  58.934   3.311  1.00  0.00    -0.035 A 
HETATM   33  C17 UNL     1      13.696  59.864   2.362  1.00  0.00     0.009 A 
HETATM   34  C18 UNL     1      12.945  60.977   2.748  1.00  0.00     0.004 A 
HETATM   35  C19 UNL     1      12.671  61.186   4.091  1.00  0.00     0.042 A 
HETATM   36  C20 UNL     1      13.150  60.279   5.036  1.00  0.00     0.117 A 
HETATM   37  F1  UNL     1      12.948  60.509   6.351  1.00  0.00    -0.206 F 
HETATM   38  C21 UNL     1      13.888  59.161   4.658  1.00  0.00     0.051 A 
ENDBRANCH  31  32
ENDBRANCH  26  31
ENDBRANCH   1  21
TORSDOF 9
ENDMDL
