MODEL 1
REMARK minimizedAffinity -8.02320385
REMARK  3 active torsions:
REMARK  status: ('A' for Active; 'I' for Inactive)
REMARK    1  A    between atoms: N1_1  and  C1_2 
REMARK    2  A    between atoms: C6_11  and  N4_12 
REMARK    3  A    between atoms: N4_12  and  C7_13 
ROOT
HETATM    1  C1  UNL     1      14.531  37.747  15.798  1.00  0.00     0.006 A 
HETATM    2  C2  UNL     1      15.829  37.612  16.276  1.00  0.00     0.025 A 
HETATM    3  C3  UNL     1      16.155  36.583  17.166  1.00  0.00     0.032 A 
HETATM    4  C4  UNL     1      15.202  35.688  17.633  1.00  0.00     0.047 A 
HETATM    5  N2  UNL     1      15.585  34.736  18.485  1.00  0.00    -0.352 N 
ATOM      6  H2  UNL     1      16.557  34.639  18.782  1.00  0.00     0.166 HD
HETATM    7  C5  UNL     1      14.631  33.913  18.931  1.00  0.00     0.182 A 
HETATM    8  N3  UNL     1      13.339  33.948  18.595  1.00  0.00    -0.338 N 
ATOM      9  H3  UNL     1      12.670  33.283  18.983  1.00  0.00     0.168 HD
HETATM   10  C6  UNL     1      12.962  34.900  17.723  1.00  0.00     0.119 A 
HETATM   11  C15 UNL     1      13.879  35.835  17.199  1.00  0.00     0.036 A 
HETATM   12  C16 UNL     1      13.554  36.890  16.303  1.00  0.00     0.040 A 
ENDROOT
BRANCH  10  13
HETATM   13  N4  UNL     1      11.607  34.959  17.295  1.00  0.00    -0.342 N 
HETATM   14  H6  UNL     1      11.408  34.135  16.738  1.00  0.00     0.167 HD
BRANCH  13  15
HETATM   15  C7  UNL     1      10.467  35.373  18.025  1.00  0.00     0.034 A 
HETATM   16  C8  UNL     1       9.405  36.064  17.436  1.00  0.00     0.032 A 
HETATM   17  C9  UNL     1       8.251  36.412  18.150  1.00  0.00     0.033 A 
HETATM   18  C10 UNL     1       8.174  36.017  19.488  1.00  0.00     0.043 A 
HETATM   19  N5  UNL     1       7.175  36.215  20.417  1.00  0.00    -0.364 N 
HETATM   20  C13 UNL     1       9.190  35.294  20.115  1.00  0.00     0.011 A 
HETATM   21  C11 UNL     1       7.517  35.640  21.612  1.00  0.00     0.108 A 
HETATM   22  H9  UNL     1       6.315  36.713  20.233  1.00  0.00     0.165 HD
HETATM   23  C12 UNL     1       8.752  35.067  21.445  1.00  0.00     0.038 A 
HETATM   24 BR1  UNL     1       9.720  34.133  22.753  1.00  0.00    -0.049 Br
HETATM   25  C14 UNL     1      10.339  34.960  19.365  1.00  0.00     0.044 A 
ENDBRANCH  13  15
ENDBRANCH  10  13
BRANCH   1  26
HETATM   26  N1  UNL     1      14.175  38.848  15.018  1.00  0.00    -0.303 NA
HETATM   27  H1  UNL     1      13.324  38.730  14.477  1.00  0.00     0.124 HD
HETATM   28  H2  UNL     1      14.934  39.233  14.464  1.00  0.00     0.124 HD
ENDBRANCH   1  26
TORSDOF 3
ENDMDL
MODEL 2
REMARK minimizedAffinity -7.45689535
REMARK  3 active torsions:
REMARK  status: ('A' for Active; 'I' for Inactive)
REMARK    1  A    between atoms: N1_1  and  C1_2 
REMARK    2  A    between atoms: C6_11  and  N4_12 
REMARK    3  A    between atoms: N4_12  and  C7_13 
ROOT
HETATM    1  C1  UNL     1       8.051  34.825  21.881  1.00  0.00     0.006 A 
HETATM    2  C2  UNL     1       7.107  35.657  21.290  1.00  0.00     0.025 A 
HETATM    3  C3  UNL     1       7.293  36.130  19.986  1.00  0.00     0.032 A 
HETATM    4  C4  UNL     1       8.430  35.824  19.251  1.00  0.00     0.047 A 
HETATM    5  N2  UNL     1       8.542  36.316  18.016  1.00  0.00    -0.352 N 
ATOM      6  H2  UNL     1       7.809  36.889  17.597  1.00  0.00     0.166 HD
HETATM    7  C5  UNL     1       9.665  36.020  17.354  1.00  0.00     0.182 A 
HETATM    8  N3  UNL     1      10.673  35.271  17.806  1.00  0.00    -0.338 N 
ATOM      9  H3  UNL     1      11.500  35.092  17.237  1.00  0.00     0.168 HD
HETATM   10  C6  UNL     1      10.547  34.764  19.046  1.00  0.00     0.119 A 
HETATM   11  C15 UNL     1       9.414  35.024  19.844  1.00  0.00     0.036 A 
HETATM   12  C16 UNL     1       9.222  34.557  21.174  1.00  0.00     0.040 A 
ENDROOT
BRANCH  10  13
HETATM   13  N4  UNL     1      11.570  33.923  19.564  1.00  0.00    -0.342 N 
HETATM   14  H6  UNL     1      11.361  32.964  19.308  1.00  0.00     0.167 HD
BRANCH  13  15
HETATM   15  C7  UNL     1      12.967  34.151  19.602  1.00  0.00     0.034 A 
HETATM   16  C8  UNL     1      13.745  33.874  20.729  1.00  0.00     0.032 A 
HETATM   17  C9  UNL     1      15.136  34.040  20.737  1.00  0.00     0.033 A 
HETATM   18  C10 UNL     1      15.744  34.471  19.554  1.00  0.00     0.043 A 
HETATM   19  N5  UNL     1      17.071  34.714  19.275  1.00  0.00    -0.364 N 
HETATM   20  C13 UNL     1      15.018  34.727  18.390  1.00  0.00     0.011 A 
HETATM   21  C11 UNL     1      17.216  35.111  17.971  1.00  0.00     0.108 A 
HETATM   22  H9  UNL     1      17.823  34.609  19.941  1.00  0.00     0.165 HD
HETATM   23  C12 UNL     1      15.964  35.122  17.411  1.00  0.00     0.038 A 
HETATM   24 BR1  UNL     1      15.553  35.586  15.640  1.00  0.00    -0.049 Br
HETATM   25  C14 UNL     1      13.617  34.548  18.418  1.00  0.00     0.044 A 
ENDBRANCH  13  15
ENDBRANCH  10  13
BRANCH   1  26
HETATM   26  N1  UNL     1       7.932  34.462  23.223  1.00  0.00    -0.303 NA
HETATM   27  H1  UNL     1       8.470  33.644  23.491  1.00  0.00     0.124 HD
HETATM   28  H2  UNL     1       6.977  34.425  23.565  1.00  0.00     0.124 HD
ENDBRANCH   1  26
TORSDOF 3
ENDMDL
MODEL 3
REMARK minimizedAffinity -7.4443078
REMARK  3 active torsions:
REMARK  status: ('A' for Active; 'I' for Inactive)
REMARK    1  A    between atoms: N1_1  and  C1_2 
REMARK    2  A    between atoms: C6_11  and  N4_12 
REMARK    3  A    between atoms: N4_12  and  C7_13 
ROOT
HETATM    1  C1  UNL     1      14.842  35.292  20.170  1.00  0.00     0.006 A 
HETATM    2  C2  UNL     1      15.916  36.067  19.747  1.00  0.00     0.025 A 
HETATM    3  C3  UNL     1      15.870  36.734  18.517  1.00  0.00     0.032 A 
HETATM    4  C4  UNL     1      14.781  36.622  17.664  1.00  0.00     0.047 A 
HETATM    5  N2  UNL     1      14.810  37.283  16.504  1.00  0.00    -0.352 N 
ATOM      6  H2  UNL     1      15.597  37.878  16.245  1.00  0.00     0.166 HD
HETATM    7  C5  UNL     1      13.754  37.125  15.700  1.00  0.00     0.182 A 
HETATM    8  N3  UNL     1      12.674  36.383  15.953  1.00  0.00    -0.338 N 
ATOM      9  H3  UNL     1      11.907  36.313  15.283  1.00  0.00     0.168 HD
HETATM   10  C6  UNL     1      12.643  35.733  17.130  1.00  0.00     0.119 A 
HETATM   11  C15 UNL     1      13.708  35.811  18.051  1.00  0.00     0.036 A 
HETATM   12  C16 UNL     1      13.768  35.127  19.296  1.00  0.00     0.040 A 
ENDROOT
BRANCH  10  13
HETATM   13  N4  UNL     1      11.499  34.961  17.473  1.00  0.00    -0.342 N 
HETATM   14  H6  UNL     1      11.805  34.035  17.750  1.00  0.00     0.167 HD
BRANCH  13  15
HETATM   15  C7  UNL     1      10.350  35.360  18.198  1.00  0.00     0.034 A 
HETATM   16  C8  UNL     1       9.288  36.049  17.607  1.00  0.00     0.032 A 
HETATM   17  C9  UNL     1       8.125  36.382  18.315  1.00  0.00     0.033 A 
HETATM   18  C10 UNL     1       8.039  35.972  19.648  1.00  0.00     0.043 A 
HETATM   19  N5  UNL     1       7.032  36.154  20.570  1.00  0.00    -0.364 N 
HETATM   20  C13 UNL     1       9.055  35.250  20.276  1.00  0.00     0.011 A 
HETATM   21  C11 UNL     1       7.368  35.568  21.762  1.00  0.00     0.108 A 
HETATM   22  H9  UNL     1       6.169  36.647  20.384  1.00  0.00     0.165 HD
HETATM   23  C12 UNL     1       8.608  35.005  21.599  1.00  0.00     0.038 A 
HETATM   24 BR1  UNL     1       9.572  34.064  22.905  1.00  0.00    -0.049 Br
HETATM   25  C14 UNL     1      10.213  34.931  19.532  1.00  0.00     0.044 A 
ENDBRANCH  13  15
ENDBRANCH  10  13
BRANCH   1  26
HETATM   26  N1  UNL     1      14.940  34.522  21.330  1.00  0.00    -0.303 NA
HETATM   27  H1  UNL     1      14.050  34.231  21.723  1.00  0.00     0.124 HD
HETATM   28  H2  UNL     1      15.568  34.899  22.033  1.00  0.00     0.124 HD
ENDBRANCH   1  26
TORSDOF 3
ENDMDL
MODEL 4
REMARK minimizedAffinity -7.33974457
REMARK  3 active torsions:
REMARK  status: ('A' for Active; 'I' for Inactive)
REMARK    1  A    between atoms: N1_1  and  C1_2 
REMARK    2  A    between atoms: C6_11  and  N4_12 
REMARK    3  A    between atoms: N4_12  and  C7_13 
ROOT
HETATM    1  C1  UNL     1       8.736  36.057  18.093  1.00  0.00     0.006 A 
HETATM    2  C2  UNL     1       7.521  35.646  18.631  1.00  0.00     0.025 A 
HETATM    3  C3  UNL     1       7.352  35.554  20.017  1.00  0.00     0.032 A 
HETATM    4  C4  UNL     1       8.386  35.828  20.901  1.00  0.00     0.047 A 
HETATM    5  N2  UNL     1       8.152  35.714  22.210  1.00  0.00    -0.352 N 
ATOM      6  H2  UNL     1       7.235  35.451  22.571  1.00  0.00     0.166 HD
HETATM    7  C5  UNL     1       9.183  35.960  23.025  1.00  0.00     0.182 A 
HETATM    8  N3  UNL     1      10.413  36.321  22.654  1.00  0.00    -0.338 N 
ATOM      9  H3  UNL     1      11.149  36.490  23.340  1.00  0.00     0.168 HD
HETATM   10  C6  UNL     1      10.638  36.451  21.334  1.00  0.00     0.119 A 
HETATM   11  C15 UNL     1       9.631  36.200  20.379  1.00  0.00     0.036 A 
HETATM   12  C16 UNL     1       9.798  36.280  18.969  1.00  0.00     0.040 A 
ENDROOT
BRANCH  10  13
HETATM   13  N4  UNL     1      11.918  36.875  20.881  1.00  0.00    -0.342 N 
HETATM   14  H6  UNL     1      12.210  37.670  21.438  1.00  0.00     0.167 HD
BRANCH  13  15
HETATM   15  C7  UNL     1      13.026  36.082  20.496  1.00  0.00     0.034 A 
HETATM   16  C8  UNL     1      13.556  35.081  21.315  1.00  0.00     0.032 A 
HETATM   17  C9  UNL     1      14.611  34.257  20.900  1.00  0.00     0.033 A 
HETATM   18  C10 UNL     1      15.111  34.445  19.609  1.00  0.00     0.043 A 
HETATM   19  N5  UNL     1      16.125  33.790  18.945  1.00  0.00    -0.364 N 
HETATM   20  C13 UNL     1      14.594  35.405  18.738  1.00  0.00     0.011 A 
HETATM   21  C11 UNL     1      16.269  34.296  17.680  1.00  0.00     0.108 A 
HETATM   22  H9  UNL     1      16.677  33.041  19.341  1.00  0.00     0.165 HD
HETATM   23  C12 UNL     1      15.334  35.289  17.534  1.00  0.00     0.038 A 
HETATM   24 BR1  UNL     1      15.066  36.335  16.000  1.00  0.00    -0.049 Br
HETATM   25  C14 UNL     1      13.530  36.219  19.189  1.00  0.00     0.044 A 
ENDBRANCH  13  15
ENDBRANCH  10  13
BRANCH   1  26
HETATM   26  N1  UNL     1       8.948  36.021  16.715  1.00  0.00    -0.303 NA
HETATM   27  H1  UNL     1       9.718  36.595  16.388  1.00  0.00     0.124 HD
HETATM   28  H2  UNL     1       8.109  36.147  16.157  1.00  0.00     0.124 HD
ENDBRANCH   1  26
TORSDOF 3
ENDMDL
MODEL 5
REMARK minimizedAffinity -7.26882362
REMARK  3 active torsions:
REMARK  status: ('A' for Active; 'I' for Inactive)
REMARK    1  A    between atoms: N1_1  and  C1_2 
REMARK    2  A    between atoms: C6_11  and  N4_12 
REMARK    3  A    between atoms: N4_12  and  C7_13 
ROOT
HETATM    1  C1  UNL     1       9.239  35.916  17.658  1.00  0.00     0.006 A 
HETATM    2  C2  UNL     1       8.336  36.411  18.591  1.00  0.00     0.025 A 
HETATM    3  C3  UNL     1       8.607  36.320  19.961  1.00  0.00     0.032 A 
HETATM    4  C4  UNL     1       9.755  35.706  20.442  1.00  0.00     0.047 A 
HETATM    5  N2  UNL     1       9.945  35.651  21.762  1.00  0.00    -0.352 N 
ATOM      6  H2  UNL     1       9.280  36.064  22.417  1.00  0.00     0.166 HD
HETATM    7  C5  UNL     1      11.049  35.028  22.182  1.00  0.00     0.182 A 
HETATM    8  N3  UNL     1      11.983  34.469  21.408  1.00  0.00    -0.338 N 
ATOM      9  H3  UNL     1      12.800  34.008  21.808  1.00  0.00     0.168 HD
HETATM   10  C6  UNL     1      11.795  34.542  20.078  1.00  0.00     0.119 A 
HETATM   11  C15 UNL     1      10.657  35.161  19.520  1.00  0.00     0.036 A 
HETATM   12  C16 UNL     1      10.368  35.248  18.130  1.00  0.00     0.040 A 
ENDROOT
BRANCH  10  13
HETATM   13  N4  UNL     1      12.777  34.003  19.202  1.00  0.00    -0.342 N 
HETATM   14  H6  UNL     1      12.352  33.849  18.295  1.00  0.00     0.167 HD
BRANCH  13  15
HETATM   15  C7  UNL     1      14.141  34.363  19.075  1.00  0.00     0.034 A 
HETATM   16  C8  UNL     1      15.041  34.292  20.142  1.00  0.00     0.032 A 
HETATM   17  C9  UNL     1      16.403  34.587  19.992  1.00  0.00     0.033 A 
HETATM   18  C10 UNL     1      16.854  34.932  18.716  1.00  0.00     0.043 A 
HETATM   19  N5  UNL     1      18.119  35.263  18.280  1.00  0.00    -0.364 N 
HETATM   20  C13 UNL     1      16.005  34.982  17.610  1.00  0.00     0.011 A 
HETATM   21  C11 UNL     1      18.106  35.518  16.934  1.00  0.00     0.108 A 
HETATM   22  H9  UNL     1      18.935  35.307  18.875  1.00  0.00     0.165 HD
HETATM   23  C12 UNL     1      16.814  35.348  16.504  1.00  0.00     0.038 A 
HETATM   24 BR1  UNL     1      16.201  35.563  14.744  1.00  0.00    -0.049 Br
HETATM   25  C14 UNL     1      14.638  34.679  17.796  1.00  0.00     0.044 A 
ENDBRANCH  13  15
ENDBRANCH  10  13
BRANCH   1  26
HETATM   26  N1  UNL     1       8.911  35.886  16.302  1.00  0.00    -0.303 NA
HETATM   27  H1  UNL     1       9.703  35.794  15.675  1.00  0.00     0.124 HD
HETATM   28  H2  UNL     1       8.269  36.616  16.009  1.00  0.00     0.124 HD
ENDBRANCH   1  26
TORSDOF 3
ENDMDL
MODEL 6
REMARK minimizedAffinity -7.22910023
REMARK  3 active torsions:
REMARK  status: ('A' for Active; 'I' for Inactive)
REMARK    1  A    between atoms: N1_1  and  C1_2 
REMARK    2  A    between atoms: C6_11  and  N4_12 
REMARK    3  A    between atoms: N4_12  and  C7_13 
ROOT
HETATM    1  C1  UNL     1      15.453  39.459  17.297  1.00  0.00     0.006 A 
HETATM    2  C2  UNL     1      16.767  39.469  16.845  1.00  0.00     0.025 A 
HETATM    3  C3  UNL     1      17.228  38.475  15.974  1.00  0.00     0.032 A 
HETATM    4  C4  UNL     1      16.414  37.430  15.560  1.00  0.00     0.047 A 
HETATM    5  N2  UNL     1      16.924  36.515  14.733  1.00  0.00    -0.352 N 
ATOM      6  H2  UNL     1      17.881  36.578  14.386  1.00  0.00     0.166 HD
HETATM    7  C5  UNL     1      16.115  35.511  14.380  1.00  0.00     0.182 A 
HETATM    8  N3  UNL     1      14.848  35.346  14.767  1.00  0.00    -0.338 N 
ATOM      9  H3  UNL     1      14.295  34.548  14.454  1.00  0.00     0.168 HD
HETATM   10  C6  UNL     1      14.334  36.281  15.587  1.00  0.00     0.119 A 
HETATM   11  C15 UNL     1      15.100  37.376  16.039  1.00  0.00     0.036 A 
HETATM   12  C16 UNL     1      14.644  38.383  16.933  1.00  0.00     0.040 A 
ENDROOT
BRANCH  10  13
HETATM   13  N4  UNL     1      12.977  36.181  15.998  1.00  0.00    -0.342 N 
HETATM   14  H6  UNL     1      12.400  36.037  15.176  1.00  0.00     0.167 HD
BRANCH  13  15
HETATM   15  C7  UNL     1      12.441  35.511  17.124  1.00  0.00     0.034 A 
HETATM   16  C8  UNL     1      13.199  34.643  17.915  1.00  0.00     0.032 A 
HETATM   17  C9  UNL     1      12.680  34.034  19.065  1.00  0.00     0.033 A 
HETATM   18  C10 UNL     1      11.367  34.346  19.427  1.00  0.00     0.043 A 
HETATM   19  N5  UNL     1      10.611  33.907  20.492  1.00  0.00    -0.364 N 
HETATM   20  C13 UNL     1      10.579  35.234  18.693  1.00  0.00     0.011 A 
HETATM   21  C11 UNL     1       9.370  34.487  20.465  1.00  0.00     0.108 A 
HETATM   22  H9  UNL     1      10.934  33.252  21.191  1.00  0.00     0.165 HD
HETATM   23  C12 UNL     1       9.333  35.308  19.366  1.00  0.00     0.038 A 
HETATM   24 BR1  UNL     1       7.878  36.363  18.827  1.00  0.00    -0.049 Br
HETATM   25  C14 UNL     1      11.134  35.830  17.539  1.00  0.00     0.044 A 
ENDBRANCH  13  15
ENDBRANCH  10  13
BRANCH   1  26
HETATM   26  N1  UNL     1      15.031  40.369  18.267  1.00  0.00    -0.303 NA
HETATM   27  H1  UNL     1      14.025  40.493  18.325  1.00  0.00     0.124 HD
HETATM   28  H2  UNL     1      15.529  41.254  18.258  1.00  0.00     0.124 HD
ENDBRANCH   1  26
TORSDOF 3
ENDMDL
MODEL 7
REMARK minimizedAffinity -7.06026077
REMARK  3 active torsions:
REMARK  status: ('A' for Active; 'I' for Inactive)
REMARK    1  A    between atoms: N1_1  and  C1_2 
REMARK    2  A    between atoms: C6_11  and  N4_12 
REMARK    3  A    between atoms: N4_12  and  C7_13 
ROOT
HETATM    1  C1  UNL     1       9.569  36.006  17.617  1.00  0.00     0.006 A 
HETATM    2  C2  UNL     1       8.924  36.367  18.795  1.00  0.00     0.025 A 
HETATM    3  C3  UNL     1       9.646  36.510  19.985  1.00  0.00     0.032 A 
HETATM    4  C4  UNL     1      11.010  36.265  20.048  1.00  0.00     0.047 A 
HETATM    5  N2  UNL     1      11.632  36.416  21.220  1.00  0.00    -0.352 N 
ATOM      6  H2  UNL     1      11.134  36.725  22.055  1.00  0.00     0.166 HD
HETATM    7  C5  UNL     1      12.940  36.143  21.243  1.00  0.00     0.182 A 
HETATM    8  N3  UNL     1      13.681  35.747  20.205  1.00  0.00    -0.338 N 
ATOM      9  H3  UNL     1      14.678  35.556  20.305  1.00  0.00     0.168 HD
HETATM   10  C6  UNL     1      13.053  35.612  19.023  1.00  0.00     0.119 A 
HETATM   11  C15 UNL     1      11.671  35.857  18.883  1.00  0.00     0.036 A 
HETATM   12  C16 UNL     1      10.928  35.702  17.681  1.00  0.00     0.040 A 
ENDROOT
BRANCH  10  13
HETATM   13  N4  UNL     1      13.800  35.235  17.874  1.00  0.00    -0.342 N 
HETATM   14  H6  UNL     1      13.321  34.468  17.415  1.00  0.00     0.167 HD
BRANCH  13  15
HETATM   15  C7  UNL     1      14.454  36.068  16.933  1.00  0.00     0.034 A 
HETATM   16  C8  UNL     1      14.369  37.462  16.973  1.00  0.00     0.032 A 
HETATM   17  C9  UNL     1      15.072  38.280  16.079  1.00  0.00     0.033 A 
HETATM   18  C10 UNL     1      15.902  37.655  15.144  1.00  0.00     0.043 A 
HETATM   19  N5  UNL     1      16.700  38.199  14.162  1.00  0.00    -0.364 N 
HETATM   20  C13 UNL     1      16.051  36.269  15.085  1.00  0.00     0.011 A 
HETATM   21  C11 UNL     1      17.356  37.207  13.481  1.00  0.00     0.108 A 
HETATM   22  H9  UNL     1      16.785  39.189  13.978  1.00  0.00     0.165 HD
HETATM   23  C12 UNL     1      16.971  36.013  14.036  1.00  0.00     0.038 A 
HETATM   24 BR1  UNL     1      17.554  34.311  13.505  1.00  0.00    -0.049 Br
HETATM   25  C14 UNL     1      15.327  35.474  16.001  1.00  0.00     0.044 A 
ENDBRANCH  13  15
ENDBRANCH  10  13
BRANCH   1  26
HETATM   26  N1  UNL     1       8.833  35.734  16.463  1.00  0.00    -0.303 NA
HETATM   27  H1  UNL     1       9.367  35.769  15.600  1.00  0.00     0.124 HD
HETATM   28  H2  UNL     1       7.955  36.240  16.395  1.00  0.00     0.124 HD
ENDBRANCH   1  26
TORSDOF 3
ENDMDL
MODEL 8
REMARK minimizedAffinity -6.95346546
REMARK  3 active torsions:
REMARK  status: ('A' for Active; 'I' for Inactive)
REMARK    1  A    between atoms: N1_1  and  C1_2 
REMARK    2  A    between atoms: C6_11  and  N4_12 
REMARK    3  A    between atoms: N4_12  and  C7_13 
ROOT
HETATM    1  C1  UNL     1       0.197  63.228  -2.669  1.00  0.00     0.006 A 
HETATM    2  C2  UNL     1      -0.351  63.884  -1.573  1.00  0.00     0.025 A 
HETATM    3  C3  UNL     1      -0.102  65.245  -1.361  1.00  0.00     0.032 A 
HETATM    4  C4  UNL     1       0.721  65.979  -2.204  1.00  0.00     0.047 A 
HETATM    5  N2  UNL     1       0.918  67.272  -1.937  1.00  0.00    -0.352 N 
ATOM      6  H2  UNL     1       0.464  67.731  -1.147  1.00  0.00     0.166 HD
HETATM    7  C5  UNL     1       1.739  67.934  -2.757  1.00  0.00     0.182 A 
HETATM    8  N3  UNL     1       2.368  67.429  -3.820  1.00  0.00    -0.338 N 
ATOM      9  H3  UNL     1       2.982  68.002  -4.398  1.00  0.00     0.168 HD
HETATM   10  C6  UNL     1       2.153  66.129  -4.095  1.00  0.00     0.119 A 
HETATM   11  C15 UNL     1       1.320  65.326  -3.289  1.00  0.00     0.036 A 
HETATM   12  C16 UNL     1       1.071  63.941  -3.490  1.00  0.00     0.040 A 
ENDROOT
BRANCH  10  13
HETATM   13  N4  UNL     1       2.762  65.547  -5.240  1.00  0.00    -0.342 N 
HETATM   14  H6  UNL     1       2.237  65.825  -6.062  1.00  0.00     0.167 HD
BRANCH  13  15
HETATM   15  C7  UNL     1       4.140  65.408  -5.535  1.00  0.00     0.034 A 
HETATM   16  C8  UNL     1       5.065  64.933  -4.601  1.00  0.00     0.032 A 
HETATM   17  C9  UNL     1       6.416  64.737  -4.921  1.00  0.00     0.033 A 
HETATM   18  C10 UNL     1       6.817  65.007  -6.232  1.00  0.00     0.043 A 
HETATM   19  N5  UNL     1       8.059  64.903  -6.819  1.00  0.00    -0.364 N 
HETATM   20  C13 UNL     1       5.927  65.448  -7.211  1.00  0.00     0.011 A 
HETATM   21  C11 UNL     1       7.991  65.259  -8.140  1.00  0.00     0.108 A 
HETATM   22  H9  UNL     1       8.896  64.604  -6.337  1.00  0.00     0.165 HD
HETATM   23  C12 UNL     1       6.686  65.596  -8.400  1.00  0.00     0.038 A 
HETATM   24 BR1  UNL     1       6.002  66.163 -10.052  1.00  0.00    -0.049 Br
HETATM   25  C14 UNL     1       4.573  65.635  -6.855  1.00  0.00     0.044 A 
ENDBRANCH  13  15
ENDBRANCH  10  13
BRANCH   1  26
HETATM   26  N1  UNL     1       0.060  61.846  -2.808  1.00  0.00    -0.303 NA
HETATM   27  H1  UNL     1       0.220  61.495  -3.747  1.00  0.00     0.124 HD
HETATM   28  H2  UNL     1      -0.783  61.464  -2.391  1.00  0.00     0.124 HD
ENDBRANCH   1  26
TORSDOF 3
ENDMDL
MODEL 9
REMARK minimizedAffinity -6.93609285
REMARK  3 active torsions:
REMARK  status: ('A' for Active; 'I' for Inactive)
REMARK    1  A    between atoms: N1_1  and  C1_2 
REMARK    2  A    between atoms: C6_11  and  N4_12 
REMARK    3  A    between atoms: N4_12  and  C7_13 
ROOT
HETATM    1  C1  UNL     1       9.939  34.948  23.238  1.00  0.00     0.006 A 
HETATM    2  C2  UNL     1       8.630  34.537  23.464  1.00  0.00     0.025 A 
HETATM    3  C3  UNL     1       7.674  34.617  22.446  1.00  0.00     0.032 A 
HETATM    4  C4  UNL     1       7.977  35.137  21.195  1.00  0.00     0.047 A 
HETATM    5  N2  UNL     1       7.012  35.187  20.275  1.00  0.00    -0.352 N 
ATOM      6  H2  UNL     1       6.073  34.836  20.462  1.00  0.00     0.166 HD
HETATM    7  C5  UNL     1       7.339  35.720  19.094  1.00  0.00     0.182 A 
HETATM    8  N3  UNL     1       8.539  36.193  18.747  1.00  0.00    -0.338 N 
ATOM      9  H3  UNL     1       8.709  36.587  17.822  1.00  0.00     0.168 HD
HETATM   10  C6  UNL     1       9.512  36.124  19.673  1.00  0.00     0.119 A 
HETATM   11  C15 UNL     1       9.278  35.598  20.961  1.00  0.00     0.036 A 
HETATM   12  C16 UNL     1      10.240  35.524  22.005  1.00  0.00     0.040 A 
ENDROOT
BRANCH  10  13
HETATM   13  N4  UNL     1      10.821  36.573  19.347  1.00  0.00    -0.342 N 
HETATM   14  H6  UNL     1      11.044  37.372  19.930  1.00  0.00     0.167 HD
BRANCH  13  15
HETATM   15  C7  UNL     1      11.976  35.802  19.071  1.00  0.00     0.034 A 
HETATM   16  C8  UNL     1      12.117  35.048  17.902  1.00  0.00     0.032 A 
HETATM   17  C9  UNL     1      13.289  34.340  17.605  1.00  0.00     0.033 A 
HETATM   18  C10 UNL     1      14.349  34.432  18.512  1.00  0.00     0.043 A 
HETATM   19  N5  UNL     1      15.599  33.856  18.478  1.00  0.00    -0.364 N 
HETATM   20  C13 UNL     1      14.273  35.200  19.675  1.00  0.00     0.011 A 
HETATM   21  C11 UNL     1      16.326  34.233  19.577  1.00  0.00     0.108 A 
HETATM   22  H9  UNL     1      15.927  33.245  17.742  1.00  0.00     0.165 HD
HETATM   23  C12 UNL     1      15.527  35.061  20.324  1.00  0.00     0.038 A 
HETATM   24 BR1  UNL     1      16.000  35.883  21.942  1.00  0.00    -0.049 Br
HETATM   25  C14 UNL     1      13.077  35.901  19.943  1.00  0.00     0.044 A 
ENDBRANCH  13  15
ENDBRANCH  10  13
BRANCH   1  26
HETATM   26  N1  UNL     1      10.857  34.994  24.288  1.00  0.00    -0.303 NA
HETATM   27  H1  UNL     1      11.831  35.014  24.000  1.00  0.00     0.124 HD
HETATM   28  H2  UNL     1      10.686  34.317  25.025  1.00  0.00     0.124 HD
ENDBRANCH   1  26
TORSDOF 3
ENDMDL
