MODEL 1
REMARK minimizedAffinity -8.47818279
REMARK CNNscore 0.744151115
REMARK CNNaffinity 7.63535738
REMARK  7 active torsions:
REMARK  status: ('A' for Active; 'I' for Inactive)
REMARK    1  A    between atoms: O1_2  and  C2_3 
REMARK    2  A    between atoms: C5_6  and  N1_7 
REMARK    3  A    between atoms: N1_7  and  C6_8 
REMARK    4  A    between atoms: O2_24  and  C16_25 
REMARK    5  A    between atoms: C16_25  and  C17_26 
REMARK    6  A    between atoms: C17_26  and  C18_27 
REMARK    7  A    between atoms: C18_27  and  N4_28 
ROOT
HETATM    1  C2  UNL     1       6.110  -7.509  28.768  1.00  0.00     0.168 A 
HETATM    2  C3  UNL     1       6.930  -6.678  29.506  1.00  0.00     0.049 A 
HETATM    3  C4  UNL     1       6.465  -5.494  30.016  1.00  0.00     0.035 A 
HETATM    4  C5  UNL     1       7.281  -4.635  30.756  1.00  0.00     0.119 A 
HETATM    5  N2  UNL     1       6.785  -3.479  31.232  1.00  0.00    -0.338 N 
ATOM      6  H2  UNL     1       7.399  -2.867  31.770  1.00  0.00     0.168 HD
HETATM    7  C12 UNL     1       5.511  -3.098  31.027  1.00  0.00     0.182 A 
HETATM    8  N3  UNL     1       4.708  -3.926  30.307  1.00  0.00    -0.352 N 
ATOM      9  H3  UNL     1       3.738  -3.662  30.136  1.00  0.00     0.166 HD
HETATM   10  C13 UNL     1       5.168  -5.070  29.826  1.00  0.00     0.047 A 
HETATM   11  C14 UNL     1       4.340  -5.903  29.087  1.00  0.00     0.043 A 
HETATM   12  C15 UNL     1       4.806  -7.119  28.558  1.00  0.00     0.007 A 
HETATM   13  O2  UNL     1       3.884  -7.868  27.835  1.00  0.00     0.000 OA
HETATM   14 CL1  UNL     1       5.479  -7.103  28.032  1.00  0.00    -0.190 Cl
HETATM   15  H28 UNL     1       4.292  -7.756  27.801  1.00  0.00     0.131 HD
ENDROOT
BRANCH   4  16
HETATM   16  N1  UNL     1       8.600  -5.053  30.988  1.00  0.00    -0.339 N 
HETATM   17  H5  UNL     1       8.972  -5.816  30.345  1.00  0.00     0.167 HD
BRANCH  16  18
HETATM   18  C6  UNL     1       9.462  -4.560  31.992  1.00  0.00     0.072 A 
HETATM   19  C7  UNL     1       9.338  -4.969  33.335  1.00  0.00     0.034 A 
HETATM   20  C8  UNL     1      10.230  -4.416  34.260  1.00  0.00     0.021 A 
HETATM   21  C9  UNL     1      11.196  -3.516  33.931  1.00  0.00     0.014 A 
HETATM   22 BR1  UNL     1      12.370  -2.806  35.247  1.00  0.00    -0.051 Br
HETATM   23  C10 UNL     1      11.299  -3.132  32.615  1.00  0.00     0.063 A 
HETATM   24  C11 UNL     1      10.458  -3.631  31.647  1.00  0.00     0.144 A 
HETATM   25  F1  UNL     1      10.567  -3.241  30.334  1.00  0.00    -0.204 F 
ENDBRANCH  16  18
ENDBRANCH   4  16
BRANCH   1  26
HETATM   26  O1  UNL     1       6.545  -8.714  28.231  1.00  0.00    -0.363 OA
HETATM   27  C1  UNL     1       7.506  -9.538  28.821  1.00  0.00     0.204 C 
ENDBRANCH   1  26
BRANCH  13  28
HETATM   28  C16 UNL     1       2.556  -7.439  27.622  1.00  0.00     0.002 C 
BRANCH  28  29
HETATM   29  C17 UNL     1       1.699  -8.694  27.449  1.00  0.00     0.019 C 
BRANCH  29  30
HETATM   30  C18 UNL     1       2.171  -9.395  26.221  1.00  0.00     0.117 C 
BRANCH  30  31
HETATM   31  N4  UNL     1       1.934  -8.664  25.004  1.00  0.00    -0.409 N 
HETATM   32  C19 UNL     1       2.790  -9.021  23.944  1.00  0.00     0.136 C 
HETATM   33  C20 UNL     1       2.200  -8.805  22.591  1.00  0.00     0.135 C 
HETATM   34  N5  UNL     1       0.958  -9.493  22.513  1.00  0.00    -0.414 N 
HETATM   35  C21 UNL     1       1.024 -10.856  22.103  1.00  0.00     0.143 C 
HETATM   36  C22 UNL     1       0.019  -9.174  23.529  1.00  0.00     0.135 C 
HETATM   37  C23 UNL     1       0.567  -8.433  24.700  1.00  0.00     0.136 C 
ENDBRANCH  30  31
ENDBRANCH  29  30
ENDBRANCH  28  29
ENDBRANCH  13  28
TORSDOF 7
ENDMDL
MODEL 2
REMARK minimizedAffinity -8.61149883
REMARK CNNscore 0.544559538
REMARK CNNaffinity 7.3918438
REMARK  7 active torsions:
REMARK  status: ('A' for Active; 'I' for Inactive)
REMARK    1  A    between atoms: O1_2  and  C2_3 
REMARK    2  A    between atoms: C5_6  and  N1_7 
REMARK    3  A    between atoms: N1_7  and  C6_8 
REMARK    4  A    between atoms: O2_24  and  C16_25 
REMARK    5  A    between atoms: C16_25  and  C17_26 
REMARK    6  A    between atoms: C17_26  and  C18_27 
REMARK    7  A    between atoms: C18_27  and  N4_28 
ROOT
HETATM    1  C2  UNL     1       5.922  -8.030  28.462  1.00  0.00     0.168 A 
HETATM    2  C3  UNL     1       6.702  -7.179  29.219  1.00  0.00     0.049 A 
HETATM    3  C4  UNL     1       6.211  -5.984  29.676  1.00  0.00     0.035 A 
HETATM    4  C5  UNL     1       6.987  -5.105  30.436  1.00  0.00     0.119 A 
HETATM    5  N2  UNL     1       6.465  -3.940  30.858  1.00  0.00    -0.338 N 
ATOM      6  H2  UNL     1       7.050  -3.313  31.411  1.00  0.00     0.168 HD
HETATM    7  C12 UNL     1       5.203  -3.568  30.580  1.00  0.00     0.182 A 
HETATM    8  N3  UNL     1       4.438  -4.415  29.841  1.00  0.00    -0.352 N 
ATOM      9  H3  UNL     1       3.478  -4.158  29.614  1.00  0.00     0.166 HD
HETATM   10  C13 UNL     1       4.924  -5.569  29.411  1.00  0.00     0.047 A 
HETATM   11  C14 UNL     1       4.135  -6.422  28.652  1.00  0.00     0.043 A 
HETATM   12  C15 UNL     1       4.630  -7.649  28.177  1.00  0.00     0.007 A 
HETATM   13  O2  UNL     1       3.746  -8.418  27.427  1.00  0.00     0.000 OA
HETATM   14 CL1  UNL     1       5.328  -7.644  27.686  1.00  0.00    -0.190 Cl
HETATM   15  H28 UNL     1       4.155  -8.306  27.411  1.00  0.00     0.131 HD
ENDROOT
BRANCH   4  16
HETATM   16  N1  UNL     1       8.293  -5.514  30.744  1.00  0.00    -0.339 N 
HETATM   17  H5  UNL     1       8.671  -6.339  30.188  1.00  0.00     0.167 HD
BRANCH  16  18
HETATM   18  C6  UNL     1       9.134  -4.936  31.720  1.00  0.00     0.072 A 
HETATM   19  C7  UNL     1       9.032  -5.286  33.081  1.00  0.00     0.034 A 
HETATM   20  C8  UNL     1       9.900  -4.650  33.975  1.00  0.00     0.021 A 
HETATM   21  C9  UNL     1      10.825  -3.725  33.600  1.00  0.00     0.014 A 
HETATM   22 BR1  UNL     1      11.968  -2.903  34.876  1.00  0.00    -0.051 Br
HETATM   23  C10 UNL     1      10.907  -3.400  32.266  1.00  0.00     0.063 A 
HETATM   24  C11 UNL     1      10.087  -3.981  31.327  1.00  0.00     0.144 A 
HETATM   25  F1  UNL     1      10.176  -3.649  29.997  1.00  0.00    -0.204 F 
ENDBRANCH  16  18
ENDBRANCH   4  16
BRANCH   1  26
HETATM   26  O1  UNL     1       6.386  -9.247  27.977  1.00  0.00    -0.363 OA
HETATM   27  C1  UNL     1       7.638  -9.787  28.275  1.00  0.00     0.204 C 
ENDBRANCH   1  26
BRANCH  13  28
HETATM   28  C16 UNL     1       2.430  -7.998  27.137  1.00  0.00     0.002 C 
BRANCH  28  29
HETATM   29  C17 UNL     1       1.818  -9.046  26.205  1.00  0.00     0.019 C 
BRANCH  29  30
HETATM   30  C18 UNL     1       1.899  -8.513  24.815  1.00  0.00     0.117 C 
BRANCH  30  31
HETATM   31  N4  UNL     1       1.078  -9.224  23.870  1.00  0.00    -0.409 N 
HETATM   32  C19 UNL     1       0.017  -8.462  23.343  1.00  0.00     0.136 C 
HETATM   33  C20 UNL     1      -0.414  -8.886  21.980  1.00  0.00     0.135 C 
HETATM   34  N5  UNL     1       0.715  -8.877  21.114  1.00  0.00    -0.414 N 
HETATM   35  C21 UNL     1       1.003  -7.637  20.475  1.00  0.00     0.143 C 
HETATM   36  C22 UNL     1       1.825  -9.645  21.553  1.00  0.00     0.135 C 
HETATM   37  C23 UNL     1       1.787 -10.073  22.980  1.00  0.00     0.136 C 
ENDBRANCH  30  31
ENDBRANCH  29  30
ENDBRANCH  28  29
ENDBRANCH  13  28
TORSDOF 7
ENDMDL
MODEL 3
REMARK minimizedAffinity -8.44109344
REMARK CNNscore 0.510999739
REMARK CNNaffinity 7.27717257
REMARK  7 active torsions:
REMARK  status: ('A' for Active; 'I' for Inactive)
REMARK    1  A    between atoms: O1_2  and  C2_3 
REMARK    2  A    between atoms: C5_6  and  N1_7 
REMARK    3  A    between atoms: N1_7  and  C6_8 
REMARK    4  A    between atoms: O2_24  and  C16_25 
REMARK    5  A    between atoms: C16_25  and  C17_26 
REMARK    6  A    between atoms: C17_26  and  C18_27 
REMARK    7  A    between atoms: C18_27  and  N4_28 
ROOT
HETATM    1  C2  UNL     1       5.793  -7.836  28.525  1.00  0.00     0.168 A 
HETATM    2  C3  UNL     1       6.602  -7.021  29.292  1.00  0.00     0.049 A 
HETATM    3  C4  UNL     1       6.152  -5.816  29.764  1.00  0.00     0.035 A 
HETATM    4  C5  UNL     1       6.958  -4.974  30.533  1.00  0.00     0.119 A 
HETATM    5  N2  UNL     1       6.478  -3.796  30.970  1.00  0.00    -0.338 N 
ATOM      6  H2  UNL     1       7.084  -3.197  31.530  1.00  0.00     0.168 HD
HETATM    7  C12 UNL     1       5.229  -3.377  30.697  1.00  0.00     0.182 A 
HETATM    8  N3  UNL     1       4.436  -4.188  29.948  1.00  0.00    -0.352 N 
ATOM      9  H3  UNL     1       3.485  -3.896  29.726  1.00  0.00     0.166 HD
HETATM   10  C13 UNL     1       4.880  -5.353  29.505  1.00  0.00     0.047 A 
HETATM   11  C14 UNL     1       4.063  -6.169  28.736  1.00  0.00     0.043 A 
HETATM   12  C15 UNL     1       4.514  -7.407  28.245  1.00  0.00     0.007 A 
HETATM   13  O2  UNL     1       3.604  -8.135  27.487  1.00  0.00     0.000 OA
HETATM   14 CL1  UNL     1       5.212  -7.420  27.754  1.00  0.00    -0.190 Cl
HETATM   15  H28 UNL     1       4.017  -8.037  27.473  1.00  0.00     0.131 HD
ENDROOT
BRANCH   4  16
HETATM   16  N1  UNL     1       8.250  -5.431  30.835  1.00  0.00    -0.339 N 
HETATM   17  H5  UNL     1       8.595  -6.269  30.277  1.00  0.00     0.167 HD
BRANCH  16  18
HETATM   18  C6  UNL     1       9.116  -4.886  31.809  1.00  0.00     0.072 A 
HETATM   19  C7  UNL     1       9.019  -5.250  33.167  1.00  0.00     0.034 A 
HETATM   20  C8  UNL     1       9.913  -4.647  34.059  1.00  0.00     0.021 A 
HETATM   21  C9  UNL     1      10.856  -3.742  33.685  1.00  0.00     0.014 A 
HETATM   22 BR1  UNL     1      12.034  -2.963  34.959  1.00  0.00    -0.051 Br
HETATM   23  C10 UNL     1      10.933  -3.402  32.355  1.00  0.00     0.063 A 
HETATM   24  C11 UNL     1      10.089  -3.951  31.418  1.00  0.00     0.144 A 
HETATM   25  F1  UNL     1      10.171  -3.605  30.090  1.00  0.00    -0.204 F 
ENDBRANCH  16  18
ENDBRANCH   4  16
BRANCH   1  26
HETATM   26  O1  UNL     1       6.214  -9.062  28.025  1.00  0.00    -0.363 OA
HETATM   27  C1  UNL     1       7.416  -9.682  28.372  1.00  0.00     0.204 C 
ENDBRANCH   1  26
BRANCH  13  28
HETATM   28  C16 UNL     1       2.303  -7.667  27.203  1.00  0.00     0.002 C 
BRANCH  28  29
HETATM   29  C17 UNL     1       1.323  -8.734  27.692  1.00  0.00     0.019 C 
BRANCH  29  30
HETATM   30  C18 UNL     1       0.534  -9.193  26.514  1.00  0.00     0.117 C 
BRANCH  30  31
HETATM   31  N4  UNL     1      -0.766  -9.714  26.849  1.00  0.00    -0.409 N 
HETATM   32  C19 UNL     1      -1.113  -9.561  28.206  1.00  0.00     0.136 C 
HETATM   33  C20 UNL     1      -2.583  -9.473  28.447  1.00  0.00     0.135 C 
HETATM   34  N5  UNL     1      -3.121  -8.427  27.649  1.00  0.00    -0.414 N 
HETATM   35  C21 UNL     1      -3.100  -7.125  28.227  1.00  0.00     0.143 C 
HETATM   36  C22 UNL     1      -2.843  -8.516  26.259  1.00  0.00     0.135 C 
HETATM   37  C23 UNL     1      -1.774  -9.481  25.878  1.00  0.00     0.136 C 
ENDBRANCH  30  31
ENDBRANCH  29  30
ENDBRANCH  28  29
ENDBRANCH  13  28
TORSDOF 7
ENDMDL
MODEL 4
REMARK minimizedAffinity -6.30997515
REMARK CNNscore 0.486771286
REMARK CNNaffinity 6.24643183
REMARK  7 active torsions:
REMARK  status: ('A' for Active; 'I' for Inactive)
REMARK    1  A    between atoms: O1_2  and  C2_3 
REMARK    2  A    between atoms: C5_6  and  N1_7 
REMARK    3  A    between atoms: N1_7  and  C6_8 
REMARK    4  A    between atoms: O2_24  and  C16_25 
REMARK    5  A    between atoms: C16_25  and  C17_26 
REMARK    6  A    between atoms: C17_26  and  C18_27 
REMARK    7  A    between atoms: C18_27  and  N4_28 
ROOT
HETATM    1  C2  UNL     1       4.287   6.548  41.279  1.00  0.00     0.168 A 
HETATM    2  C3  UNL     1       4.803   5.943  42.408  1.00  0.00     0.049 A 
HETATM    3  C4  UNL     1       5.865   6.488  43.082  1.00  0.00     0.035 A 
HETATM    4  C5  UNL     1       6.407   5.887  44.221  1.00  0.00     0.119 A 
HETATM    5  N2  UNL     1       7.453   6.454  44.847  1.00  0.00    -0.338 N 
ATOM      6  H2  UNL     1       7.834   5.997  45.676  1.00  0.00     0.168 HD
HETATM    7  C12 UNL     1       8.018   7.599  44.424  1.00  0.00     0.182 A 
HETATM    8  N3  UNL     1       7.499   8.193  43.316  1.00  0.00    -0.352 N 
ATOM      9  H3  UNL     1       7.908   9.061  42.973  1.00  0.00     0.166 HD
HETATM   10  C13 UNL     1       6.470   7.659  42.679  1.00  0.00     0.047 A 
HETATM   11  C14 UNL     1       5.953   8.271  41.546  1.00  0.00     0.043 A 
HETATM   12  C15 UNL     1       4.866   7.720  40.845  1.00  0.00     0.007 A 
HETATM   13  O2  UNL     1       4.437   8.424  39.726  1.00  0.00     0.000 OA
HETATM   14 CL1  UNL     1       4.936   6.925  40.544  1.00  0.00    -0.190 Cl
HETATM   15  H28 UNL     1       4.505   8.019  39.834  1.00  0.00     0.131 HD
ENDROOT
BRANCH   4  16
HETATM   16  N1  UNL     1       5.795   4.708  44.671  1.00  0.00    -0.339 N 
HETATM   17  H5  UNL     1       5.624   3.957  43.936  1.00  0.00     0.167 HD
BRANCH  16  18
HETATM   18  C6  UNL     1       5.384   4.440  45.995  1.00  0.00     0.072 A 
HETATM   19  C7  UNL     1       6.204   3.725  46.890  1.00  0.00     0.034 A 
HETATM   20  C8  UNL     1       5.706   3.498  48.178  1.00  0.00     0.021 A 
HETATM   21  C9  UNL     1       4.487   3.928  48.601  1.00  0.00     0.014 A 
HETATM   22 BR1  UNL     1       3.877   3.578  50.367  1.00  0.00    -0.051 Br
HETATM   23  C10 UNL     1       3.704   4.625  47.711  1.00  0.00     0.063 A 
HETATM   24  C11 UNL     1       4.124   4.886  46.427  1.00  0.00     0.144 A 
HETATM   25  F1  UNL     1       3.335   5.582  45.544  1.00  0.00    -0.204 F 
ENDBRANCH  16  18
ENDBRANCH   4  16
BRANCH   1  26
HETATM   26  O1  UNL     1       3.216   6.024  40.566  1.00  0.00    -0.363 OA
HETATM   27  C1  UNL     1       2.201   5.246  41.128  1.00  0.00     0.204 C 
ENDBRANCH   1  26
BRANCH  13  28
HETATM   28  C16 UNL     1       5.056   9.617  39.293  1.00  0.00     0.002 C 
BRANCH  28  29
HETATM   29  C17 UNL     1       5.182   9.533  37.771  1.00  0.00     0.019 C 
BRANCH  29  30
HETATM   30  C18 UNL     1       3.975   8.823  37.259  1.00  0.00     0.117 C 
BRANCH  30  31
HETATM   31  N4  UNL     1       3.589   9.213  35.928  1.00  0.00    -0.409 N 
HETATM   32  C19 UNL     1       3.549  10.607  35.727  1.00  0.00     0.136 C 
HETATM   33  C20 UNL     1       3.797  11.022  34.316  1.00  0.00     0.135 C 
HETATM   34  N5  UNL     1       5.032  10.467  33.880  1.00  0.00    -0.414 N 
HETATM   35  C21 UNL     1       6.196  11.242  34.155  1.00  0.00     0.143 C 
HETATM   36  C22 UNL     1       5.151   9.059  34.020  1.00  0.00     0.135 C 
HETATM   37  C23 UNL     1       4.128   8.411  34.888  1.00  0.00     0.136 C 
ENDBRANCH  30  31
ENDBRANCH  29  30
ENDBRANCH  28  29
ENDBRANCH  13  28
TORSDOF 7
ENDMDL
MODEL 5
REMARK minimizedAffinity -6.97058725
REMARK CNNscore 0.393675923
REMARK CNNaffinity 6.13934898
REMARK  7 active torsions:
REMARK  status: ('A' for Active; 'I' for Inactive)
REMARK    1  A    between atoms: O1_2  and  C2_3 
REMARK    2  A    between atoms: C5_6  and  N1_7 
REMARK    3  A    between atoms: N1_7  and  C6_8 
REMARK    4  A    between atoms: O2_24  and  C16_25 
REMARK    5  A    between atoms: C16_25  and  C17_26 
REMARK    6  A    between atoms: C17_26  and  C18_27 
REMARK    7  A    between atoms: C18_27  and  N4_28 
ROOT
HETATM    1  C2  UNL     1       5.619   7.425  40.498  1.00  0.00     0.168 A 
HETATM    2  C3  UNL     1       5.736   6.735  41.688  1.00  0.00     0.049 A 
HETATM    3  C4  UNL     1       6.572   7.172  42.683  1.00  0.00     0.035 A 
HETATM    4  C5  UNL     1       6.711   6.483  43.890  1.00  0.00     0.119 A 
HETATM    5  N2  UNL     1       7.548   6.945  44.836  1.00  0.00    -0.338 N 
ATOM      6  H2  UNL     1       7.635   6.425  45.709  1.00  0.00     0.168 HD
HETATM    7  C12 UNL     1       8.276   8.065  44.675  1.00  0.00     0.182 A 
HETATM    8  N3  UNL     1       8.148   8.744  43.504  1.00  0.00    -0.352 N 
ATOM      9  H3  UNL     1       8.688   9.596  43.355  1.00  0.00     0.166 HD
HETATM   10  C13 UNL     1       7.333   8.314  42.555  1.00  0.00     0.047 A 
HETATM   11  C14 UNL     1       7.216   9.012  41.361  1.00  0.00     0.043 A 
HETATM   12  C15 UNL     1       6.364   8.572  40.334  1.00  0.00     0.007 A 
HETATM   13  O2  UNL     1       6.332   9.355  39.185  1.00  0.00     0.000 OA
HETATM   14 CL1  UNL     1       6.479   7.788  40.016  1.00  0.00    -0.190 Cl
HETATM   15  H28 UNL     1       6.343   8.941  39.283  1.00  0.00     0.131 HD
ENDROOT
BRANCH   4  16
HETATM   16  N1  UNL     1       5.929   5.331  44.059  1.00  0.00    -0.339 N 
HETATM   17  H5  UNL     1       5.810   4.712  43.200  1.00  0.00     0.167 HD
BRANCH  16  18
HETATM   18  C6  UNL     1       5.287   4.932  45.252  1.00  0.00     0.072 A 
HETATM   19  C7  UNL     1       4.020   5.434  45.611  1.00  0.00     0.034 A 
HETATM   20  C8  UNL     1       3.471   4.989  46.818  1.00  0.00     0.021 A 
HETATM   21  C9  UNL     1       4.091   4.109  47.650  1.00  0.00     0.014 A 
HETATM   22 BR1  UNL     1       3.280   3.554  49.277  1.00  0.00    -0.051 Br
HETATM   23  C10 UNL     1       5.326   3.631  47.279  1.00  0.00     0.063 A 
HETATM   24  C11 UNL     1       5.932   4.022  46.107  1.00  0.00     0.144 A 
HETATM   25  F1  UNL     1       7.167   3.541  45.745  1.00  0.00    -0.204 F 
ENDBRANCH  16  18
ENDBRANCH   4  16
BRANCH   1  26
HETATM   26  O1  UNL     1       4.786   7.011  39.465  1.00  0.00    -0.363 OA
HETATM   27  C1  UNL     1       3.404   7.203  39.444  1.00  0.00     0.204 C 
ENDBRANCH   1  26
BRANCH  13  28
HETATM   28  C16 UNL     1       7.117  10.519  39.035  1.00  0.00     0.002 C 
BRANCH  28  29
HETATM   29  C17 UNL     1       7.118  10.873  37.548  1.00  0.00     0.019 C 
BRANCH  29  30
HETATM   30  C18 UNL     1       5.823  10.409  36.974  1.00  0.00     0.117 C 
BRANCH  30  31
HETATM   31  N4  UNL     1       5.882  10.106  35.568  1.00  0.00    -0.409 N 
HETATM   32  C19 UNL     1       4.667   9.639  35.029  1.00  0.00     0.136 C 
HETATM   33  C20 UNL     1       4.497   9.931  33.576  1.00  0.00     0.135 C 
HETATM   34  N5  UNL     1       4.660  11.327  33.362  1.00  0.00    -0.414 N 
HETATM   35  C21 UNL     1       3.487  12.123  33.506  1.00  0.00     0.143 C 
HETATM   36  C22 UNL     1       5.874  11.880  33.849  1.00  0.00     0.135 C 
HETATM   37  C23 UNL     1       6.643  11.017  34.790  1.00  0.00     0.136 C 
ENDBRANCH  30  31
ENDBRANCH  29  30
ENDBRANCH  28  29
ENDBRANCH  13  28
TORSDOF 7
ENDMDL
MODEL 6
REMARK minimizedAffinity -6.52236462
REMARK CNNscore 0.350833207
REMARK CNNaffinity 5.82970572
REMARK  7 active torsions:
REMARK  status: ('A' for Active; 'I' for Inactive)
REMARK    1  A    between atoms: O1_2  and  C2_3 
REMARK    2  A    between atoms: C5_6  and  N1_7 
REMARK    3  A    between atoms: N1_7  and  C6_8 
REMARK    4  A    between atoms: O2_24  and  C16_25 
REMARK    5  A    between atoms: C16_25  and  C17_26 
REMARK    6  A    between atoms: C17_26  and  C18_27 
REMARK    7  A    between atoms: C18_27  and  N4_28 
ROOT
HETATM    1  C2  UNL     1       7.981   9.141  43.495  1.00  0.00     0.168 A 
HETATM    2  C3  UNL     1       6.991   8.183  43.388  1.00  0.00     0.049 A 
HETATM    3  C4  UNL     1       7.003   7.060  44.173  1.00  0.00     0.035 A 
HETATM    4  C5  UNL     1       6.017   6.076  44.073  1.00  0.00     0.119 A 
HETATM    5  N2  UNL     1       6.072   4.986  44.859  1.00  0.00    -0.338 N 
ATOM      6  H2  UNL     1       5.342   4.280  44.768  1.00  0.00     0.168 HD
HETATM    7  C12 UNL     1       7.052   4.790  45.759  1.00  0.00     0.182 A 
HETATM    8  N3  UNL     1       8.018   5.742  45.864  1.00  0.00    -0.352 N 
ATOM      9  H3  UNL     1       8.774   5.619  46.538  1.00  0.00     0.166 HD
HETATM   10  C13 UNL     1       7.991   6.824  45.105  1.00  0.00     0.047 A 
HETATM   11  C14 UNL     1       8.986   7.785  45.217  1.00  0.00     0.043 A 
HETATM   12  C15 UNL     1       8.985   8.940  44.416  1.00  0.00     0.007 A 
HETATM   13  O2  UNL     1      10.034   9.830  44.620  1.00  0.00     0.000 OA
HETATM   14 CL1  UNL     1       8.987   8.847  43.568  1.00  0.00    -0.190 Cl
HETATM   15  H28 UNL     1       9.823   9.664  44.291  1.00  0.00     0.131 HD
ENDROOT
BRANCH   4  16
HETATM   16  N1  UNL     1       4.984   6.301  43.150  1.00  0.00    -0.339 N 
HETATM   17  H5  UNL     1       5.262   6.780  42.241  1.00  0.00     0.167 HD
BRANCH  16  18
HETATM   18  C6  UNL     1       3.626   5.959  43.327  1.00  0.00     0.072 A 
HETATM   19  C7  UNL     1       3.006   6.030  44.590  1.00  0.00     0.034 A 
HETATM   20  C8  UNL     1       1.659   5.659  44.668  1.00  0.00     0.021 A 
HETATM   21  C9  UNL     1       0.930   5.239  43.599  1.00  0.00     0.014 A 
HETATM   22 BR1  UNL     1      -0.897   4.747  43.785  1.00  0.00    -0.051 Br
HETATM   23  C10 UNL     1       1.555   5.178  42.375  1.00  0.00     0.063 A 
HETATM   24  C11 UNL     1       2.877   5.526  42.220  1.00  0.00     0.144 A 
HETATM   25  F1  UNL     1       3.494   5.461  40.994  1.00  0.00    -0.204 F 
ENDBRANCH  16  18
ENDBRANCH   4  16
BRANCH   1  26
HETATM   26  O1  UNL     1       8.006  10.290  42.714  1.00  0.00    -0.363 OA
HETATM   27  C1  UNL     1       7.120  11.359  42.859  1.00  0.00     0.204 C 
ENDBRANCH   1  26
BRANCH  13  28
HETATM   28  C16 UNL     1      11.059   9.594  45.562  1.00  0.00     0.002 C 
BRANCH  28  29
HETATM   29  C17 UNL     1      12.378   9.548  44.789  1.00  0.00     0.019 C 
BRANCH  29  30
HETATM   30  C18 UNL     1      13.426  10.163  45.653  1.00  0.00     0.117 C 
BRANCH  30  31
HETATM   31  N4  UNL     1      14.708  10.296  45.010  1.00  0.00    -0.409 N 
HETATM   32  C19 UNL     1      15.805  10.067  45.864  1.00  0.00     0.136 C 
HETATM   33  C20 UNL     1      17.023   9.568  45.162  1.00  0.00     0.135 C 
HETATM   34  N5  UNL     1      16.685   8.402  44.421  1.00  0.00    -0.414 N 
HETATM   35  C21 UNL     1      16.767   7.167  45.127  1.00  0.00     0.143 C 
HETATM   36  C22 UNL     1      15.604   8.549  43.512  1.00  0.00     0.135 C 
HETATM   37  C23 UNL     1      14.775   9.775  43.692  1.00  0.00     0.136 C 
ENDBRANCH  30  31
ENDBRANCH  29  30
ENDBRANCH  28  29
ENDBRANCH  13  28
TORSDOF 7
ENDMDL
MODEL 7
REMARK minimizedAffinity -7.6864748
REMARK CNNscore 0.276101649
REMARK CNNaffinity 6.81907892
REMARK  7 active torsions:
REMARK  status: ('A' for Active; 'I' for Inactive)
REMARK    1  A    between atoms: O1_2  and  C2_3 
REMARK    2  A    between atoms: C5_6  and  N1_7 
REMARK    3  A    between atoms: N1_7  and  C6_8 
REMARK    4  A    between atoms: O2_24  and  C16_25 
REMARK    5  A    between atoms: C16_25  and  C17_26 
REMARK    6  A    between atoms: C17_26  and  C18_27 
REMARK    7  A    between atoms: C18_27  and  N4_28 
ROOT
HETATM    1  C2  UNL     1      10.196  -4.975  28.341  1.00  0.00     0.168 A 
HETATM    2  C3  UNL     1       9.325  -4.539  29.320  1.00  0.00     0.049 A 
HETATM    3  C4  UNL     1       8.191  -5.245  29.627  1.00  0.00     0.035 A 
HETATM    4  C5  UNL     1       7.293  -4.815  30.607  1.00  0.00     0.119 A 
HETATM    5  N2  UNL     1       6.189  -5.536  30.872  1.00  0.00    -0.338 N 
ATOM      6  H2  UNL     1       5.547  -5.204  31.591  1.00  0.00     0.168 HD
HETATM    7  C12 UNL     1       5.899  -6.680  30.225  1.00  0.00     0.182 A 
HETATM    8  N3  UNL     1       6.766  -7.108  29.269  1.00  0.00    -0.352 N 
ATOM      9  H3  UNL     1       6.570  -7.971  28.762  1.00  0.00     0.166 HD
HETATM   10  C13 UNL     1       7.860  -6.419  28.987  1.00  0.00     0.047 A 
HETATM   11  C14 UNL     1       8.733  -6.863  28.004  1.00  0.00     0.043 A 
HETATM   12  C15 UNL     1       9.898  -6.145  27.679  1.00  0.00     0.007 A 
HETATM   13  O2  UNL     1      10.694  -6.690  26.678  1.00  0.00     0.000 OA
HETATM   14 CL1  UNL     1       9.819  -5.334  27.428  1.00  0.00    -0.190 Cl
HETATM   15  H28 UNL     1      10.552  -6.306  26.791  1.00  0.00     0.131 HD
ENDROOT
BRANCH   4  16
HETATM   16  N1  UNL     1       7.618  -3.636  31.295  1.00  0.00    -0.339 N 
HETATM   17  H5  UNL     1       6.982  -2.800  31.120  1.00  0.00     0.167 HD
BRANCH  16  18
HETATM   18  C6  UNL     1       8.705  -3.465  32.180  1.00  0.00     0.072 A 
HETATM   19  C7  UNL     1       9.586  -2.372  32.061  1.00  0.00     0.034 A 
HETATM   20  C8  UNL     1      10.641  -2.294  32.977  1.00  0.00     0.021 A 
HETATM   21  C9  UNL     1      10.853  -3.209  33.962  1.00  0.00     0.014 A 
HETATM   22 BR1  UNL     1      12.313  -3.036  35.167  1.00  0.00    -0.051 Br
HETATM   23  C10 UNL     1       9.980  -4.267  34.059  1.00  0.00     0.063 A 
HETATM   24  C11 UNL     1       8.920  -4.412  33.195  1.00  0.00     0.144 A 
HETATM   25  F1  UNL     1       8.053  -5.473  33.299  1.00  0.00    -0.204 F 
ENDBRANCH  16  18
ENDBRANCH   4  16
BRANCH   1  26
HETATM   26  O1  UNL     1      11.352  -4.285  27.998  1.00  0.00    -0.363 OA
HETATM   27  C1  UNL     1      11.397  -3.234  27.080  1.00  0.00     0.204 C 
ENDBRANCH   1  26
BRANCH  13  28
HETATM   28  C16 UNL     1      10.360  -7.884  26.004  1.00  0.00     0.002 C 
BRANCH  28  29
HETATM   29  C17 UNL     1      11.300  -8.003  24.804  1.00  0.00     0.019 C 
BRANCH  29  30
HETATM   30  C18 UNL     1      10.459  -8.007  23.573  1.00  0.00     0.117 C 
BRANCH  30  31
HETATM   31  N4  UNL     1      10.404  -9.283  22.907  1.00  0.00    -0.409 N 
HETATM   32  C19 UNL     1      10.236  -9.195  21.511  1.00  0.00     0.136 C 
HETATM   33  C20 UNL     1      10.803 -10.353  20.761  1.00  0.00     0.135 C 
HETATM   34  N5  UNL     1      12.173 -10.507  21.113  1.00  0.00    -0.414 N 
HETATM   35  C21 UNL     1      13.104  -9.747  20.349  1.00  0.00     0.143 C 
HETATM   36  C22 UNL     1      12.433 -10.632  22.503  1.00  0.00     0.135 C 
HETATM   37  C23 UNL     1      11.307 -10.258  23.405  1.00  0.00     0.136 C 
ENDBRANCH  30  31
ENDBRANCH  29  30
ENDBRANCH  28  29
ENDBRANCH  13  28
TORSDOF 7
ENDMDL
MODEL 8
REMARK minimizedAffinity -7.18905544
REMARK CNNscore 0.275165111
REMARK CNNaffinity 6.80248213
REMARK  7 active torsions:
REMARK  status: ('A' for Active; 'I' for Inactive)
REMARK    1  A    between atoms: O1_2  and  C2_3 
REMARK    2  A    between atoms: C5_6  and  N1_7 
REMARK    3  A    between atoms: N1_7  and  C6_8 
REMARK    4  A    between atoms: O2_24  and  C16_25 
REMARK    5  A    between atoms: C16_25  and  C17_26 
REMARK    6  A    between atoms: C17_26  and  C18_27 
REMARK    7  A    between atoms: C18_27  and  N4_28 
ROOT
HETATM    1  C2  UNL     1      10.447  -6.099  29.980  1.00  0.00     0.168 A 
HETATM    2  C3  UNL     1       9.486  -5.230  30.459  1.00  0.00     0.049 A 
HETATM    3  C4  UNL     1       8.151  -5.515  30.345  1.00  0.00     0.035 A 
HETATM    4  C5  UNL     1       7.165  -4.645  30.815  1.00  0.00     0.119 A 
HETATM    5  N2  UNL     1       5.865  -4.962  30.676  1.00  0.00    -0.338 N 
ATOM      6  H2  UNL     1       5.162  -4.312  31.026  1.00  0.00     0.168 HD
HETATM    7  C12 UNL     1       5.456  -6.104  30.094  1.00  0.00     0.182 A 
HETATM    8  N3  UNL     1       6.408  -6.959  29.633  1.00  0.00    -0.352 N 
ATOM      9  H3  UNL     1       6.126  -7.832  29.187  1.00  0.00     0.166 HD
HETATM   10  C13 UNL     1       7.694  -6.674  29.755  1.00  0.00     0.047 A 
HETATM   11  C14 UNL     1       8.655  -7.551  29.274  1.00  0.00     0.043 A 
HETATM   12  C15 UNL     1      10.028  -7.268  29.384  1.00  0.00     0.007 A 
HETATM   13  O2  UNL     1      10.895  -8.223  28.865  1.00  0.00     0.000 OA
HETATM   14 CL1  UNL     1      10.324  -6.547  29.037  1.00  0.00    -0.190 Cl
HETATM   15  H28 UNL     1      10.860  -7.800  28.868  1.00  0.00     0.131 HD
ENDROOT
BRANCH   4  16
HETATM   16  N1  UNL     1       7.600  -3.469  31.444  1.00  0.00    -0.339 N 
HETATM   17  H5  UNL     1       7.049  -2.585  31.224  1.00  0.00     0.167 HD
BRANCH  16  18
HETATM   18  C6  UNL     1       8.698  -3.358  32.325  1.00  0.00     0.072 A 
HETATM   19  C7  UNL     1       9.689  -2.372  32.148  1.00  0.00     0.034 A 
HETATM   20  C8  UNL     1      10.745  -2.349  33.066  1.00  0.00     0.021 A 
HETATM   21  C9  UNL     1      10.859  -3.219  34.105  1.00  0.00     0.014 A 
HETATM   22 BR1  UNL     1      12.327  -3.126  35.310  1.00  0.00    -0.051 Br
HETATM   23  C10 UNL     1       9.880  -4.172  34.260  1.00  0.00     0.063 A 
HETATM   24  C11 UNL     1       8.812  -4.259  33.398  1.00  0.00     0.144 A 
HETATM   25  F1  UNL     1       7.838  -5.215  33.558  1.00  0.00    -0.204 F 
ENDBRANCH  16  18
ENDBRANCH   4  16
BRANCH   1  26
HETATM   26  O1  UNL     1      11.809  -5.843  30.072  1.00  0.00    -0.363 OA
HETATM   27  C1  UNL     1      12.424  -5.240  31.171  1.00  0.00     0.204 C 
ENDBRANCH   1  26
BRANCH  13  28
HETATM   28  C16 UNL     1      10.440  -9.408  28.246  1.00  0.00     0.002 C 
BRANCH  28  29
HETATM   29  C17 UNL     1      11.654 -10.323  28.078  1.00  0.00     0.019 C 
BRANCH  29  30
HETATM   30  C18 UNL     1      11.176 -11.730  28.192  1.00  0.00     0.117 C 
BRANCH  30  31
HETATM   31  N4  UNL     1      10.949 -12.374  26.925  1.00  0.00    -0.409 N 
HETATM   32  C19 UNL     1       9.605 -12.722  26.690  1.00  0.00     0.136 C 
HETATM   33  C20 UNL     1       9.236 -12.769  25.245  1.00  0.00     0.135 C 
HETATM   34  N5  UNL     1       9.567 -11.525  24.642  1.00  0.00    -0.414 N 
HETATM   35  C21 UNL     1       8.568 -10.512  24.710  1.00  0.00     0.143 C 
HETATM   36  C22 UNL     1      10.915 -11.108  24.805  1.00  0.00     0.135 C 
HETATM   37  C23 UNL     1      11.694 -11.843  25.840  1.00  0.00     0.136 C 
ENDBRANCH  30  31
ENDBRANCH  29  30
ENDBRANCH  28  29
ENDBRANCH  13  28
TORSDOF 7
ENDMDL
MODEL 9
REMARK minimizedAffinity -6.55587244
REMARK CNNscore 0.272472382
REMARK CNNaffinity 5.83783197
REMARK  7 active torsions:
REMARK  status: ('A' for Active; 'I' for Inactive)
REMARK    1  A    between atoms: O1_2  and  C2_3 
REMARK    2  A    between atoms: C5_6  and  N1_7 
REMARK    3  A    between atoms: N1_7  and  C6_8 
REMARK    4  A    between atoms: O2_24  and  C16_25 
REMARK    5  A    between atoms: C16_25  and  C17_26 
REMARK    6  A    between atoms: C17_26  and  C18_27 
REMARK    7  A    between atoms: C18_27  and  N4_28 
ROOT
HETATM    1  C2  UNL     1       5.858   8.467  39.437  1.00  0.00     0.168 A 
HETATM    2  C3  UNL     1       5.943   7.556  40.473  1.00  0.00     0.049 A 
HETATM    3  C4  UNL     1       4.872   6.775  40.819  1.00  0.00     0.035 A 
HETATM    4  C5  UNL     1       4.935   5.855  41.869  1.00  0.00     0.119 A 
HETATM    5  N2  UNL     1       3.857   5.113  42.180  1.00  0.00    -0.338 N 
ATOM      6  H2  UNL     1       3.925   4.449  42.950  1.00  0.00     0.168 HD
HETATM    7  C12 UNL     1       2.692   5.213  41.513  1.00  0.00     0.182 A 
HETATM    8  N3  UNL     1       2.620   6.105  40.490  1.00  0.00    -0.352 N 
ATOM      9  H3  UNL     1       1.749   6.202  39.968  1.00  0.00     0.166 HD
HETATM   10  C13 UNL     1       3.663   6.849  40.161  1.00  0.00     0.047 A 
HETATM   11  C14 UNL     1       3.575   7.761  39.119  1.00  0.00     0.043 A 
HETATM   12  C15 UNL     1       4.666   8.569  38.756  1.00  0.00     0.007 A 
HETATM   13  O2  UNL     1       4.456   9.444  37.695  1.00  0.00     0.000 OA
HETATM   14 CL1  UNL     1       5.009   9.079  39.347  1.00  0.00    -0.190 Cl
HETATM   15  H28 UNL     1       4.643   9.452  38.077  1.00  0.00     0.131 HD
ENDROOT
BRANCH   4  16
HETATM   16  N1  UNL     1       6.161   5.739  42.541  1.00  0.00    -0.339 N 
HETATM   17  H5  UNL     1       6.906   5.149  42.061  1.00  0.00     0.167 HD
BRANCH  16  18
HETATM   18  C6  UNL     1       6.484   6.323  43.785  1.00  0.00     0.072 A 
HETATM   19  C7  UNL     1       7.212   7.527  43.868  1.00  0.00     0.034 A 
HETATM   20  C8  UNL     1       7.494   8.022  45.145  1.00  0.00     0.021 A 
HETATM   21  C9  UNL     1       7.105   7.407  46.295  1.00  0.00     0.014 A 
HETATM   22 BR1  UNL     1       7.529   8.140  47.996  1.00  0.00    -0.051 Br
HETATM   23  C10 UNL     1       6.394   6.234  46.191  1.00  0.00     0.063 A 
HETATM   24  C11 UNL     1       6.080   5.684  44.969  1.00  0.00     0.144 A 
HETATM   25  F1  UNL     1       5.370   4.511  44.874  1.00  0.00    -0.204 F 
ENDBRANCH  16  18
ENDBRANCH   4  16
BRANCH   1  26
HETATM   26  O1  UNL     1       6.920   9.280  39.059  1.00  0.00    -0.363 OA
HETATM   27  C1  UNL     1       7.817   9.869  39.952  1.00  0.00     0.204 C 
ENDBRANCH   1  26
BRANCH  13  28
HETATM   28  C16 UNL     1       3.219   9.540  37.022  1.00  0.00     0.002 C 
BRANCH  28  29
HETATM   29  C17 UNL     1       3.355   8.755  35.716  1.00  0.00     0.019 C 
BRANCH  29  30
HETATM   30  C18 UNL     1       2.707   9.558  34.640  1.00  0.00     0.117 C 
BRANCH  30  31
HETATM   31  N4  UNL     1       3.636  10.166  33.724  1.00  0.00    -0.409 N 
HETATM   32  C19 UNL     1       3.957  11.502  34.034  1.00  0.00     0.136 C 
HETATM   33  C20 UNL     1       5.307  11.925  33.562  1.00  0.00     0.135 C 
HETATM   34  N5  UNL     1       6.280  11.023  34.074  1.00  0.00    -0.414 N 
HETATM   35  C21 UNL     1       6.799  11.330  35.364  1.00  0.00     0.143 C 
HETATM   36  C22 UNL     1       6.051   9.652  33.784  1.00  0.00     0.135 C 
HETATM   37  C23 UNL     1       4.687   9.319  33.286  1.00  0.00     0.136 C 
ENDBRANCH  30  31
ENDBRANCH  29  30
ENDBRANCH  28  29
ENDBRANCH  13  28
TORSDOF 7
ENDMDL
