MODEL 1
REMARK minimizedAffinity -7.98886633
REMARK  3 active torsions:
REMARK  status: ('A' for Active; 'I' for Inactive)
REMARK    1  A    between atoms: C4_5  and  C5_6 
REMARK    2  A    between atoms: N2_9  and  C6_10 
REMARK    3  A    between atoms: C12_16  and  C13_17 
ROOT
HETATM    1  C5  UNL     1      13.856  58.920   3.265  1.00  0.00     0.038 C 
HETATM    2  N1  UNL     1      13.262  58.313   2.285  1.00  0.00    -0.301 N 
ATOM      3  H1  UNL     1      12.365  58.567   1.871  1.00  0.00     0.187 HD
HETATM    4  N2  UNL     1      14.061  57.272   1.909  1.00  0.00    -0.283 N 
HETATM    5  C12 UNL     1      15.244  57.112   2.763  1.00  0.00     0.148 C 
HETATM    6  C23 UNL     1      15.207  58.373   3.631  1.00  0.00     0.091 C 
ENDROOT
BRANCH   5   7
HETATM    7  C13 UNL     1      15.226  55.859   3.638  1.00  0.00    -0.022 A 
HETATM    8  C14 UNL     1      14.005  55.390   4.164  1.00  0.00     0.010 A 
HETATM    9  C15 UNL     1      13.955  54.262   4.975  1.00  0.00     0.002 A 
HETATM   10  C16 UNL     1      15.127  53.584   5.288  1.00  0.00     0.012 A 
HETATM   11  C17 UNL     1      16.365  54.025   4.802  1.00  0.00    -0.025 A 
HETATM   12  C18 UNL     1      17.533  53.324   5.147  1.00  0.00     0.012 A 
HETATM   13  C22 UNL     1      16.437  55.175   3.972  1.00  0.00    -0.018 A 
HETATM   14  C19 UNL     1      18.781  53.740   4.691  1.00  0.00     0.001 A 
HETATM   15  C20 UNL     1      18.878  54.863   3.884  1.00  0.00     0.001 A 
HETATM   16  C21 UNL     1      17.725  55.570   3.531  1.00  0.00     0.013 A 
ENDBRANCH   5   7
BRANCH   4  17
HETATM   17  C6  UNL     1      13.842  56.602   0.703  1.00  0.00     0.051 A 
HETATM   18  C7  UNL     1      14.912  56.024  -0.003  1.00  0.00     0.031 A 
HETATM   19  C8  UNL     1      14.721  55.352  -1.215  1.00  0.00     0.002 A 
HETATM   20  C9  UNL     1      13.446  55.243  -1.757  1.00  0.00     0.000 A 
HETATM   21  C10 UNL     1      12.367  55.810  -1.086  1.00  0.00     0.002 A 
HETATM   22  C11 UNL     1      12.567  56.482   0.128  1.00  0.00     0.031 A 
ENDBRANCH   4  17
BRANCH   1  23
HETATM   23  C4  UNL     1      13.269  60.091   3.958  1.00  0.00    -0.010 A 
HETATM   24  C3  UNL     1      13.416  61.360   3.384  1.00  0.00     0.015 A 
HETATM   25  C2  UNL     1      12.876  62.486   4.012  1.00  0.00     0.026 A 
HETATM   26  C1  UNL     1      12.187  62.352   5.219  1.00  0.00     0.055 A 
HETATM   27 CL1  UNL     1      11.545  63.783   5.943  1.00  0.00    -0.083 Cl
HETATM   28  C25 UNL     1      12.040  61.086   5.797  1.00  0.00     0.056 A 
HETATM   29  C24 UNL     1      12.581  59.957   5.168  1.00  0.00     0.039 A 
HETATM   30 CL2  UNL     1      11.204  60.843   7.291  1.00  0.00    -0.083 Cl
ENDBRANCH   1  23
TORSDOF 3
ENDMDL
MODEL 2
REMARK minimizedAffinity -7.81400824
REMARK  3 active torsions:
REMARK  status: ('A' for Active; 'I' for Inactive)
REMARK    1  A    between atoms: C4_5  and  C5_6 
REMARK    2  A    between atoms: N2_9  and  C6_10 
REMARK    3  A    between atoms: C12_16  and  C13_17 
ROOT
HETATM    1  C5  UNL     1      13.662  58.740   5.580  1.00  0.00     0.038 C 
HETATM    2  N1  UNL     1      13.030  58.498   4.474  1.00  0.00    -0.301 N 
ATOM      3  H1  UNL     1      12.073  58.772   4.251  1.00  0.00     0.187 HD
HETATM    4  N2  UNL     1      13.885  57.809   3.661  1.00  0.00    -0.283 N 
HETATM    5  C12 UNL     1      15.163  57.485   4.307  1.00  0.00     0.148 C 
HETATM    6  C23 UNL     1      15.092  58.280   5.614  1.00  0.00     0.091 C 
ENDROOT
BRANCH   5   7
HETATM    7  C13 UNL     1      15.364  55.997   4.596  1.00  0.00    -0.022 A 
HETATM    8  C14 UNL     1      14.268  55.210   5.007  1.00  0.00     0.010 A 
HETATM    9  C15 UNL     1      14.420  53.858   5.292  1.00  0.00     0.002 A 
HETATM   10  C16 UNL     1      15.671  53.264   5.183  1.00  0.00     0.012 A 
HETATM   11  C17 UNL     1      16.791  54.012   4.796  1.00  0.00    -0.025 A 
HETATM   12  C18 UNL     1      18.045  53.386   4.707  1.00  0.00     0.012 A 
HETATM   13  C22 UNL     1      16.657  55.396   4.500  1.00  0.00    -0.018 A 
HETATM   14  C19 UNL     1      19.181  54.101   4.335  1.00  0.00     0.001 A 
HETATM   15  C20 UNL     1      19.077  55.454   4.048  1.00  0.00     0.001 A 
HETATM   16  C21 UNL     1      17.835  56.091   4.130  1.00  0.00     0.013 A 
ENDBRANCH   5   7
BRANCH   4  17
HETATM   17  C6  UNL     1      13.607  57.651   2.302  1.00  0.00     0.051 A 
HETATM   18  C7  UNL     1      13.673  56.383   1.698  1.00  0.00     0.031 A 
HETATM   19  C8  UNL     1      13.403  56.196   0.338  1.00  0.00     0.002 A 
HETATM   20  C9  UNL     1      13.062  57.283  -0.459  1.00  0.00     0.000 A 
HETATM   21  C10 UNL     1      12.995  58.552   0.107  1.00  0.00     0.002 A 
HETATM   22  C11 UNL     1      13.265  58.729   1.471  1.00  0.00     0.031 A 
ENDBRANCH   4  17
BRANCH   1  23
HETATM   23  C4  UNL     1      13.038  59.449   6.723  1.00  0.00    -0.010 A 
HETATM   24  C3  UNL     1      11.874  60.196   6.501  1.00  0.00     0.015 A 
HETATM   25  C2  UNL     1      11.261  60.878   7.556  1.00  0.00     0.026 A 
HETATM   26  C1  UNL     1      11.807  60.819   8.839  1.00  0.00     0.055 A 
HETATM   27 CL1  UNL     1      11.001  61.684  10.098  1.00  0.00    -0.083 Cl
HETATM   28  C25 UNL     1      12.971  60.076   9.065  1.00  0.00     0.056 A 
HETATM   29  C24 UNL     1      13.587  59.392   8.008  1.00  0.00     0.039 A 
HETATM   30 CL2  UNL     1      13.707  59.960  10.625  1.00  0.00    -0.083 Cl
ENDBRANCH   1  23
TORSDOF 3
ENDMDL
MODEL 3
REMARK minimizedAffinity -7.8038702
REMARK  3 active torsions:
REMARK  status: ('A' for Active; 'I' for Inactive)
REMARK    1  A    between atoms: C4_5  and  C5_6 
REMARK    2  A    between atoms: N2_9  and  C6_10 
REMARK    3  A    between atoms: C12_16  and  C13_17 
ROOT
HETATM    1  C5  UNL     1      14.913  57.320   4.607  1.00  0.00     0.038 C 
HETATM    2  N1  UNL     1      13.882  57.780   5.246  1.00  0.00    -0.301 N 
ATOM      3  H1  UNL     1      13.312  57.271   5.922  1.00  0.00     0.187 HD
HETATM    4  N2  UNL     1      13.700  59.072   4.845  1.00  0.00    -0.283 N 
HETATM    5  C12 UNL     1      14.629  59.486   3.786  1.00  0.00     0.148 C 
HETATM    6  C23 UNL     1      15.609  58.311   3.717  1.00  0.00     0.091 C 
ENDROOT
BRANCH   5   7
HETATM    7  C13 UNL     1      13.973  59.716   2.425  1.00  0.00    -0.022 A 
HETATM    8  C14 UNL     1      13.664  61.028   2.009  1.00  0.00     0.010 A 
HETATM    9  C15 UNL     1      13.054  61.270   0.783  1.00  0.00     0.002 A 
HETATM   10  C16 UNL     1      12.729  60.206  -0.049  1.00  0.00     0.012 A 
HETATM   11  C17 UNL     1      13.000  58.886   0.331  1.00  0.00    -0.025 A 
HETATM   12  C18 UNL     1      12.647  57.831  -0.527  1.00  0.00     0.012 A 
HETATM   13  C22 UNL     1      13.624  58.617   1.580  1.00  0.00    -0.018 A 
HETATM   14  C19 UNL     1      12.894  56.506  -0.177  1.00  0.00     0.001 A 
HETATM   15  C20 UNL     1      13.495  56.218   1.039  1.00  0.00     0.001 A 
HETATM   16  C21 UNL     1      13.854  57.256   1.904  1.00  0.00     0.013 A 
ENDBRANCH   5   7
BRANCH   4  17
HETATM   17  C6  UNL     1      12.854  59.928   5.553  1.00  0.00     0.051 A 
HETATM   18  C7  UNL     1      12.402  59.589   6.841  1.00  0.00     0.031 A 
HETATM   19  C8  UNL     1      11.550  60.426   7.570  1.00  0.00     0.002 A 
HETATM   20  C9  UNL     1      11.124  61.630   7.024  1.00  0.00     0.000 A 
HETATM   21  C10 UNL     1      11.547  61.992   5.749  1.00  0.00     0.002 A 
HETATM   22  C11 UNL     1      12.401  61.148   5.025  1.00  0.00     0.031 A 
ENDBRANCH   4  17
BRANCH   1  23
HETATM   23  C4  UNL     1      15.399  55.929   4.762  1.00  0.00    -0.010 A 
HETATM   24  C3  UNL     1      14.472  54.915   5.034  1.00  0.00     0.015 A 
HETATM   25  C2  UNL     1      14.896  53.592   5.188  1.00  0.00     0.026 A 
HETATM   26  C1  UNL     1      16.250  53.273   5.071  1.00  0.00     0.055 A 
HETATM   27 CL1  UNL     1      16.708  51.620   5.272  1.00  0.00    -0.083 Cl
HETATM   28  C25 UNL     1      17.180  54.283   4.802  1.00  0.00     0.056 A 
HETATM   29  C24 UNL     1      16.756  55.609   4.648  1.00  0.00     0.039 A 
HETATM   30 CL2  UNL     1      18.873  53.965   4.647  1.00  0.00    -0.083 Cl
ENDBRANCH   1  23
TORSDOF 3
ENDMDL
MODEL 4
REMARK minimizedAffinity -7.71056843
REMARK  3 active torsions:
REMARK  status: ('A' for Active; 'I' for Inactive)
REMARK    1  A    between atoms: C4_5  and  C5_6 
REMARK    2  A    between atoms: N2_9  and  C6_10 
REMARK    3  A    between atoms: C12_16  and  C13_17 
ROOT
HETATM    1  C5  UNL     1      14.584  36.009  16.777  1.00  0.00     0.038 C 
HETATM    2  N1  UNL     1      14.647  37.145  16.155  1.00  0.00    -0.301 N 
ATOM      3  H1  UNL     1      13.936  37.877  16.158  1.00  0.00     0.187 HD
HETATM    4  N2  UNL     1      15.841  37.181  15.494  1.00  0.00    -0.283 N 
HETATM    5  C12 UNL     1      16.605  35.932  15.610  1.00  0.00     0.148 C 
HETATM    6  C23 UNL     1      15.808  35.145  16.654  1.00  0.00     0.091 C 
ENDROOT
BRANCH   5   7
HETATM    7  C13 UNL     1      16.714  35.137  14.309  1.00  0.00    -0.022 A 
HETATM    8  C14 UNL     1      15.570  34.945  13.508  1.00  0.00     0.010 A 
HETATM    9  C15 UNL     1      15.632  34.214  12.326  1.00  0.00     0.002 A 
HETATM   10  C16 UNL     1      16.837  33.651  11.925  1.00  0.00     0.012 A 
HETATM   11  C17 UNL     1      17.995  33.801  12.699  1.00  0.00    -0.025 A 
HETATM   12  C18 UNL     1      19.195  33.208  12.272  1.00  0.00     0.012 A 
HETATM   13  C22 UNL     1      17.952  34.544  13.909  1.00  0.00    -0.018 A 
HETATM   14  C19 UNL     1      20.362  33.329  13.021  1.00  0.00     0.001 A 
HETATM   15  C20 UNL     1      20.344  34.043  14.210  1.00  0.00     0.001 A 
HETATM   16  C21 UNL     1      19.159  34.641  14.647  1.00  0.00     0.013 A 
ENDBRANCH   5   7
BRANCH   4  17
HETATM   17  C6  UNL     1      16.331  38.378  14.967  1.00  0.00     0.051 A 
HETATM   18  C7  UNL     1      17.379  38.376  14.030  1.00  0.00     0.031 A 
HETATM   19  C8  UNL     1      17.892  39.560  13.489  1.00  0.00     0.002 A 
HETATM   20  C9  UNL     1      17.366  40.786  13.879  1.00  0.00     0.000 A 
HETATM   21  C10 UNL     1      16.333  40.823  14.810  1.00  0.00     0.002 A 
HETATM   22  C11 UNL     1      15.825  39.632  15.346  1.00  0.00     0.031 A 
ENDBRANCH   4  17
BRANCH   1  23
HETATM   23  C4  UNL     1      13.411  35.598  17.583  1.00  0.00    -0.010 A 
HETATM   24  C3  UNL     1      13.622  34.876  18.764  1.00  0.00     0.015 A 
HETATM   25  C2  UNL     1      12.537  34.471  19.548  1.00  0.00     0.026 A 
HETATM   26  C1  UNL     1      11.234  34.784  19.156  1.00  0.00     0.055 A 
HETATM   27 CL1  UNL     1       9.939  34.254  20.168  1.00  0.00    -0.083 Cl
HETATM   28  C25 UNL     1      11.019  35.504  17.974  1.00  0.00     0.056 A 
HETATM   29  C24 UNL     1      12.106  35.910  17.189  1.00  0.00     0.039 A 
HETATM   30 CL2  UNL     1       9.436  35.924  17.423  1.00  0.00    -0.083 Cl
ENDBRANCH   1  23
TORSDOF 3
ENDMDL
MODEL 5
REMARK minimizedAffinity -7.70951796
REMARK  3 active torsions:
REMARK  status: ('A' for Active; 'I' for Inactive)
REMARK    1  A    between atoms: C4_5  and  C5_6 
REMARK    2  A    between atoms: N2_9  and  C6_10 
REMARK    3  A    between atoms: C12_16  and  C13_17 
ROOT
HETATM    1  C5  UNL     1       3.661  66.011  -5.108  1.00  0.00     0.038 C 
HETATM    2  N1  UNL     1       3.609  66.863  -4.132  1.00  0.00    -0.301 N 
ATOM      3  H1  UNL     1       4.404  67.264  -3.635  1.00  0.00     0.187 HD
HETATM    4  N2  UNL     1       2.290  67.126  -3.893  1.00  0.00    -0.283 N 
HETATM    5  C12 UNL     1       1.381  66.318  -4.715  1.00  0.00     0.148 C 
HETATM    6  C23 UNL     1       2.332  65.639  -5.704  1.00  0.00     0.091 C 
ENDROOT
BRANCH   5   7
HETATM    7  C13 UNL     1       0.584  65.273  -3.934  1.00  0.00    -0.022 A 
HETATM    8  C14 UNL     1       1.208  64.073  -3.535  1.00  0.00     0.010 A 
HETATM    9  C15 UNL     1       0.509  63.095  -2.835  1.00  0.00     0.002 A 
HETATM   10  C16 UNL     1      -0.832  63.290  -2.530  1.00  0.00     0.012 A 
HETATM   11  C17 UNL     1      -1.497  64.459  -2.923  1.00  0.00    -0.025 A 
HETATM   12  C18 UNL     1      -2.857  64.621  -2.610  1.00  0.00     0.012 A 
HETATM   13  C22 UNL     1      -0.800  65.470  -3.638  1.00  0.00    -0.018 A 
HETATM   14  C19 UNL     1      -3.552  65.765  -2.993  1.00  0.00     0.001 A 
HETATM   15  C20 UNL     1      -2.895  66.763  -3.698  1.00  0.00     0.001 A 
HETATM   16  C21 UNL     1      -1.542  66.618  -4.015  1.00  0.00     0.013 A 
ENDBRANCH   5   7
BRANCH   4  17
HETATM   17  C6  UNL     1       1.910  68.211  -3.101  1.00  0.00     0.051 A 
HETATM   18  C7  UNL     1       1.295  68.010  -1.852  1.00  0.00     0.031 A 
HETATM   19  C8  UNL     1       0.900  69.078  -1.040  1.00  0.00     0.002 A 
HETATM   20  C9  UNL     1       1.109  70.386  -1.463  1.00  0.00     0.000 A 
HETATM   21  C10 UNL     1       1.708  70.619  -2.696  1.00  0.00     0.002 A 
HETATM   22  C11 UNL     1       2.101  69.543  -3.503  1.00  0.00     0.031 A 
ENDBRANCH   4  17
BRANCH   1  23
HETATM   23  C4  UNL     1       4.936  65.464  -5.629  1.00  0.00    -0.010 A 
HETATM   24  C3  UNL     1       5.653  64.554  -4.842  1.00  0.00     0.015 A 
HETATM   25  C2  UNL     1       6.859  64.020  -5.303  1.00  0.00     0.026 A 
HETATM   26  C1  UNL     1       7.358  64.390  -6.553  1.00  0.00     0.055 A 
HETATM   27 CL1  UNL     1       8.854  63.694  -7.063  1.00  0.00    -0.083 Cl
HETATM   28  C25 UNL     1       6.645  65.301  -7.342  1.00  0.00     0.056 A 
HETATM   29  C24 UNL     1       5.436  65.837  -6.881  1.00  0.00     0.039 A 
HETATM   30 CL2  UNL     1       7.201  65.809  -8.898  1.00  0.00    -0.083 Cl
ENDBRANCH   1  23
TORSDOF 3
ENDMDL
MODEL 6
REMARK minimizedAffinity -7.65622616
REMARK  3 active torsions:
REMARK  status: ('A' for Active; 'I' for Inactive)
REMARK    1  A    between atoms: C4_5  and  C5_6 
REMARK    2  A    between atoms: N2_9  and  C6_10 
REMARK    3  A    between atoms: C12_16  and  C13_17 
ROOT
HETATM    1  C5  UNL     1      13.853  60.700   3.852  1.00  0.00     0.038 C 
HETATM    2  N1  UNL     1      13.727  59.437   3.587  1.00  0.00    -0.301 N 
ATOM      3  H1  UNL     1      13.509  59.028   2.678  1.00  0.00     0.187 HD
HETATM    4  N2  UNL     1      13.939  58.755   4.751  1.00  0.00    -0.283 N 
HETATM    5  C12 UNL     1      14.137  59.634   5.910  1.00  0.00     0.148 C 
HETATM    6  C23 UNL     1      14.246  61.020   5.268  1.00  0.00     0.091 C 
ENDROOT
BRANCH   5   7
HETATM    7  C13 UNL     1      12.996  59.604   6.927  1.00  0.00    -0.022 A 
HETATM    8  C14 UNL     1      11.788  60.272   6.643  1.00  0.00     0.010 A 
HETATM    9  C15 UNL     1      10.735  60.276   7.552  1.00  0.00     0.002 A 
HETATM   10  C16 UNL     1      10.872  59.622   8.770  1.00  0.00     0.012 A 
HETATM   11  C17 UNL     1      12.062  58.961   9.102  1.00  0.00    -0.025 A 
HETATM   12  C18 UNL     1      12.174  58.320  10.347  1.00  0.00     0.012 A 
HETATM   13  C22 UNL     1      13.149  58.945   8.186  1.00  0.00    -0.018 A 
HETATM   14  C19 UNL     1      13.345  57.661  10.714  1.00  0.00     0.001 A 
HETATM   15  C20 UNL     1      14.421  57.637   9.840  1.00  0.00     0.001 A 
HETATM   16  C21 UNL     1      14.325  58.269   8.597  1.00  0.00     0.013 A 
ENDBRANCH   5   7
BRANCH   4  17
HETATM   17  C6  UNL     1      14.154  57.375   4.742  1.00  0.00     0.051 A 
HETATM   18  C7  UNL     1      13.376  56.532   3.928  1.00  0.00     0.031 A 
HETATM   19  C8  UNL     1      13.567  55.146   3.903  1.00  0.00     0.002 A 
HETATM   20  C9  UNL     1      14.546  54.565   4.700  1.00  0.00     0.000 A 
HETATM   21  C10 UNL     1      15.327  55.370   5.522  1.00  0.00     0.002 A 
HETATM   22  C11 UNL     1      15.130  56.758   5.540  1.00  0.00     0.031 A 
ENDBRANCH   4  17
BRANCH   1  23
HETATM   23  C4  UNL     1      13.661  61.758   2.833  1.00  0.00    -0.010 A 
HETATM   24  C3  UNL     1      13.984  63.081   3.162  1.00  0.00     0.015 A 
HETATM   25  C2  UNL     1      13.814  64.104   2.225  1.00  0.00     0.026 A 
HETATM   26  C1  UNL     1      13.319  63.813   0.953  1.00  0.00     0.055 A 
HETATM   27 CL1  UNL     1      13.132  65.122  -0.158  1.00  0.00    -0.083 Cl
HETATM   28  C25 UNL     1      12.993  62.492   0.620  1.00  0.00     0.056 A 
HETATM   29  C24 UNL     1      13.163  61.467   1.559  1.00  0.00     0.039 A 
HETATM   30 CL2  UNL     1      12.373  62.056  -0.933  1.00  0.00    -0.083 Cl
ENDBRANCH   1  23
TORSDOF 3
ENDMDL
MODEL 7
REMARK minimizedAffinity -7.5276165
REMARK  3 active torsions:
REMARK  status: ('A' for Active; 'I' for Inactive)
REMARK    1  A    between atoms: C4_5  and  C5_6 
REMARK    2  A    between atoms: N2_9  and  C6_10 
REMARK    3  A    between atoms: C12_16  and  C13_17 
ROOT
HETATM    1  C5  UNL     1      14.505  59.136   2.500  1.00  0.00     0.038 C 
HETATM    2  N1  UNL     1      13.861  58.242   1.815  1.00  0.00    -0.301 N 
ATOM      3  H1  UNL     1      12.850  58.190   1.687  1.00  0.00     0.187 HD
HETATM    4  N2  UNL     1      14.787  57.383   1.297  1.00  0.00    -0.283 N 
HETATM    5  C12 UNL     1      16.156  57.671   1.741  1.00  0.00     0.148 C 
HETATM    6  C23 UNL     1      16.002  59.012   2.463  1.00  0.00     0.091 C 
ENDROOT
BRANCH   5   7
HETATM    7  C13 UNL     1      16.748  56.621   2.682  1.00  0.00    -0.022 A 
HETATM    8  C14 UNL     1      18.143  56.417   2.715  1.00  0.00     0.010 A 
HETATM    9  C15 UNL     1      18.712  55.461   3.549  1.00  0.00     0.002 A 
HETATM   10  C16 UNL     1      17.899  54.680   4.360  1.00  0.00     0.012 A 
HETATM   11  C17 UNL     1      16.507  54.835   4.347  1.00  0.00    -0.025 A 
HETATM   12  C18 UNL     1      15.711  54.021   5.170  1.00  0.00     0.012 A 
HETATM   13  C22 UNL     1      15.906  55.807   3.502  1.00  0.00    -0.018 A 
HETATM   14  C19 UNL     1      14.324  54.142   5.175  1.00  0.00     0.001 A 
HETATM   15  C20 UNL     1      13.713  55.078   4.354  1.00  0.00     0.001 A 
HETATM   16  C21 UNL     1      14.492  55.897   3.531  1.00  0.00     0.013 A 
ENDBRANCH   5   7
BRANCH   4  17
HETATM   17  C6  UNL     1      14.441  56.484   0.286  1.00  0.00     0.051 A 
HETATM   18  C7  UNL     1      15.431  55.876  -0.507  1.00  0.00     0.031 A 
HETATM   19  C8  UNL     1      15.112  54.976  -1.529  1.00  0.00     0.002 A 
HETATM   20  C9  UNL     1      13.783  54.660  -1.787  1.00  0.00     0.000 A 
HETATM   21  C10 UNL     1      12.779  55.249  -1.025  1.00  0.00     0.002 A 
HETATM   22  C11 UNL     1      13.108  56.150  -0.003  1.00  0.00     0.031 A 
ENDBRANCH   4  17
BRANCH   1  23
HETATM   23  C4  UNL     1      13.825  60.225   3.239  1.00  0.00    -0.010 A 
HETATM   24  C3  UNL     1      13.167  59.921   4.437  1.00  0.00     0.015 A 
HETATM   25  C2  UNL     1      12.515  60.924   5.160  1.00  0.00     0.026 A 
HETATM   26  C1  UNL     1      12.515  62.239   4.689  1.00  0.00     0.055 A 
HETATM   27 CL1  UNL     1      11.690  63.431   5.628  1.00  0.00    -0.083 Cl
HETATM   28  C25 UNL     1      13.169  62.547   3.491  1.00  0.00     0.056 A 
HETATM   29  C24 UNL     1      13.823  61.542   2.766  1.00  0.00     0.039 A 
HETATM   30 CL2  UNL     1      13.208  64.150   2.844  1.00  0.00    -0.083 Cl
ENDBRANCH   1  23
TORSDOF 3
ENDMDL
MODEL 8
REMARK minimizedAffinity -7.51197147
REMARK  3 active torsions:
REMARK  status: ('A' for Active; 'I' for Inactive)
REMARK    1  A    between atoms: C4_5  and  C5_6 
REMARK    2  A    between atoms: N2_9  and  C6_10 
REMARK    3  A    between atoms: C12_16  and  C13_17 
ROOT
HETATM    1  C5  UNL     1      13.991  35.995  16.584  1.00  0.00     0.038 C 
HETATM    2  N1  UNL     1      14.959  35.187  16.281  1.00  0.00    -0.301 N 
ATOM      3  H1  UNL     1      15.056  34.218  16.585  1.00  0.00     0.187 HD
HETATM    4  N2  UNL     1      15.824  35.874  15.478  1.00  0.00    -0.283 N 
HETATM    5  C12 UNL     1      15.454  37.283  15.299  1.00  0.00     0.148 C 
HETATM    6  C23 UNL     1      14.065  37.352  15.940  1.00  0.00     0.091 C 
ENDROOT
BRANCH   5   7
HETATM    7  C13 UNL     1      16.403  38.275  15.972  1.00  0.00    -0.022 A 
HETATM    8  C14 UNL     1      16.924  37.988  17.251  1.00  0.00     0.010 A 
HETATM    9  C15 UNL     1      17.778  38.875  17.897  1.00  0.00     0.002 A 
HETATM   10  C16 UNL     1      18.122  40.073  17.284  1.00  0.00     0.012 A 
HETATM   11  C17 UNL     1      17.614  40.408  16.022  1.00  0.00    -0.025 A 
HETATM   12  C18 UNL     1      17.971  41.633  15.435  1.00  0.00     0.012 A 
HETATM   13  C22 UNL     1      16.740  39.515  15.345  1.00  0.00    -0.018 A 
HETATM   14  C19 UNL     1      17.477  42.002  14.186  1.00  0.00     0.001 A 
HETATM   15  C20 UNL     1      16.617  41.151  13.509  1.00  0.00     0.001 A 
HETATM   16  C21 UNL     1      16.254  39.927  14.079  1.00  0.00     0.013 A 
ENDBRANCH   5   7
BRANCH   4  17
HETATM   17  C6  UNL     1      16.814  35.203  14.755  1.00  0.00     0.051 A 
HETATM   18  C7  UNL     1      16.631  34.903  13.394  1.00  0.00     0.031 A 
HETATM   19  C8  UNL     1      17.604  34.229  12.647  1.00  0.00     0.002 A 
HETATM   20  C9  UNL     1      18.791  33.832  13.251  1.00  0.00     0.000 A 
HETATM   21  C10 UNL     1      18.999  34.107  14.598  1.00  0.00     0.002 A 
HETATM   22  C11 UNL     1      18.020  34.784  15.338  1.00  0.00     0.031 A 
ENDBRANCH   4  17
BRANCH   1  23
HETATM   23  C4  UNL     1      12.870  35.609  17.472  1.00  0.00    -0.010 A 
HETATM   24  C3  UNL     1      13.152  34.903  18.648  1.00  0.00     0.015 A 
HETATM   25  C2  UNL     1      12.118  34.521  19.508  1.00  0.00     0.026 A 
HETATM   26  C1  UNL     1      10.795  34.842  19.199  1.00  0.00     0.055 A 
HETATM   27 CL1  UNL     1       9.565  34.341  20.303  1.00  0.00    -0.083 Cl
HETATM   28  C25 UNL     1      10.509  35.546  18.023  1.00  0.00     0.056 A 
HETATM   29  C24 UNL     1      11.544  35.928  17.160  1.00  0.00     0.039 A 
HETATM   30 CL2  UNL     1       8.896  35.974  17.571  1.00  0.00    -0.083 Cl
ENDBRANCH   1  23
TORSDOF 3
ENDMDL
MODEL 9
REMARK minimizedAffinity -7.5077734
REMARK  3 active torsions:
REMARK  status: ('A' for Active; 'I' for Inactive)
REMARK    1  A    between atoms: C4_5  and  C5_6 
REMARK    2  A    between atoms: N2_9  and  C6_10 
REMARK    3  A    between atoms: C12_16  and  C13_17 
ROOT
HETATM    1  C5  UNL     1      17.166  52.139   5.166  1.00  0.00     0.038 C 
HETATM    2  N1  UNL     1      16.577  50.983   5.155  1.00  0.00    -0.301 N 
ATOM      3  H1  UNL     1      15.578  50.814   5.040  1.00  0.00     0.187 HD
HETATM    4  N2  UNL     1      17.544  50.034   5.325  1.00  0.00    -0.283 N 
HETATM    5  C12 UNL     1      18.878  50.601   5.558  1.00  0.00     0.148 C 
HETATM    6  C23 UNL     1      18.664  52.092   5.284  1.00  0.00     0.091 C 
ENDROOT
BRANCH   5   7
HETATM    7  C13 UNL     1      19.415  50.389   6.974  1.00  0.00    -0.022 A 
HETATM    8  C14 UNL     1      19.783  49.095   7.396  1.00  0.00     0.010 A 
HETATM    9  C15 UNL     1      20.262  48.865   8.681  1.00  0.00     0.002 A 
HETATM   10  C16 UNL     1      20.373  49.922   9.576  1.00  0.00     0.012 A 
HETATM   11  C17 UNL     1      20.001  51.221   9.205  1.00  0.00    -0.025 A 
HETATM   12  C18 UNL     1      20.113  52.266  10.138  1.00  0.00     0.012 A 
HETATM   13  C22 UNL     1      19.511  51.476   7.897  1.00  0.00    -0.018 A 
HETATM   14  C19 UNL     1      19.744  53.567   9.807  1.00  0.00     0.001 A 
HETATM   15  C20 UNL     1      19.256  53.840   8.538  1.00  0.00     0.001 A 
HETATM   16  C21 UNL     1      19.140  52.811   7.598  1.00  0.00     0.013 A 
ENDBRANCH   5   7
BRANCH   4  17
HETATM   17  C6  UNL     1      17.274  48.686   5.076  1.00  0.00     0.051 A 
HETATM   18  C7  UNL     1      17.731  48.067   3.899  1.00  0.00     0.031 A 
HETATM   19  C8  UNL     1      17.471  46.720   3.623  1.00  0.00     0.002 A 
HETATM   20  C9  UNL     1      16.739  45.955   4.522  1.00  0.00     0.000 A 
HETATM   21  C10 UNL     1      16.267  46.540   5.693  1.00  0.00     0.002 A 
HETATM   22  C11 UNL     1      16.532  47.889   5.962  1.00  0.00     0.031 A 
ENDBRANCH   4  17
BRANCH   1  23
HETATM   23  C4  UNL     1      16.429  53.417   5.037  1.00  0.00    -0.010 A 
HETATM   24  C3  UNL     1      15.040  53.418   5.216  1.00  0.00     0.015 A 
HETATM   25  C2  UNL     1      14.313  54.606   5.101  1.00  0.00     0.026 A 
HETATM   26  C1  UNL     1      14.969  55.802   4.804  1.00  0.00     0.055 A 
HETATM   27 CL1  UNL     1      14.013  57.235   4.674  1.00  0.00    -0.083 Cl
HETATM   28  C25 UNL     1      16.357  55.806   4.622  1.00  0.00     0.056 A 
HETATM   29  C24 UNL     1      17.086  54.615   4.737  1.00  0.00     0.039 A 
HETATM   30 CL2  UNL     1      17.237  57.246   4.249  1.00  0.00    -0.083 Cl
ENDBRANCH   1  23
TORSDOF 3
ENDMDL
