MODEL 1
REMARK minimizedAffinity -8.9068985
REMARK  8 active torsions:
REMARK  status: ('A' for Active; 'I' for Inactive)
REMARK    1  A    between atoms: N1_1  and  C1_2 
REMARK    2  A    between atoms: C5_10  and  C6_11 
REMARK    3  A    between atoms: N4_18  and  C13_19 
REMARK    4  A    between atoms: C17_23  and  C18_24 
REMARK    5  A    between atoms: C18_24  and  N5_25 
REMARK    6  A    between atoms: N5_25  and  C19_26 
REMARK    7  A    between atoms: C19_26  and  C20_27 
REMARK    8  A    between atoms: C20_27  and  O1_28 
ROOT
HETATM    1  C1  UNL     1      11.594  -4.405  30.048  1.00  0.00     0.093 A 
HETATM    2  N2  UNL     1      11.694  -4.751  28.753  1.00  0.00    -0.343 N 
ATOM      3  H2  UNL     1      12.600  -4.774  28.285  1.00  0.00     0.167 HD
HETATM    4  C2  UNL     1      10.569  -5.064  28.093  1.00  0.00     0.183 A 
HETATM    5  N3  UNL     1       9.318  -5.088  28.566  1.00  0.00    -0.337 N 
ATOM      6  H3  UNL     1       8.508  -5.348  28.002  1.00  0.00     0.168 HD
HETATM    7  C3  UNL     1       9.236  -4.734  29.865  1.00  0.00     0.127 A 
HETATM    8  C4  UNL     1      10.328  -4.388  30.661  1.00  0.00     0.059 A 
HETATM    9  C5  UNL     1       9.826  -4.110  31.962  1.00  0.00     0.007 A 
HETATM   10  C12 UNL     1       8.462  -4.306  31.922  1.00  0.00     0.112 A 
HETATM   11  N4  UNL     1       8.076  -4.683  30.645  1.00  0.00    -0.307 N 
ENDROOT
BRANCH  11  12
HETATM   12  C13 UNL     1       6.722  -4.957  30.244  1.00  0.00     0.041 A 
HETATM   13  C14 UNL     1       5.663  -4.128  30.635  1.00  0.00     0.030 A 
HETATM   14  C15 UNL     1       4.349  -4.415  30.251  1.00  0.00     0.003 A 
HETATM   15  C16 UNL     1       4.074  -5.533  29.468  1.00  0.00     0.009 A 
HETATM   16  C17 UNL     1       5.111  -6.377  29.057  1.00  0.00    -0.028 A 
HETATM   17  C21 UNL     1       6.429  -6.083  29.452  1.00  0.00     0.039 A 
BRANCH  16  18
HETATM   18  C18 UNL     1       4.813  -7.589  28.204  1.00  0.00     0.308 C 
BRANCH  18  19
HETATM   19  N5  UNL     1       5.999  -8.152  27.551  1.00  0.00     0.089 N 
HETATM   20  H15 UNL     1       5.700  -8.895  26.920  1.00  0.00     0.316 HD
BRANCH  19  21
HETATM   21  C19 UNL     1       6.792  -7.169  26.805  1.00  0.00     0.295 C 
BRANCH  21  22
HETATM   22  C20 UNL     1       7.385  -7.677  25.482  1.00  0.00     0.194 C 
BRANCH  22  23
HETATM   23  O1  UNL     1       6.377  -7.785  24.482  1.00  0.00    -0.399 OA
HETATM   24  H20 UNL     1       5.961  -6.910  24.386  1.00  0.00     0.209 HD
ENDBRANCH  22  23
ENDBRANCH  21  22
ENDBRANCH  19  21
ENDBRANCH  18  19
ENDBRANCH  16  18
ENDBRANCH  11  12
BRANCH   9  25
HETATM   25  C6  UNL     1      10.510  -3.677  33.167  1.00  0.00    -0.024 A 
HETATM   26  C7  UNL     1      11.464  -2.654  33.106  1.00  0.00     0.012 A 
HETATM   27  C8  UNL     1      12.130  -2.244  34.262  1.00  0.00     0.001 A 
HETATM   28  C9  UNL     1      11.846  -2.852  35.485  1.00  0.00     0.000 A 
HETATM   29  C10 UNL     1      10.894  -3.868  35.554  1.00  0.00     0.001 A 
HETATM   30  C11 UNL     1      10.226  -4.281  34.398  1.00  0.00     0.012 A 
ENDBRANCH   9  25
BRANCH   1  31
HETATM   31  N1  UNL     1      12.783  -4.110  30.700  1.00  0.00    -0.288 NA
HETATM   32  H1  UNL     1      13.579  -4.466  30.184  1.00  0.00     0.125 HD
HETATM   33  H2  UNL     1      12.779  -4.270  31.700  1.00  0.00     0.125 HD
ENDBRANCH   1  31
TORSDOF 8
ENDMDL
MODEL 2
REMARK minimizedAffinity -8.678689
REMARK  8 active torsions:
REMARK  status: ('A' for Active; 'I' for Inactive)
REMARK    1  A    between atoms: N1_1  and  C1_2 
REMARK    2  A    between atoms: C5_10  and  C6_11 
REMARK    3  A    between atoms: N4_18  and  C13_19 
REMARK    4  A    between atoms: C17_23  and  C18_24 
REMARK    5  A    between atoms: C18_24  and  N5_25 
REMARK    6  A    between atoms: N5_25  and  C19_26 
REMARK    7  A    between atoms: C19_26  and  C20_27 
REMARK    8  A    between atoms: C20_27  and  O1_28 
ROOT
HETATM    1  C1  UNL     1      11.482  -4.599  29.908  1.00  0.00     0.093 A 
HETATM    2  N2  UNL     1      11.577  -4.982  28.623  1.00  0.00    -0.343 N 
ATOM      3  H2  UNL     1      12.483  -5.031  28.156  1.00  0.00     0.167 HD
HETATM    4  C2  UNL     1      10.448  -5.300  27.972  1.00  0.00     0.183 A 
HETATM    5  N3  UNL     1       9.197  -5.294  28.446  1.00  0.00    -0.337 N 
ATOM      6  H3  UNL     1       8.383  -5.559  27.890  1.00  0.00     0.168 HD
HETATM    7  C3  UNL     1       9.121  -4.902  29.735  1.00  0.00     0.127 A 
HETATM    8  C4  UNL     1      10.217  -4.548  30.521  1.00  0.00     0.059 A 
HETATM    9  C5  UNL     1       9.720  -4.227  31.813  1.00  0.00     0.007 A 
HETATM   10  C12 UNL     1       8.353  -4.406  31.779  1.00  0.00     0.112 A 
HETATM   11  N4  UNL     1       7.961  -4.814  30.513  1.00  0.00    -0.307 N 
ENDROOT
BRANCH  11  12
HETATM   12  C13 UNL     1       6.603  -5.083  30.121  1.00  0.00     0.041 A 
HETATM   13  C14 UNL     1       5.530  -4.373  30.675  1.00  0.00     0.030 A 
HETATM   14  C15 UNL     1       4.214  -4.654  30.295  1.00  0.00     0.003 A 
HETATM   15  C16 UNL     1       3.950  -5.646  29.354  1.00  0.00     0.009 A 
HETATM   16  C17 UNL     1       5.001  -6.368  28.779  1.00  0.00    -0.028 A 
HETATM   17  C21 UNL     1       6.322  -6.082  29.170  1.00  0.00     0.039 A 
BRANCH  16  18
HETATM   18  C18 UNL     1       4.716  -7.443  27.756  1.00  0.00     0.308 C 
BRANCH  18  19
HETATM   19  N5  UNL     1       3.514  -8.230  28.051  1.00  0.00     0.089 N 
HETATM   20  H15 UNL     1       3.315  -8.157  29.048  1.00  0.00     0.316 HD
BRANCH  19  21
HETATM   21  C19 UNL     1       2.331  -7.820  27.287  1.00  0.00     0.295 C 
BRANCH  21  22
HETATM   22  C20 UNL     1       1.026  -8.533  27.672  1.00  0.00     0.194 C 
BRANCH  22  23
HETATM   23  O1  UNL     1      -0.079  -7.635  27.621  1.00  0.00    -0.399 OA
HETATM   24  H20 UNL     1      -0.115  -7.262  26.722  1.00  0.00     0.209 HD
ENDBRANCH  22  23
ENDBRANCH  21  22
ENDBRANCH  19  21
ENDBRANCH  18  19
ENDBRANCH  16  18
ENDBRANCH  11  12
BRANCH   9  25
HETATM   25  C6  UNL     1      10.410  -3.769  33.005  1.00  0.00    -0.024 A 
HETATM   26  C7  UNL     1      10.143  -4.363  34.244  1.00  0.00     0.012 A 
HETATM   27  C8  UNL     1      10.799  -3.916  35.393  1.00  0.00     0.001 A 
HETATM   28  C9  UNL     1      11.725  -2.877  35.310  1.00  0.00     0.000 A 
HETATM   29  C10 UNL     1      11.999  -2.284  34.078  1.00  0.00     0.001 A 
HETATM   30  C11 UNL     1      11.344  -2.729  32.927  1.00  0.00     0.012 A 
ENDBRANCH   9  25
BRANCH   1  31
HETATM   31  N1  UNL     1      12.675  -4.301  30.551  1.00  0.00    -0.288 NA
HETATM   32  H1  UNL     1      13.466  -4.682  30.045  1.00  0.00     0.125 HD
HETATM   33  H2  UNL     1      12.670  -4.433  31.555  1.00  0.00     0.125 HD
ENDBRANCH   1  31
TORSDOF 8
ENDMDL
MODEL 3
REMARK minimizedAffinity -8.65777206
REMARK  8 active torsions:
REMARK  status: ('A' for Active; 'I' for Inactive)
REMARK    1  A    between atoms: N1_1  and  C1_2 
REMARK    2  A    between atoms: C5_10  and  C6_11 
REMARK    3  A    between atoms: N4_18  and  C13_19 
REMARK    4  A    between atoms: C17_23  and  C18_24 
REMARK    5  A    between atoms: C18_24  and  N5_25 
REMARK    6  A    between atoms: N5_25  and  C19_26 
REMARK    7  A    between atoms: C19_26  and  C20_27 
REMARK    8  A    between atoms: C20_27  and  O1_28 
ROOT
HETATM    1  C1  UNL     1       6.085  -8.153  25.960  1.00  0.00     0.093 A 
HETATM    2  N2  UNL     1       7.322  -7.814  25.560  1.00  0.00    -0.343 N 
ATOM      3  H2  UNL     1       7.751  -8.258  24.748  1.00  0.00     0.167 HD
HETATM    4  C2  UNL     1       7.978  -6.875  26.259  1.00  0.00     0.183 A 
HETATM    5  N3  UNL     1       7.551  -6.201  27.332  1.00  0.00    -0.337 N 
ATOM      6  H3  UNL     1       8.106  -5.489  27.807  1.00  0.00     0.168 HD
HETATM    7  C3  UNL     1       6.309  -6.558  27.722  1.00  0.00     0.127 A 
HETATM    8  C4  UNL     1       5.524  -7.517  27.083  1.00  0.00     0.059 A 
HETATM    9  C5  UNL     1       4.287  -7.578  27.780  1.00  0.00     0.007 A 
HETATM   10  C12 UNL     1       4.351  -6.656  28.803  1.00  0.00     0.112 A 
HETATM   11  N4  UNL     1       5.584  -6.022  28.792  1.00  0.00    -0.307 N 
ENDROOT
BRANCH  11  12
HETATM   12  C13 UNL     1       5.995  -5.010  29.727  1.00  0.00     0.041 A 
HETATM   13  C14 UNL     1       5.176  -3.912  30.021  1.00  0.00     0.030 A 
HETATM   14  C15 UNL     1       5.594  -2.928  30.922  1.00  0.00     0.003 A 
HETATM   15  C16 UNL     1       6.835  -3.026  31.545  1.00  0.00     0.009 A 
HETATM   16  C17 UNL     1       7.674  -4.113  31.277  1.00  0.00    -0.028 A 
HETATM   17  C21 UNL     1       7.247  -5.097  30.365  1.00  0.00     0.039 A 
BRANCH  16  18
HETATM   18  C18 UNL     1       9.020  -4.222  31.955  1.00  0.00     0.308 C 
BRANCH  18  19
HETATM   19  N5  UNL     1       9.040  -3.667  33.312  1.00  0.00     0.089 N 
HETATM   20  H15 UNL     1       8.337  -2.931  33.372  1.00  0.00     0.316 HD
BRANCH  19  21
HETATM   21  C19 UNL     1       8.799  -4.658  34.366  1.00  0.00     0.295 C 
BRANCH  21  22
HETATM   22  C20 UNL     1       9.327  -4.275  35.756  1.00  0.00     0.194 C 
BRANCH  22  23
HETATM   23  O1  UNL     1       8.265  -3.850  36.604  1.00  0.00    -0.399 OA
HETATM   24  H20 UNL     1       7.614  -4.573  36.645  1.00  0.00     0.209 HD
ENDBRANCH  22  23
ENDBRANCH  21  22
ENDBRANCH  19  21
ENDBRANCH  18  19
ENDBRANCH  16  18
ENDBRANCH  11  12
BRANCH   9  25
HETATM   25  C6  UNL     1       3.122  -8.417  27.567  1.00  0.00    -0.024 A 
HETATM   26  C7  UNL     1       3.278  -9.772  27.253  1.00  0.00     0.012 A 
HETATM   27  C8  UNL     1       2.159 -10.578  27.038  1.00  0.00     0.001 A 
HETATM   28  C9  UNL     1       0.878 -10.035  27.138  1.00  0.00     0.000 A 
HETATM   29  C10 UNL     1       0.714  -8.687  27.455  1.00  0.00     0.001 A 
HETATM   30  C11 UNL     1       1.833  -7.879  27.670  1.00  0.00     0.012 A 
ENDBRANCH   9  25
BRANCH   1  31
HETATM   31  N1  UNL     1       5.433  -9.112  25.198  1.00  0.00    -0.288 NA
HETATM   32  H1  UNL     1       5.871  -9.215  24.290  1.00  0.00     0.125 HD
HETATM   33  H2  UNL     1       4.421  -9.062  25.212  1.00  0.00     0.125 HD
ENDBRANCH   1  31
TORSDOF 8
ENDMDL
MODEL 4
REMARK minimizedAffinity -8.60593605
REMARK  8 active torsions:
REMARK  status: ('A' for Active; 'I' for Inactive)
REMARK    1  A    between atoms: N1_1  and  C1_2 
REMARK    2  A    between atoms: C5_10  and  C6_11 
REMARK    3  A    between atoms: N4_18  and  C13_19 
REMARK    4  A    between atoms: C17_23  and  C18_24 
REMARK    5  A    between atoms: C18_24  and  N5_25 
REMARK    6  A    between atoms: N5_25  and  C19_26 
REMARK    7  A    between atoms: C19_26  and  C20_27 
REMARK    8  A    between atoms: C20_27  and  O1_28 
ROOT
HETATM    1  C1  UNL     1       6.418  -3.258  31.261  1.00  0.00     0.093 A 
HETATM    2  N2  UNL     1       5.175  -3.295  30.752  1.00  0.00    -0.343 N 
ATOM      3  H2  UNL     1       4.515  -2.537  30.924  1.00  0.00     0.167 HD
HETATM    4  C2  UNL     1       4.827  -4.358  30.010  1.00  0.00     0.183 A 
HETATM    5  N3  UNL     1       5.576  -5.419  29.691  1.00  0.00    -0.337 N 
ATOM      6  H3  UNL     1       5.242  -6.189  29.111  1.00  0.00     0.168 HD
HETATM    7  C3  UNL     1       6.818  -5.366  30.215  1.00  0.00     0.127 A 
HETATM    8  C4  UNL     1       7.303  -4.320  31.000  1.00  0.00     0.059 A 
HETATM    9  C5  UNL     1       8.651  -4.631  31.326  1.00  0.00     0.007 A 
HETATM   10  C12 UNL     1       8.947  -5.837  30.727  1.00  0.00     0.112 A 
HETATM   11  N4  UNL     1       7.836  -6.311  30.045  1.00  0.00    -0.307 N 
ENDROOT
BRANCH  11  12
HETATM   12  C13 UNL     1       7.788  -7.550  29.315  1.00  0.00     0.041 A 
HETATM   13  C14 UNL     1       6.598  -8.010  28.737  1.00  0.00     0.030 A 
HETATM   14  C15 UNL     1       6.562  -9.223  28.042  1.00  0.00     0.003 A 
HETATM   15  C16 UNL     1       7.715  -9.993  27.911  1.00  0.00     0.009 A 
HETATM   16  C17 UNL     1       8.921  -9.556  28.471  1.00  0.00    -0.028 A 
HETATM   17  C21 UNL     1       8.946  -8.336  29.173  1.00  0.00     0.039 A 
BRANCH  16  18
HETATM   18  C18 UNL     1      10.173 -10.389  28.326  1.00  0.00     0.308 C 
BRANCH  18  19
HETATM   19  N5  UNL     1      10.929 -10.534  29.575  1.00  0.00     0.089 N 
HETATM   20  H15 UNL     1      10.269 -10.560  30.352  1.00  0.00     0.316 HD
BRANCH  19  21
HETATM   21  C19 UNL     1      11.783 -11.726  29.620  1.00  0.00     0.295 C 
BRANCH  21  22
HETATM   22  C20 UNL     1      12.635 -11.870  30.889  1.00  0.00     0.194 C 
BRANCH  22  23
HETATM   23  O1  UNL     1      11.880 -12.460  31.944  1.00  0.00    -0.399 OA
HETATM   24  H20 UNL     1      11.548 -13.317  31.625  1.00  0.00     0.209 HD
ENDBRANCH  22  23
ENDBRANCH  21  22
ENDBRANCH  19  21
ENDBRANCH  18  19
ENDBRANCH  16  18
ENDBRANCH  11  12
BRANCH   9  25
HETATM   25  C6  UNL     1       9.617  -3.913  32.137  1.00  0.00    -0.024 A 
HETATM   26  C7  UNL     1       9.945  -4.378  33.416  1.00  0.00     0.012 A 
HETATM   27  C8  UNL     1      10.866  -3.682  34.202  1.00  0.00     0.001 A 
HETATM   28  C9  UNL     1      11.466  -2.522  33.713  1.00  0.00     0.000 A 
HETATM   29  C10 UNL     1      11.148  -2.057  32.438  1.00  0.00     0.001 A 
HETATM   30  C11 UNL     1      10.226  -2.750  31.650  1.00  0.00     0.012 A 
ENDBRANCH   9  25
BRANCH   1  31
HETATM   31  N1  UNL     1       6.746  -2.132  32.002  1.00  0.00    -0.288 NA
HETATM   32  H1  UNL     1       6.098  -1.375  31.821  1.00  0.00     0.125 HD
HETATM   33  H2  UNL     1       7.730  -1.894  32.016  1.00  0.00     0.125 HD
ENDBRANCH   1  31
TORSDOF 8
ENDMDL
MODEL 5
REMARK minimizedAffinity -8.57131672
REMARK  8 active torsions:
REMARK  status: ('A' for Active; 'I' for Inactive)
REMARK    1  A    between atoms: N1_1  and  C1_2 
REMARK    2  A    between atoms: C5_10  and  C6_11 
REMARK    3  A    between atoms: N4_18  and  C13_19 
REMARK    4  A    between atoms: C17_23  and  C18_24 
REMARK    5  A    between atoms: C18_24  and  N5_25 
REMARK    6  A    between atoms: N5_25  and  C19_26 
REMARK    7  A    between atoms: C19_26  and  C20_27 
REMARK    8  A    between atoms: C20_27  and  O1_28 
ROOT
HETATM    1  C1  UNL     1       4.066  -5.711  29.155  1.00  0.00     0.093 A 
HETATM    2  N2  UNL     1       3.891  -4.565  29.834  1.00  0.00    -0.343 N 
ATOM      3  H2  UNL     1       2.988  -4.090  29.838  1.00  0.00     0.167 HD
HETATM    4  C2  UNL     1       4.938  -4.062  30.506  1.00  0.00     0.183 A 
HETATM    5  N3  UNL     1       6.173  -4.567  30.602  1.00  0.00    -0.337 N 
ATOM      6  H3  UNL     1       6.919  -4.129  31.143  1.00  0.00     0.168 HD
HETATM    7  C3  UNL     1       6.330  -5.714  29.911  1.00  0.00     0.127 A 
HETATM    8  C4  UNL     1       5.324  -6.340  29.175  1.00  0.00     0.059 A 
HETATM    9  C5  UNL     1       5.883  -7.526  28.625  1.00  0.00     0.007 A 
HETATM   10  C12 UNL     1       7.194  -7.592  29.049  1.00  0.00     0.112 A 
HETATM   11  N4  UNL     1       7.493  -6.489  29.834  1.00  0.00    -0.307 N 
ENDROOT
BRANCH  11  12
HETATM   12  C13 UNL     1       8.775  -6.232  30.433  1.00  0.00     0.041 A 
HETATM   13  C14 UNL     1       9.943  -6.830  29.942  1.00  0.00     0.030 A 
HETATM   14  C15 UNL     1      11.181  -6.583  30.543  1.00  0.00     0.003 A 
HETATM   15  C16 UNL     1      11.272  -5.732  31.642  1.00  0.00     0.009 A 
HETATM   16  C17 UNL     1      10.124  -5.115  32.152  1.00  0.00    -0.028 A 
HETATM   17  C21 UNL     1       8.882  -5.373  31.543  1.00  0.00     0.039 A 
BRANCH  16  18
HETATM   18  C18 UNL     1      10.222  -4.190  33.343  1.00  0.00     0.308 C 
BRANCH  18  19
HETATM   19  N5  UNL     1       9.547  -2.904  33.143  1.00  0.00     0.089 N 
HETATM   20  H15 UNL     1       9.078  -2.645  34.010  1.00  0.00     0.316 HD
BRANCH  19  21
HETATM   21  C19 UNL     1      10.442  -1.818  32.729  1.00  0.00     0.295 C 
BRANCH  21  22
HETATM   22  C20 UNL     1      11.927  -2.037  33.054  1.00  0.00     0.194 C 
BRANCH  22  23
HETATM   23  O1  UNL     1      12.756  -1.307  32.154  1.00  0.00    -0.399 OA
HETATM   24  H20 UNL     1      12.502  -0.369  32.213  1.00  0.00     0.209 HD
ENDBRANCH  22  23
ENDBRANCH  21  22
ENDBRANCH  19  21
ENDBRANCH  18  19
ENDBRANCH  16  18
ENDBRANCH  11  12
BRANCH   9  25
HETATM   25  C6  UNL     1       5.299  -8.533  27.758  1.00  0.00    -0.024 A 
HETATM   26  C7  UNL     1       3.908  -8.662  27.668  1.00  0.00     0.012 A 
HETATM   27  C8  UNL     1       3.345  -9.638  26.843  1.00  0.00     0.001 A 
HETATM   28  C9  UNL     1       4.168 -10.487  26.103  1.00  0.00     0.000 A 
HETATM   29  C10 UNL     1       5.553 -10.360  26.185  1.00  0.00     0.001 A 
HETATM   30  C11 UNL     1       6.120  -9.386  27.010  1.00  0.00     0.012 A 
ENDBRANCH   9  25
BRANCH   1  31
HETATM   31  N1  UNL     1       2.953  -6.210  28.492  1.00  0.00    -0.288 NA
HETATM   32  H1  UNL     1       2.102  -5.788  28.842  1.00  0.00     0.125 HD
HETATM   33  H2  UNL     1       2.943  -7.214  28.358  1.00  0.00     0.125 HD
ENDBRANCH   1  31
TORSDOF 8
ENDMDL
MODEL 6
REMARK minimizedAffinity -8.4813509
REMARK  8 active torsions:
REMARK  status: ('A' for Active; 'I' for Inactive)
REMARK    1  A    between atoms: N1_1  and  C1_2 
REMARK    2  A    between atoms: C5_10  and  C6_11 
REMARK    3  A    between atoms: N4_18  and  C13_19 
REMARK    4  A    between atoms: C17_23  and  C18_24 
REMARK    5  A    between atoms: C18_24  and  N5_25 
REMARK    6  A    between atoms: N5_25  and  C19_26 
REMARK    7  A    between atoms: C19_26  and  C20_27 
REMARK    8  A    between atoms: C20_27  and  O1_28 
ROOT
HETATM    1  C1  UNL     1       6.467  -3.249  31.256  1.00  0.00     0.093 A 
HETATM    2  N2  UNL     1       5.219  -3.291  30.759  1.00  0.00    -0.343 N 
ATOM      3  H2  UNL     1       4.559  -2.533  30.934  1.00  0.00     0.167 HD
HETATM    4  C2  UNL     1       4.865  -4.358  30.027  1.00  0.00     0.183 A 
HETATM    5  N3  UNL     1       5.613  -5.419  29.706  1.00  0.00    -0.337 N 
ATOM      6  H3  UNL     1       5.275  -6.193  29.133  1.00  0.00     0.168 HD
HETATM    7  C3  UNL     1       6.860  -5.362  30.218  1.00  0.00     0.127 A 
HETATM    8  C4  UNL     1       7.351  -4.311  30.992  1.00  0.00     0.059 A 
HETATM    9  C5  UNL     1       8.703  -4.618  31.306  1.00  0.00     0.007 A 
HETATM   10  C12 UNL     1       8.995  -5.827  30.710  1.00  0.00     0.112 A 
HETATM   11  N4  UNL     1       7.878  -6.306  30.042  1.00  0.00    -0.307 N 
ENDROOT
BRANCH  11  12
HETATM   12  C13 UNL     1       7.825  -7.548  29.318  1.00  0.00     0.041 A 
HETATM   13  C14 UNL     1       8.938  -8.396  29.242  1.00  0.00     0.030 A 
HETATM   14  C15 UNL     1       8.877  -9.593  28.523  1.00  0.00     0.003 A 
HETATM   15  C16 UNL     1       7.703  -9.965  27.873  1.00  0.00     0.009 A 
HETATM   16  C17 UNL     1       6.573  -9.142  27.936  1.00  0.00    -0.028 A 
HETATM   17  C21 UNL     1       6.645  -7.936  28.658  1.00  0.00     0.039 A 
BRANCH  16  18
HETATM   18  C18 UNL     1       5.298  -9.545  27.233  1.00  0.00     0.308 C 
BRANCH  18  19
HETATM   19  N5  UNL     1       4.504  -8.407  26.759  1.00  0.00     0.089 N 
HETATM   20  H15 UNL     1       4.058  -8.666  25.880  1.00  0.00     0.316 HD
BRANCH  19  21
HETATM   21  C19 UNL     1       3.482  -7.956  27.710  1.00  0.00     0.295 C 
BRANCH  21  22
HETATM   22  C20 UNL     1       2.101  -7.676  27.100  1.00  0.00     0.194 C 
BRANCH  22  23
HETATM   23  O1  UNL     1       1.593  -6.422  27.547  1.00  0.00    -0.399 OA
HETATM   24  H20 UNL     1       2.244  -5.738  27.311  1.00  0.00     0.209 HD
ENDBRANCH  22  23
ENDBRANCH  21  22
ENDBRANCH  19  21
ENDBRANCH  18  19
ENDBRANCH  16  18
ENDBRANCH  11  12
BRANCH   9  25
HETATM   25  C6  UNL     1       9.676  -3.895  32.104  1.00  0.00    -0.024 A 
HETATM   26  C7  UNL     1       9.979  -4.323  33.402  1.00  0.00     0.012 A 
HETATM   27  C8  UNL     1      10.907  -3.622  34.174  1.00  0.00     0.001 A 
HETATM   28  C9  UNL     1      11.537  -2.491  33.654  1.00  0.00     0.000 A 
HETATM   29  C10 UNL     1      11.243  -2.062  32.361  1.00  0.00     0.001 A 
HETATM   30  C11 UNL     1      10.314  -2.761  31.586  1.00  0.00     0.012 A 
ENDBRANCH   9  25
BRANCH   1  31
HETATM   31  N1  UNL     1       6.800  -2.118  31.988  1.00  0.00    -0.288 NA
HETATM   32  H1  UNL     1       6.149  -1.363  31.809  1.00  0.00     0.125 HD
HETATM   33  H2  UNL     1       7.784  -1.879  31.992  1.00  0.00     0.125 HD
ENDBRANCH   1  31
TORSDOF 8
ENDMDL
MODEL 7
REMARK minimizedAffinity -8.46043205
REMARK  8 active torsions:
REMARK  status: ('A' for Active; 'I' for Inactive)
REMARK    1  A    between atoms: N1_1  and  C1_2 
REMARK    2  A    between atoms: C5_10  and  C6_11 
REMARK    3  A    between atoms: N4_18  and  C13_19 
REMARK    4  A    between atoms: C17_23  and  C18_24 
REMARK    5  A    between atoms: C18_24  and  N5_25 
REMARK    6  A    between atoms: N5_25  and  C19_26 
REMARK    7  A    between atoms: C19_26  and  C20_27 
REMARK    8  A    between atoms: C20_27  and  O1_28 
ROOT
HETATM    1  C1  UNL     1       6.657  -7.883  25.528  1.00  0.00     0.093 A 
HETATM    2  N2  UNL     1       7.808  -7.892  24.834  1.00  0.00    -0.343 N 
ATOM      3  H2  UNL     1       7.831  -8.196  23.861  1.00  0.00     0.167 HD
HETATM    4  C2  UNL     1       8.926  -7.488  25.457  1.00  0.00     0.183 A 
HETATM    5  N3  UNL     1       9.055  -7.057  26.716  1.00  0.00    -0.337 N 
ATOM      6  H3  UNL     1       9.942  -6.756  27.120  1.00  0.00     0.168 HD
HETATM    7  C3  UNL     1       7.891  -7.060  27.399  1.00  0.00     0.127 A 
HETATM    8  C4  UNL     1       6.663  -7.453  26.868  1.00  0.00     0.059 A 
HETATM    9  C5  UNL     1       5.691  -7.284  27.891  1.00  0.00     0.007 A 
HETATM   10  C12 UNL     1       6.346  -6.787  28.997  1.00  0.00     0.112 A 
HETATM   11  N4  UNL     1       7.698  -6.647  28.722  1.00  0.00    -0.307 N 
ENDROOT
BRANCH  11  12
HETATM   12  C13 UNL     1       8.680  -6.164  29.655  1.00  0.00     0.041 A 
HETATM   13  C14 UNL     1       9.863  -6.873  29.902  1.00  0.00     0.030 A 
HETATM   14  C15 UNL     1      10.803  -6.399  30.823  1.00  0.00     0.003 A 
HETATM   15  C16 UNL     1      10.577  -5.209  31.509  1.00  0.00     0.009 A 
HETATM   16  C17 UNL     1       9.408  -4.475  31.280  1.00  0.00    -0.028 A 
HETATM   17  C21 UNL     1       8.465  -4.962  30.355  1.00  0.00     0.039 A 
BRANCH  16  18
HETATM   18  C18 UNL     1       9.163  -3.181  32.022  1.00  0.00     0.308 C 
BRANCH  18  19
HETATM   19  N5  UNL     1       9.414  -3.275  33.464  1.00  0.00     0.089 N 
HETATM   20  H15 UNL     1       8.707  -2.728  33.953  1.00  0.00     0.316 HD
BRANCH  19  21
HETATM   21  C19 UNL     1       9.412  -4.648  33.981  1.00  0.00     0.295 C 
BRANCH  21  22
HETATM   22  C20 UNL     1       8.396  -4.922  35.099  1.00  0.00     0.194 C 
BRANCH  22  23
HETATM   23  O1  UNL     1       8.510  -3.955  36.139  1.00  0.00    -0.399 OA
HETATM   24  H20 UNL     1       8.388  -3.076  35.739  1.00  0.00     0.209 HD
ENDBRANCH  22  23
ENDBRANCH  21  22
ENDBRANCH  19  21
ENDBRANCH  18  19
ENDBRANCH  16  18
ENDBRANCH  11  12
BRANCH   9  25
HETATM   25  C6  UNL     1       4.267  -7.565  27.898  1.00  0.00    -0.024 A 
HETATM   26  C7  UNL     1       3.795  -8.820  27.496  1.00  0.00     0.012 A 
HETATM   27  C8  UNL     1       2.424  -9.088  27.493  1.00  0.00     0.001 A 
HETATM   28  C9  UNL     1       1.519  -8.104  27.892  1.00  0.00     0.000 A 
HETATM   29  C10 UNL     1       1.983  -6.854  28.297  1.00  0.00     0.001 A 
HETATM   30  C11 UNL     1       3.353  -6.583  28.301  1.00  0.00     0.012 A 
ENDBRANCH   9  25
BRANCH   1  31
HETATM   31  N1  UNL     1       5.521  -8.285  24.841  1.00  0.00    -0.288 NA
HETATM   32  H1  UNL     1       5.673  -8.262  23.840  1.00  0.00     0.125 HD
HETATM   33  H2  UNL     1       4.650  -7.894  25.178  1.00  0.00     0.125 HD
ENDBRANCH   1  31
TORSDOF 8
ENDMDL
MODEL 8
REMARK minimizedAffinity -8.01342773
REMARK  8 active torsions:
REMARK  status: ('A' for Active; 'I' for Inactive)
REMARK    1  A    between atoms: N1_1  and  C1_2 
REMARK    2  A    between atoms: C5_10  and  C6_11 
REMARK    3  A    between atoms: N4_18  and  C13_19 
REMARK    4  A    between atoms: C17_23  and  C18_24 
REMARK    5  A    between atoms: C18_24  and  N5_25 
REMARK    6  A    between atoms: N5_25  and  C19_26 
REMARK    7  A    between atoms: C19_26  and  C20_27 
REMARK    8  A    between atoms: C20_27  and  O1_28 
ROOT
HETATM    1  C1  UNL     1       6.524  -9.566  27.714  1.00  0.00     0.093 A 
HETATM    2  N2  UNL     1       7.787  -9.761  28.129  1.00  0.00    -0.343 N 
ATOM      3  H2  UNL     1       8.304 -10.598  27.860  1.00  0.00     0.167 HD
HETATM    4  C2  UNL     1       8.349  -8.825  28.909  1.00  0.00     0.183 A 
HETATM    5  N3  UNL     1       7.808  -7.679  29.338  1.00  0.00    -0.337 N 
ATOM      6  H3  UNL     1       8.304  -7.008  29.924  1.00  0.00     0.168 HD
HETATM    7  C3  UNL     1       6.539  -7.502  28.915  1.00  0.00     0.127 A 
HETATM    8  C4  UNL     1       5.843  -8.398  28.102  1.00  0.00     0.059 A 
HETATM    9  C5  UNL     1       4.559  -7.836  27.864  1.00  0.00     0.007 A 
HETATM   10  C12 UNL     1       4.517  -6.624  28.521  1.00  0.00     0.112 A 
HETATM   11  N4  UNL     1       5.718  -6.401  29.178  1.00  0.00    -0.307 N 
ENDROOT
BRANCH  11  12
HETATM   12  C13 UNL     1       6.016  -5.238  29.970  1.00  0.00     0.041 A 
HETATM   13  C14 UNL     1       5.159  -4.130  29.990  1.00  0.00     0.030 A 
HETATM   14  C15 UNL     1       5.467  -3.000  30.754  1.00  0.00     0.003 A 
HETATM   15  C16 UNL     1       6.635  -2.960  31.512  1.00  0.00     0.009 A 
HETATM   16  C17 UNL     1       7.508  -4.053  31.516  1.00  0.00    -0.028 A 
HETATM   17  C21 UNL     1       7.192  -5.185  30.741  1.00  0.00     0.039 A 
BRANCH  16  18
HETATM   18  C18 UNL     1       8.774  -4.013  32.341  1.00  0.00     0.308 C 
BRANCH  18  19
HETATM   19  N5  UNL     1       9.218  -2.654  32.668  1.00  0.00     0.089 N 
HETATM   20  H15 UNL     1       8.682  -2.322  33.469  1.00  0.00     0.316 HD
BRANCH  19  21
HETATM   21  C19 UNL     1      10.651  -2.549  32.962  1.00  0.00     0.295 C 
BRANCH  21  22
HETATM   22  C20 UNL     1      11.547  -2.263  31.748  1.00  0.00     0.194 C 
BRANCH  22  23
HETATM   23  O1  UNL     1      12.679  -1.483  32.124  1.00  0.00    -0.399 OA
HETATM   24  H20 UNL     1      13.151  -1.967  32.823  1.00  0.00     0.209 HD
ENDBRANCH  22  23
ENDBRANCH  21  22
ENDBRANCH  19  21
ENDBRANCH  18  19
ENDBRANCH  16  18
ENDBRANCH  11  12
BRANCH   9  25
HETATM   25  C6  UNL     1       3.427  -8.349  27.116  1.00  0.00    -0.024 A 
HETATM   26  C7  UNL     1       3.531  -8.556  25.736  1.00  0.00     0.012 A 
HETATM   27  C8  UNL     1       2.439  -9.040  25.013  1.00  0.00     0.001 A 
HETATM   28  C9  UNL     1       1.239  -9.322  25.665  1.00  0.00     0.000 A 
HETATM   29  C10 UNL     1       1.130  -9.123  27.041  1.00  0.00     0.001 A 
HETATM   30  C11 UNL     1       2.221  -8.638  27.766  1.00  0.00     0.012 A 
ENDBRANCH   9  25
BRANCH   1  31
HETATM   31  N1  UNL     1       5.988 -10.546  26.892  1.00  0.00    -0.288 NA
HETATM   32  H1  UNL     1       6.717 -11.129  26.497  1.00  0.00     0.125 HD
HETATM   33  H2  UNL     1       5.264 -10.232  26.258  1.00  0.00     0.125 HD
ENDBRANCH   1  31
TORSDOF 8
ENDMDL
MODEL 9
REMARK minimizedAffinity -7.97859049
REMARK  8 active torsions:
REMARK  status: ('A' for Active; 'I' for Inactive)
REMARK    1  A    between atoms: N1_1  and  C1_2 
REMARK    2  A    between atoms: C5_10  and  C6_11 
REMARK    3  A    between atoms: N4_18  and  C13_19 
REMARK    4  A    between atoms: C17_23  and  C18_24 
REMARK    5  A    between atoms: C18_24  and  N5_25 
REMARK    6  A    between atoms: N5_25  and  C19_26 
REMARK    7  A    between atoms: C19_26  and  C20_27 
REMARK    8  A    between atoms: C20_27  and  O1_28 
ROOT
HETATM    1  C1  UNL     1      10.352  -4.945  28.211  1.00  0.00     0.093 A 
HETATM    2  N2  UNL     1      10.572  -5.208  26.912  1.00  0.00    -0.343 N 
ATOM      3  H2  UNL     1      11.427  -4.895  26.451  1.00  0.00     0.167 HD
HETATM    4  C2  UNL     1       9.637  -5.894  26.238  1.00  0.00     0.183 A 
HETATM    5  N3  UNL     1       8.477  -6.375  26.699  1.00  0.00    -0.337 N 
ATOM      6  H3  UNL     1       7.816  -6.898  26.125  1.00  0.00     0.168 HD
HETATM    7  C3  UNL     1       8.271  -6.097  28.004  1.00  0.00     0.127 A 
HETATM    8  C4  UNL     1       9.163  -5.395  28.815  1.00  0.00     0.059 A 
HETATM    9  C5  UNL     1       8.592  -5.340  30.115  1.00  0.00     0.007 A 
HETATM   10  C12 UNL     1       7.390  -6.013  30.061  1.00  0.00     0.112 A 
HETATM   11  N4  UNL     1       7.168  -6.481  28.774  1.00  0.00    -0.307 N 
ENDROOT
BRANCH  11  12
HETATM   12  C13 UNL     1       6.004  -7.217  28.358  1.00  0.00     0.041 A 
HETATM   13  C14 UNL     1       6.110  -8.510  27.829  1.00  0.00     0.030 A 
HETATM   14  C15 UNL     1       4.972  -9.209  27.415  1.00  0.00     0.003 A 
HETATM   15  C16 UNL     1       3.711  -8.629  27.526  1.00  0.00     0.009 A 
HETATM   16  C17 UNL     1       3.573  -7.342  28.057  1.00  0.00    -0.028 A 
HETATM   17  C21 UNL     1       4.724  -6.644  28.467  1.00  0.00     0.039 A 
BRANCH  16  18
HETATM   18  C18 UNL     1       2.204  -6.713  28.181  1.00  0.00     0.308 C 
BRANCH  18  19
HETATM   19  N5  UNL     1       1.123  -7.551  27.652  1.00  0.00     0.089 N 
HETATM   20  H15 UNL     1       0.232  -7.111  27.878  1.00  0.00     0.316 HD
BRANCH  19  21
HETATM   21  C19 UNL     1       1.201  -7.781  26.205  1.00  0.00     0.295 C 
BRANCH  21  22
HETATM   22  C20 UNL     1      -0.112  -8.224  25.543  1.00  0.00     0.194 C 
BRANCH  22  23
HETATM   23  O1  UNL     1      -0.410  -7.411  24.412  1.00  0.00    -0.399 OA
HETATM   24  H20 UNL     1       0.346  -7.466  23.802  1.00  0.00     0.209 HD
ENDBRANCH  22  23
ENDBRANCH  21  22
ENDBRANCH  19  21
ENDBRANCH  18  19
ENDBRANCH  16  18
ENDBRANCH  11  12
BRANCH   9  25
HETATM   25  C6  UNL     1       9.072  -4.712  31.332  1.00  0.00    -0.024 A 
HETATM   26  C7  UNL     1       9.630  -5.490  32.353  1.00  0.00     0.012 A 
HETATM   27  C8  UNL     1      10.082  -4.888  33.529  1.00  0.00     0.001 A 
HETATM   28  C9  UNL     1       9.981  -3.506  33.690  1.00  0.00     0.000 A 
HETATM   29  C10 UNL     1       9.431  -2.724  32.675  1.00  0.00     0.001 A 
HETATM   30  C11 UNL     1       8.977  -3.324  31.498  1.00  0.00     0.012 A 
ENDBRANCH   9  25
BRANCH   1  31
HETATM   31  N1  UNL     1      11.353  -4.254  28.878  1.00  0.00    -0.288 NA
HETATM   32  H1  UNL     1      12.225  -4.290  28.364  1.00  0.00     0.125 HD
HETATM   33  H2  UNL     1      11.406  -4.422  29.875  1.00  0.00     0.125 HD
ENDBRANCH   1  31
TORSDOF 8
ENDMDL
