MODEL 1
REMARK minimizedAffinity -10.5361052
REMARK CNNscore 0.84529084
REMARK CNNaffinity 7.52105188
REMARK  3 active torsions:
REMARK  status: ('A' for Active; 'I' for Inactive)
REMARK    1  A    between atoms: C3_5  and  C4_6 
REMARK    2  A    between atoms: C13_19  and  N3_20 
REMARK    3  A    between atoms: N3_20  and  C14_21 
ROOT
HETATM    1  C1  UNL     1       8.322  -7.207  29.359  1.00  0.00     0.161 C 
HETATM    2  N1  UNL     1       8.094  -6.035  30.186  1.00  0.00    -0.303 N 
HETATM    3  C2  UNL     1       9.098  -5.569  31.018  1.00  0.00     0.260 A 
HETATM    4  O1  UNL     1      10.207  -6.096  31.110  1.00  0.00    -0.267 OA
HETATM    5  C3  UNL     1       8.794  -4.353  31.845  1.00  0.00     0.047 A 
HETATM    6  C10 UNL     1       7.594  -3.754  31.769  1.00  0.00     0.034 A 
HETATM    7  C11 UNL     1       6.582  -4.293  30.875  1.00  0.00     0.026 A 
HETATM    8  C12 UNL     1       5.329  -3.745  30.735  1.00  0.00     0.121 A 
HETATM    9  N2  UNL     1       4.387  -4.239  29.908  1.00  0.00    -0.201 N 
ATOM     10  H2  UNL     1       3.469  -3.803  29.832  1.00  0.00     0.183 HD
HETATM   11  C13 UNL     1       4.706  -5.328  29.190  1.00  0.00     0.684 A 
HETATM   12  N4  UNL     1       5.900  -5.927  29.263  1.00  0.00    -0.175 N 
ATOM     13  H4  UNL     1       6.107  -6.753  28.701  1.00  0.00     0.186 HD
HETATM   14  C20 UNL     1       6.824  -5.409  30.099  1.00  0.00     0.137 A 
ENDROOT
BRANCH  11  15
HETATM   15  N3  UNL     1       3.692  -5.790  28.356  1.00  0.00    -0.192 N 
HETATM   16  H9  UNL     1       3.202  -4.994  27.971  1.00  0.00     0.184 HD
BRANCH  15  17
HETATM   17  C14 UNL     1       3.246  -7.058  27.971  1.00  0.00     0.050 A 
HETATM   18  C15 UNL     1       4.096  -8.096  27.570  1.00  0.00     0.030 A 
HETATM   19  C16 UNL     1       3.592  -9.347  27.194  1.00  0.00     0.004 A 
HETATM   20  C17 UNL     1       2.220  -9.583  27.211  1.00  0.00     0.019 A 
HETATM   21  C18 UNL     1       1.362  -8.563  27.606  1.00  0.00     0.013 A 
HETATM   22 BR1  UNL     1      -0.505  -8.868  27.635  1.00  0.00    -0.051 Br
HETATM   23  C19 UNL     1       1.865  -7.315  27.982  1.00  0.00     0.049 A 
ENDBRANCH  15  17
ENDBRANCH  11  15
BRANCH   5  24
HETATM   24  C4  UNL     1       9.826  -3.811  32.750  1.00  0.00     0.023 A 
HETATM   25  C5  UNL     1      10.810  -2.925  32.276  1.00  0.00     0.046 A 
HETATM   26 CL1  UNL     1      10.846  -2.394  30.628  1.00  0.00    -0.083 Cl
HETATM   27  C6  UNL     1      11.797  -2.425  33.132  1.00  0.00     0.025 A 
HETATM   28  C7  UNL     1      11.821  -2.803  34.473  1.00  0.00     0.003 A 
HETATM   29  C8  UNL     1      10.854  -3.681  34.960  1.00  0.00     0.025 A 
HETATM   30  C9  UNL     1       9.865  -4.182  34.107  1.00  0.00     0.046 A 
HETATM   31 CL2  UNL     1       8.694  -5.258  34.795  1.00  0.00    -0.083 Cl
ENDBRANCH   5  24
TORSDOF 3
ENDMDL
MODEL 2
REMARK minimizedAffinity -10.5402393
REMARK CNNscore 0.840927899
REMARK CNNaffinity 7.50777769
REMARK  3 active torsions:
REMARK  status: ('A' for Active; 'I' for Inactive)
REMARK    1  A    between atoms: C3_5  and  C4_6 
REMARK    2  A    between atoms: C13_19  and  N3_20 
REMARK    3  A    between atoms: N3_20  and  C14_21 
ROOT
HETATM    1  C1  UNL     1       8.289  -7.229  29.362  1.00  0.00     0.161 C 
HETATM    2  N1  UNL     1       8.070  -6.053  30.185  1.00  0.00    -0.303 N 
HETATM    3  C2  UNL     1       9.081  -5.589  31.011  1.00  0.00     0.260 A 
HETATM    4  O1  UNL     1      10.188  -6.121  31.101  1.00  0.00    -0.267 OA
HETATM    5  C3  UNL     1       8.786  -4.368  31.834  1.00  0.00     0.047 A 
HETATM    6  C10 UNL     1       7.589  -3.763  31.761  1.00  0.00     0.034 A 
HETATM    7  C11 UNL     1       6.571  -4.300  30.874  1.00  0.00     0.026 A 
HETATM    8  C12 UNL     1       5.321  -3.746  30.736  1.00  0.00     0.121 A 
HETATM    9  N2  UNL     1       4.372  -4.238  29.916  1.00  0.00    -0.201 N 
ATOM     10  H2  UNL     1       3.456  -3.797  29.842  1.00  0.00     0.183 HD
HETATM   11  C13 UNL     1       4.682  -5.332  29.201  1.00  0.00     0.684 A 
HETATM   12  N4  UNL     1       5.874  -5.937  29.271  1.00  0.00    -0.175 N 
ATOM     13  H4  UNL     1       6.074  -6.766  28.711  1.00  0.00     0.186 HD
HETATM   14  C20 UNL     1       6.804  -5.421  30.101  1.00  0.00     0.137 A 
ENDROOT
BRANCH  11  15
HETATM   15  N3  UNL     1       3.663  -5.791  28.373  1.00  0.00    -0.192 N 
HETATM   16  H9  UNL     1       3.170  -4.995  27.993  1.00  0.00     0.184 HD
BRANCH  15  17
HETATM   17  C14 UNL     1       3.213  -7.058  27.988  1.00  0.00     0.050 A 
HETATM   18  C15 UNL     1       4.062  -8.106  27.610  1.00  0.00     0.030 A 
HETATM   19  C16 UNL     1       3.554  -9.356  27.234  1.00  0.00     0.004 A 
HETATM   20  C17 UNL     1       2.181  -9.580  27.227  1.00  0.00     0.019 A 
HETATM   21  C18 UNL     1       1.324  -8.551  27.600  1.00  0.00     0.013 A 
HETATM   22 BR1  UNL     1      -0.545  -8.842  27.597  1.00  0.00    -0.051 Br
HETATM   23  C19 UNL     1       1.830  -7.304  27.976  1.00  0.00     0.049 A 
ENDBRANCH  15  17
ENDBRANCH  11  15
BRANCH   5  24
HETATM   24  C4  UNL     1       9.825  -3.828  32.733  1.00  0.00     0.023 A 
HETATM   25  C5  UNL     1       9.849  -4.169  34.098  1.00  0.00     0.046 A 
HETATM   26 CL1  UNL     1       8.694  -5.259  34.788  1.00  0.00    -0.083 Cl
HETATM   27  C6  UNL     1      10.826  -3.643  34.951  1.00  0.00     0.025 A 
HETATM   28  C7  UNL     1      11.791  -2.768  34.458  1.00  0.00     0.003 A 
HETATM   29  C8  UNL     1      11.783  -2.419  33.109  1.00  0.00     0.025 A 
HETATM   30  C9  UNL     1      10.808  -2.943  32.253  1.00  0.00     0.046 A 
HETATM   31 CL2  UNL     1      10.877  -2.468  30.588  1.00  0.00    -0.083 Cl
ENDBRANCH   5  24
TORSDOF 3
ENDMDL
MODEL 3
REMARK minimizedAffinity -6.60011578
REMARK CNNscore 0.674629867
REMARK CNNaffinity 6.49831724
REMARK  3 active torsions:
REMARK  status: ('A' for Active; 'I' for Inactive)
REMARK    1  A    between atoms: C3_5  and  C4_6 
REMARK    2  A    between atoms: C13_19  and  N3_20 
REMARK    3  A    between atoms: N3_20  and  C14_21 
ROOT
HETATM    1  C1  UNL     1       2.841   6.432  47.269  1.00  0.00     0.161 C 
HETATM    2  N1  UNL     1       3.660   5.322  47.724  1.00  0.00    -0.303 N 
HETATM    3  C2  UNL     1       3.338   4.661  48.898  1.00  0.00     0.260 A 
HETATM    4  O1  UNL     1       2.376   4.956  49.606  1.00  0.00    -0.267 OA
HETATM    5  C3  UNL     1       4.229   3.523  49.308  1.00  0.00     0.047 A 
HETATM    6  C10 UNL     1       5.287   3.174  48.559  1.00  0.00     0.034 A 
HETATM    7  C11 UNL     1       5.570   3.909  47.337  1.00  0.00     0.026 A 
HETATM    8  C12 UNL     1       6.630   3.622  46.511  1.00  0.00     0.121 A 
HETATM    9  N2  UNL     1       6.899   4.298  45.378  1.00  0.00    -0.201 N 
ATOM     10  H2  UNL     1       7.695   4.053  44.791  1.00  0.00     0.183 HD
HETATM   11  C13 UNL     1       6.075   5.308  45.052  1.00  0.00     0.684 A 
HETATM   12  N4  UNL     1       5.019   5.658  45.796  1.00  0.00    -0.175 N 
ATOM     13  H4  UNL     1       4.414   6.430  45.517  1.00  0.00     0.186 HD
HETATM   14  C20 UNL     1       4.775   4.961  46.926  1.00  0.00     0.137 A 
ENDROOT
BRANCH  11  15
HETATM   15  N3  UNL     1       6.404   5.967  43.873  1.00  0.00    -0.192 N 
HETATM   16  H9  UNL     1       7.344   6.328  43.955  1.00  0.00     0.184 HD
BRANCH  15  17
HETATM   17  C14 UNL     1       5.732   6.214  42.671  1.00  0.00     0.050 A 
HETATM   18  C15 UNL     1       6.246   7.004  41.636  1.00  0.00     0.030 A 
HETATM   19  C16 UNL     1       5.527   7.217  40.454  1.00  0.00     0.004 A 
HETATM   20  C17 UNL     1       4.272   6.640  40.285  1.00  0.00     0.019 A 
HETATM   21  C18 UNL     1       3.745   5.852  41.303  1.00  0.00     0.013 A 
HETATM   22 BR1  UNL     1       2.041   5.061  41.087  1.00  0.00    -0.051 Br
HETATM   23  C19 UNL     1       4.463   5.640  42.482  1.00  0.00     0.049 A 
ENDBRANCH  15  17
ENDBRANCH  11  15
BRANCH   5  24
HETATM   24  C4  UNL     1       3.935   2.781  50.550  1.00  0.00     0.023 A 
HETATM   25  C5  UNL     1       3.178   1.595  50.522  1.00  0.00     0.046 A 
HETATM   26 CL1  UNL     1       2.584   0.924  49.039  1.00  0.00    -0.083 Cl
HETATM   27  C6  UNL     1       2.888   0.901  51.702  1.00  0.00     0.025 A 
HETATM   28  C7  UNL     1       3.343   1.381  52.928  1.00  0.00     0.003 A 
HETATM   29  C8  UNL     1       4.094   2.554  52.976  1.00  0.00     0.025 A 
HETATM   30  C9  UNL     1       4.387   3.250  51.797  1.00  0.00     0.046 A 
HETATM   31 CL2  UNL     1       5.336   4.692  51.943  1.00  0.00    -0.083 Cl
ENDBRANCH   5  24
TORSDOF 3
ENDMDL
MODEL 4
REMARK minimizedAffinity -7.03980446
REMARK CNNscore 0.521651387
REMARK CNNaffinity 6.44880104
REMARK  3 active torsions:
REMARK  status: ('A' for Active; 'I' for Inactive)
REMARK    1  A    between atoms: C3_5  and  C4_6 
REMARK    2  A    between atoms: C13_19  and  N3_20 
REMARK    3  A    between atoms: N3_20  and  C14_21 
ROOT
HETATM    1  C1  UNL     1       3.499   6.908  47.160  1.00  0.00     0.161 C 
HETATM    2  N1  UNL     1       4.481   6.340  46.254  1.00  0.00    -0.303 N 
HETATM    3  C2  UNL     1       4.654   6.885  44.992  1.00  0.00     0.260 A 
HETATM    4  O1  UNL     1       4.013   7.847  44.570  1.00  0.00    -0.267 OA
HETATM    5  C3  UNL     1       5.688   6.248  44.107  1.00  0.00     0.047 A 
HETATM    6  C10 UNL     1       6.405   5.197  44.537  1.00  0.00     0.034 A 
HETATM    7  C11 UNL     1       6.175   4.672  45.872  1.00  0.00     0.026 A 
HETATM    8  C12 UNL     1       6.861   3.601  46.393  1.00  0.00     0.121 A 
HETATM    9  N2  UNL     1       6.654   3.110  47.629  1.00  0.00    -0.201 N 
ATOM     10  H2  UNL     1       7.185   2.314  47.979  1.00  0.00     0.183 HD
HETATM   11  C13 UNL     1       5.719   3.712  48.383  1.00  0.00     0.684 A 
HETATM   12  N4  UNL     1       5.003   4.761  47.959  1.00  0.00    -0.175 N 
ATOM     13  H4  UNL     1       4.301   5.193  48.560  1.00  0.00     0.186 HD
HETATM   14  C20 UNL     1       5.234   5.230  46.716  1.00  0.00     0.137 A 
ENDROOT
BRANCH  11  15
HETATM   15  N3  UNL     1       5.551   3.161  49.649  1.00  0.00    -0.192 N 
HETATM   16  H9  UNL     1       6.343   3.417  50.222  1.00  0.00     0.184 HD
BRANCH  15  17
HETATM   17  C14 UNL     1       4.564   2.371  50.247  1.00  0.00     0.050 A 
HETATM   18  C15 UNL     1       3.386   1.973  49.605  1.00  0.00     0.030 A 
HETATM   19  C16 UNL     1       2.432   1.181  50.254  1.00  0.00     0.004 A 
HETATM   20  C17 UNL     1       2.641   0.770  51.567  1.00  0.00     0.019 A 
HETATM   21  C18 UNL     1       3.806   1.155  52.221  1.00  0.00     0.013 A 
HETATM   22 BR1  UNL     1       4.104   0.604  54.006  1.00  0.00    -0.051 Br
HETATM   23  C19 UNL     1       4.758   1.946  51.573  1.00  0.00     0.049 A 
ENDBRANCH  15  17
ENDBRANCH  11  15
BRANCH   5  24
HETATM   24  C4  UNL     1       5.916   6.785  42.752  1.00  0.00     0.023 A 
HETATM   25  C5  UNL     1       5.224   6.267  41.643  1.00  0.00     0.046 A 
HETATM   26 CL1  UNL     1       4.048   5.006  41.806  1.00  0.00    -0.083 Cl
HETATM   27  C6  UNL     1       5.454   6.768  40.356  1.00  0.00     0.025 A 
HETATM   28  C7  UNL     1       6.379   7.790  40.156  1.00  0.00     0.003 A 
HETATM   29  C8  UNL     1       7.075   8.315  41.243  1.00  0.00     0.025 A 
HETATM   30  C9  UNL     1       6.847   7.817  42.531  1.00  0.00     0.046 A 
HETATM   31 CL2  UNL     1       7.744   8.534  43.828  1.00  0.00    -0.083 Cl
ENDBRANCH   5  24
TORSDOF 3
ENDMDL
MODEL 5
REMARK minimizedAffinity -6.78196287
REMARK CNNscore 0.46691367
REMARK CNNaffinity 6.45316696
REMARK  3 active torsions:
REMARK  status: ('A' for Active; 'I' for Inactive)
REMARK    1  A    between atoms: C3_5  and  C4_6 
REMARK    2  A    between atoms: C13_19  and  N3_20 
REMARK    3  A    between atoms: N3_20  and  C14_21 
ROOT
HETATM    1  C1  UNL     1       3.653   7.033  47.239  1.00  0.00     0.161 C 
HETATM    2  N1  UNL     1       4.586   6.412  46.315  1.00  0.00    -0.303 N 
HETATM    3  C2  UNL     1       4.742   6.928  45.039  1.00  0.00     0.260 A 
HETATM    4  O1  UNL     1       4.125   7.906  44.618  1.00  0.00    -0.267 OA
HETATM    5  C3  UNL     1       5.724   6.236  44.136  1.00  0.00     0.047 A 
HETATM    6  C10 UNL     1       6.412   5.165  44.564  1.00  0.00     0.034 A 
HETATM    7  C11 UNL     1       6.203   4.674  45.915  1.00  0.00     0.026 A 
HETATM    8  C12 UNL     1       6.863   3.586  46.435  1.00  0.00     0.121 A 
HETATM    9  N2  UNL     1       6.674   3.126  47.686  1.00  0.00    -0.201 N 
ATOM     10  H2  UNL     1       7.185   2.315  48.036  1.00  0.00     0.183 HD
HETATM   11  C13 UNL     1       5.786   3.776  48.456  1.00  0.00     0.684 A 
HETATM   12  N4  UNL     1       5.098   4.844  48.034  1.00  0.00    -0.175 N 
ATOM     13  H4  UNL     1       4.432   5.314  48.647  1.00  0.00     0.186 HD
HETATM   14  C20 UNL     1       5.309   5.282  46.775  1.00  0.00     0.137 A 
ENDROOT
BRANCH  11  15
HETATM   15  N3  UNL     1       5.635   3.254  49.736  1.00  0.00    -0.192 N 
HETATM   16  H9  UNL     1       6.489   3.413  50.253  1.00  0.00     0.184 HD
BRANCH  15  17
HETATM   17  C14 UNL     1       4.600   2.594  50.406  1.00  0.00     0.050 A 
HETATM   18  C15 UNL     1       4.804   1.608  51.380  1.00  0.00     0.030 A 
HETATM   19  C16 UNL     1       3.728   0.981  52.019  1.00  0.00     0.004 A 
HETATM   20  C17 UNL     1       2.421   1.329  51.692  1.00  0.00     0.019 A 
HETATM   21  C18 UNL     1       2.199   2.305  50.727  1.00  0.00     0.013 A 
HETATM   22 BR1  UNL     1       0.428   2.789  50.273  1.00  0.00    -0.051 Br
HETATM   23  C19 UNL     1       3.274   2.932  50.090  1.00  0.00     0.049 A 
ENDBRANCH  15  17
ENDBRANCH  11  15
BRANCH   5  24
HETATM   24  C4  UNL     1       5.932   6.740  42.765  1.00  0.00     0.023 A 
HETATM   25  C5  UNL     1       6.854   7.770  42.506  1.00  0.00     0.046 A 
HETATM   26 CL1  UNL     1       7.816   8.474  43.763  1.00  0.00    -0.083 Cl
HETATM   27  C6  UNL     1       7.038   8.258  41.207  1.00  0.00     0.025 A 
HETATM   28  C7  UNL     1       6.304   7.729  40.148  1.00  0.00     0.003 A 
HETATM   29  C8  UNL     1       5.385   6.709  40.386  1.00  0.00     0.025 A 
HETATM   30  C9  UNL     1       5.199   6.218  41.684  1.00  0.00     0.046 A 
HETATM   31 CL2  UNL     1       4.046   4.941  41.891  1.00  0.00    -0.083 Cl
ENDBRANCH   5  24
TORSDOF 3
ENDMDL
MODEL 6
REMARK minimizedAffinity -8.946105
REMARK CNNscore 0.351894021
REMARK CNNaffinity 7.03642654
REMARK  3 active torsions:
REMARK  status: ('A' for Active; 'I' for Inactive)
REMARK    1  A    between atoms: C3_5  and  C4_6 
REMARK    2  A    between atoms: C13_19  and  N3_20 
REMARK    3  A    between atoms: N3_20  and  C14_21 
ROOT
HETATM    1  C1  UNL     1       9.684  -6.573  28.339  1.00  0.00     0.161 C 
HETATM    2  N1  UNL     1       9.087  -5.847  29.446  1.00  0.00    -0.303 N 
HETATM    3  C2  UNL     1       9.896  -5.277  30.416  1.00  0.00     0.260 A 
HETATM    4  O1  UNL     1      11.125  -5.345  30.405  1.00  0.00    -0.267 OA
HETATM    5  C3  UNL     1       9.211  -4.541  31.532  1.00  0.00     0.047 A 
HETATM    6  C10 UNL     1       7.872  -4.449  31.574  1.00  0.00     0.034 A 
HETATM    7  C11 UNL     1       7.081  -5.069  30.525  1.00  0.00     0.026 A 
HETATM    8  C12 UNL     1       5.707  -5.025  30.489  1.00  0.00     0.121 A 
HETATM    9  N2  UNL     1       4.967  -5.598  29.520  1.00  0.00    -0.201 N 
ATOM     10  H2  UNL     1       3.949  -5.542  29.528  1.00  0.00     0.183 HD
HETATM   11  C13 UNL     1       5.623  -6.245  28.544  1.00  0.00     0.684 A 
HETATM   12  N4  UNL     1       6.958  -6.339  28.498  1.00  0.00    -0.175 N 
ATOM     13  H4  UNL     1       7.422  -6.839  27.740  1.00  0.00     0.186 HD
HETATM   14  C20 UNL     1       7.672  -5.755  29.482  1.00  0.00     0.137 A 
ENDROOT
BRANCH  11  15
HETATM   15  N3  UNL     1       4.805  -6.815  27.574  1.00  0.00    -0.192 N 
HETATM   16  H9  UNL     1       5.163  -6.566  26.662  1.00  0.00     0.184 HD
BRANCH  15  17
HETATM   17  C14 UNL     1       3.658  -7.613  27.609  1.00  0.00     0.050 A 
HETATM   18  C15 UNL     1       2.399  -7.155  28.017  1.00  0.00     0.030 A 
HETATM   19  C16 UNL     1       1.284  -8.001  28.032  1.00  0.00     0.004 A 
HETATM   20  C17 UNL     1       1.408  -9.329  27.638  1.00  0.00     0.019 A 
HETATM   21  C18 UNL     1       2.651  -9.803  27.230  1.00  0.00     0.013 A 
HETATM   22 BR1  UNL     1       2.835 -11.606  26.692  1.00  0.00    -0.051 Br
HETATM   23  C19 UNL     1       3.763  -8.958  27.215  1.00  0.00     0.049 A 
ENDBRANCH  15  17
ENDBRANCH  11  15
BRANCH   5  24
HETATM   24  C4  UNL     1      10.022  -3.913  32.593  1.00  0.00     0.023 A 
HETATM   25  C5  UNL     1      10.074  -4.465  33.886  1.00  0.00     0.046 A 
HETATM   26 CL1  UNL     1       9.226  -5.919  34.294  1.00  0.00    -0.083 Cl
HETATM   27  C6  UNL     1      10.830  -3.859  34.895  1.00  0.00     0.025 A 
HETATM   28  C7  UNL     1      11.544  -2.692  34.633  1.00  0.00     0.003 A 
HETATM   29  C8  UNL     1      11.505  -2.130  33.358  1.00  0.00     0.025 A 
HETATM   30  C9  UNL     1      10.750  -2.734  32.346  1.00  0.00     0.046 A 
HETATM   31 CL2  UNL     1      10.764  -1.979  30.787  1.00  0.00    -0.083 Cl
ENDBRANCH   5  24
TORSDOF 3
ENDMDL
MODEL 7
REMARK minimizedAffinity -8.99783516
REMARK CNNscore 0.294447064
REMARK CNNaffinity 6.88089132
REMARK  3 active torsions:
REMARK  status: ('A' for Active; 'I' for Inactive)
REMARK    1  A    between atoms: C3_5  and  C4_6 
REMARK    2  A    between atoms: C13_19  and  N3_20 
REMARK    3  A    between atoms: N3_20  and  C14_21 
ROOT
HETATM    1  C1  UNL     1       9.684  -7.771  29.262  1.00  0.00     0.161 C 
HETATM    2  N1  UNL     1       9.176  -6.633  30.007  1.00  0.00    -0.303 N 
HETATM    3  C2  UNL     1       9.947  -6.059  31.004  1.00  0.00     0.260 A 
HETATM    4  O1  UNL     1      11.070  -6.458  31.314  1.00  0.00    -0.267 OA
HETATM    5  C3  UNL     1       9.359  -4.885  31.734  1.00  0.00     0.047 A 
HETATM    6  C10 UNL     1       8.137  -4.424  31.422  1.00  0.00     0.034 A 
HETATM    7  C11 UNL     1       7.378  -5.072  30.365  1.00  0.00     0.026 A 
HETATM    8  C12 UNL     1       6.122  -4.668  29.980  1.00  0.00     0.121 A 
HETATM    9  N2  UNL     1       5.413  -5.263  29.002  1.00  0.00    -0.201 N 
ATOM     10  H2  UNL     1       4.484  -4.933  28.745  1.00  0.00     0.183 HD
HETATM   11  C13 UNL     1       5.980  -6.309  28.378  1.00  0.00     0.684 A 
HETATM   12  N4  UNL     1       7.198  -6.771  28.686  1.00  0.00    -0.175 N 
ATOM     13  H4  UNL     1       7.597  -7.567  28.190  1.00  0.00     0.186 HD
HETATM   14  C20 UNL     1       7.884  -6.154  29.670  1.00  0.00     0.137 A 
ENDROOT
BRANCH  11  15
HETATM   15  N3  UNL     1       5.200  -6.880  27.378  1.00  0.00    -0.192 N 
HETATM   16  H9  UNL     1       4.955  -6.163  26.710  1.00  0.00     0.184 HD
BRANCH  15  17
HETATM   17  C14 UNL     1       4.719  -8.170  27.131  1.00  0.00     0.050 A 
HETATM   18  C15 UNL     1       3.454  -8.621  27.527  1.00  0.00     0.030 A 
HETATM   19  C16 UNL     1       3.025  -9.925  27.252  1.00  0.00     0.004 A 
HETATM   20  C17 UNL     1       3.860 -10.807  26.573  1.00  0.00     0.019 A 
HETATM   21  C18 UNL     1       5.120 -10.377  26.172  1.00  0.00     0.013 A 
HETATM   22 BR1  UNL     1       6.266 -11.565  25.248  1.00  0.00    -0.051 Br
HETATM   23  C19 UNL     1       5.547  -9.075  26.446  1.00  0.00     0.049 A 
ENDBRANCH  15  17
ENDBRANCH  11  15
BRANCH   5  24
HETATM   24  C4  UNL     1      10.135  -4.232  32.806  1.00  0.00     0.023 A 
HETATM   25  C5  UNL     1       9.846  -4.478  34.161  1.00  0.00     0.046 A 
HETATM   26 CL1  UNL     1       8.598  -5.577  34.644  1.00  0.00    -0.083 Cl
HETATM   27  C6  UNL     1      10.573  -3.846  35.176  1.00  0.00     0.025 A 
HETATM   28  C7  UNL     1      11.597  -2.957  34.856  1.00  0.00     0.003 A 
HETATM   29  C8  UNL     1      11.898  -2.700  33.520  1.00  0.00     0.025 A 
HETATM   30  C9  UNL     1      11.173  -3.332  32.502  1.00  0.00     0.046 A 
HETATM   31 CL2  UNL     1      11.619  -2.967  30.868  1.00  0.00    -0.083 Cl
ENDBRANCH   5  24
TORSDOF 3
ENDMDL
MODEL 8
REMARK minimizedAffinity -6.54952812
REMARK CNNscore 0.274910718
REMARK CNNaffinity 5.39283562
REMARK  3 active torsions:
REMARK  status: ('A' for Active; 'I' for Inactive)
REMARK    1  A    between atoms: C3_5  and  C4_6 
REMARK    2  A    between atoms: C13_19  and  N3_20 
REMARK    3  A    between atoms: N3_20  and  C14_21 
ROOT
HETATM    1  C1  UNL     1       3.746 -15.578  41.869  1.00  0.00     0.161 C 
HETATM    2  N1  UNL     1       3.437 -14.830  43.074  1.00  0.00    -0.303 N 
HETATM    3  C2  UNL     1       4.461 -14.385  43.894  1.00  0.00     0.260 A 
HETATM    4  O1  UNL     1       5.654 -14.588  43.667  1.00  0.00    -0.267 OA
HETATM    5  C3  UNL     1       4.069 -13.617  45.124  1.00  0.00     0.047 A 
HETATM    6  C10 UNL     1       2.776 -13.379  45.402  1.00  0.00     0.034 A 
HETATM    7  C11 UNL     1       1.749 -13.872  44.500  1.00  0.00     0.026 A 
HETATM    8  C12 UNL     1       0.405 -13.676  44.705  1.00  0.00     0.121 A 
HETATM    9  N2  UNL     1      -0.553 -14.130  43.874  1.00  0.00    -0.201 N 
ATOM     10  H2  UNL     1      -1.541 -13.962  44.061  1.00  0.00     0.183 HD
HETATM   11  C13 UNL     1      -0.153 -14.812  42.788  1.00  0.00     0.684 A 
HETATM   12  N4  UNL     1       1.133 -15.051  42.507  1.00  0.00    -0.175 N 
ATOM     13  H4  UNL     1       1.400 -15.572  41.672  1.00  0.00     0.186 HD
HETATM   14  C20 UNL     1       2.070 -14.583  43.359  1.00  0.00     0.137 A 
ENDROOT
BRANCH  11  15
HETATM   15  N3  UNL     1      -1.187 -15.255  41.969  1.00  0.00    -0.192 N 
HETATM   16  H9  UNL     1      -0.880 -16.085  41.481  1.00  0.00     0.184 HD
BRANCH  15  17
HETATM   17  C14 UNL     1      -2.484 -14.805  41.703  1.00  0.00     0.050 A 
HETATM   18  C15 UNL     1      -2.818 -13.462  41.491  1.00  0.00     0.030 A 
HETATM   19  C16 UNL     1      -4.136 -13.070  41.229  1.00  0.00     0.004 A 
HETATM   20  C17 UNL     1      -5.151 -14.021  41.176  1.00  0.00     0.019 A 
HETATM   21  C18 UNL     1      -4.838 -15.360  41.384  1.00  0.00     0.013 A 
HETATM   22 BR1  UNL     1      -6.207 -16.663  41.314  1.00  0.00    -0.051 Br
HETATM   23  C19 UNL     1      -3.522 -15.750  41.645  1.00  0.00     0.049 A 
ENDBRANCH  15  17
ENDBRANCH  11  15
BRANCH   5  24
HETATM   24  C4  UNL     1       5.117 -13.118  46.035  1.00  0.00     0.023 A 
HETATM   25  C5  UNL     1       5.733 -13.975  46.966  1.00  0.00     0.046 A 
HETATM   26 CL1  UNL     1       5.327 -15.655  47.070  1.00  0.00    -0.083 Cl
HETATM   27  C6  UNL     1       6.715 -13.497  47.840  1.00  0.00     0.025 A 
HETATM   28  C7  UNL     1       7.097 -12.157  47.802  1.00  0.00     0.003 A 
HETATM   29  C8  UNL     1       6.497 -11.294  46.888  1.00  0.00     0.025 A 
HETATM   30  C9  UNL     1       5.515 -11.769  46.011  1.00  0.00     0.046 A 
HETATM   31 CL2  UNL     1       4.829 -10.633  44.897  1.00  0.00    -0.083 Cl
ENDBRANCH   5  24
TORSDOF 3
ENDMDL
MODEL 9
REMARK minimizedAffinity -7.27733231
REMARK CNNscore 0.248499766
REMARK CNNaffinity 5.96281576
REMARK  3 active torsions:
REMARK  status: ('A' for Active; 'I' for Inactive)
REMARK    1  A    between atoms: C3_5  and  C4_6 
REMARK    2  A    between atoms: C13_19  and  N3_20 
REMARK    3  A    between atoms: N3_20  and  C14_21 
ROOT
HETATM    1  C1  UNL     1      10.074 -11.360  27.515  1.00  0.00     0.161 C 
HETATM    2  N1  UNL     1      10.980 -10.621  28.376  1.00  0.00    -0.303 N 
HETATM    3  C2  UNL     1      12.072 -11.260  28.941  1.00  0.00     0.260 A 
HETATM    4  O1  UNL     1      12.337 -12.448  28.760  1.00  0.00    -0.267 OA
HETATM    5  C3  UNL     1      12.968 -10.435  29.820  1.00  0.00     0.047 A 
HETATM    6  C10 UNL     1      12.708  -9.135  30.039  1.00  0.00     0.034 A 
HETATM    7  C11 UNL     1      11.546  -8.525  29.416  1.00  0.00     0.026 A 
HETATM    8  C12 UNL     1      11.204  -7.205  29.585  1.00  0.00     0.121 A 
HETATM    9  N2  UNL     1      10.128  -6.632  29.011  1.00  0.00    -0.201 N 
ATOM     10  H2  UNL     1       9.909  -5.647  29.160  1.00  0.00     0.183 HD
HETATM   11  C13 UNL     1       9.357  -7.409  28.234  1.00  0.00     0.684 A 
HETATM   12  N4  UNL     1       9.613  -8.704  28.013  1.00  0.00    -0.175 N 
ATOM     13  H4  UNL     1       9.005  -9.264  27.415  1.00  0.00     0.186 HD
HETATM   14  C20 UNL     1      10.698  -9.250  28.601  1.00  0.00     0.137 A 
ENDROOT
BRANCH  11  15
HETATM   15  N3  UNL     1       8.263  -6.762  27.670  1.00  0.00    -0.192 N 
HETATM   16  H9  UNL     1       8.533  -6.395  26.768  1.00  0.00     0.184 HD
BRANCH  15  17
HETATM   17  C14 UNL     1       6.945  -6.532  28.079  1.00  0.00     0.050 A 
HETATM   18  C15 UNL     1       5.856  -7.316  27.680  1.00  0.00     0.030 A 
HETATM   19  C16 UNL     1       4.557  -7.038  28.123  1.00  0.00     0.004 A 
HETATM   20  C17 UNL     1       4.323  -5.964  28.976  1.00  0.00     0.019 A 
HETATM   21  C18 UNL     1       5.393  -5.175  29.382  1.00  0.00     0.013 A 
HETATM   22 BR1  UNL     1       5.091  -3.712  30.543  1.00  0.00    -0.051 Br
HETATM   23  C19 UNL     1       6.689  -5.453  28.941  1.00  0.00     0.049 A 
ENDBRANCH  15  17
ENDBRANCH  11  15
BRANCH   5  24
HETATM   24  C4  UNL     1      14.147 -11.061  30.449  1.00  0.00     0.023 A 
HETATM   25  C5  UNL     1      14.130 -11.433  31.806  1.00  0.00     0.046 A 
HETATM   26 CL1  UNL     1      12.728 -11.213  32.798  1.00  0.00    -0.083 Cl
HETATM   27  C6  UNL     1      15.255 -12.013  32.404  1.00  0.00     0.025 A 
HETATM   28  C7  UNL     1      16.413 -12.227  31.661  1.00  0.00     0.003 A 
HETATM   29  C8  UNL     1      16.448 -11.865  30.316  1.00  0.00     0.025 A 
HETATM   30  C9  UNL     1      15.325 -11.286  29.714  1.00  0.00     0.046 A 
HETATM   31 CL2  UNL     1      15.448 -10.876  28.035  1.00  0.00    -0.083 Cl
ENDBRANCH   5  24
TORSDOF 3
ENDMDL
