MODEL 1
REMARK minimizedAffinity -6.70359898
REMARK CNNscore 0.470168531
REMARK CNNaffinity 6.18219137
REMARK  5 active torsions:
REMARK  status: ('A' for Active; 'I' for Inactive)
REMARK    1  A    between atoms: C3_4  and  N1_5 
REMARK    2  A    between atoms: N1_5  and  C4_6 
REMARK    3  A    between atoms: C15_24  and  O1_25 
REMARK    4  A    between atoms: O1_25  and  C16_26 
REMARK    5  A    between atoms: C16_26  and  C17_27 
ROOT
HETATM    1  N1  UNL     1      12.166  57.409   0.775  1.00  0.00    -0.342 N 
HETATM    2  H2  UNL     1      11.184  57.471   0.998  1.00  0.00     0.167 HD
ENDROOT
BRANCH   1   3
HETATM    3  C3  UNL     1      12.463  56.546  -0.294  1.00  0.00     0.035 A 
HETATM    4  C2  UNL     1      13.696  55.910  -0.456  1.00  0.00     0.056 A 
HETATM    5  C1  UNL     1      13.927  55.045  -1.533  1.00  0.00     0.069 A 
HETATM    6 CL1  UNL     1      15.489  54.305  -1.653  1.00  0.00    -0.081 Cl
HETATM    7  C15 UNL     1      12.926  54.784  -2.478  1.00  0.00     0.091 A 
HETATM    8  C14 UNL     1      11.686  55.402  -2.316  1.00  0.00     0.041 A 
HETATM    9  C13 UNL     1      11.461  56.266  -1.234  1.00  0.00     0.032 A 
BRANCH   7  10
HETATM   10  O1  UNL     1      13.243  53.926  -3.498  1.00  0.00    -0.345 OA
BRANCH  10  11
HETATM   11  C16 UNL     1      12.284  52.940  -3.864  1.00  0.00     0.214 C 
BRANCH  11  12
HETATM   12  C17 UNL     1      12.557  51.694  -3.059  1.00  0.00    -0.034 A 
HETATM   13  C18 UNL     1      11.561  51.143  -2.241  1.00  0.00     0.009 A 
HETATM   14  C19 UNL     1      11.819  49.996  -1.487  1.00  0.00     0.001 A 
HETATM   15  C20 UNL     1      13.077  49.398  -1.534  1.00  0.00     0.000 A 
HETATM   16  C21 UNL     1      14.080  49.946  -2.332  1.00  0.00     0.001 A 
HETATM   17  C22 UNL     1      13.823  51.092  -3.088  1.00  0.00     0.009 A 
ENDBRANCH  11  12
ENDBRANCH  10  11
ENDBRANCH   7  10
ENDBRANCH   1   3
BRANCH   1  18
HETATM   18  C4  UNL     1      12.911  58.441   1.361  1.00  0.00     0.123 A 
HETATM   19  N2  UNL     1      12.953  59.701   0.835  1.00  0.00    -0.338 N 
HETATM   20  C5  UNL     1      13.625  60.702   1.481  1.00  0.00     0.183 A 
ATOM     21  H2  UNL     1      12.479  59.898  -0.048  1.00  0.00     0.168 HD
HETATM   22  N3  UNL     1      14.311  60.674   2.645  1.00  0.00    -0.337 N 
HETATM   23  C6  UNL     1      14.302  59.433   3.182  1.00  0.00     0.137 A 
ATOM     24  H3  UNL     1      14.773  61.482   3.063  1.00  0.00     0.168 HD
HETATM   25  N4  UNL     1      14.889  59.079   4.321  1.00  0.00    -0.278 N 
HETATM   26  C12 UNL     1      13.633  58.344   2.562  1.00  0.00     0.082 A 
HETATM   27  N5  UNL     1      14.637  57.754   4.443  1.00  0.00    -0.265 N 
ATOM     28  H4  UNL     1      15.413  59.674   4.963  1.00  0.00     0.189 HD
HETATM   29  C7  UNL     1      15.049  56.937   5.499  1.00  0.00     0.116 A 
HETATM   30  C11 UNL     1      13.891  57.252   3.359  1.00  0.00     0.073 A 
HETATM   31  C8  UNL     1      14.759  55.628   5.499  1.00  0.00     0.019 A 
HETATM   32  C9  UNL     1      14.035  55.077   4.369  1.00  0.00     0.004 A 
HETATM   33  C10 UNL     1      13.624  55.849   3.346  1.00  0.00     0.032 A 
ENDBRANCH   1  18
TORSDOF 5
ENDMDL
MODEL 2
REMARK minimizedAffinity -7.52988863
REMARK CNNscore 0.465717316
REMARK CNNaffinity 5.61896896
REMARK  5 active torsions:
REMARK  status: ('A' for Active; 'I' for Inactive)
REMARK    1  A    between atoms: C3_4  and  N1_5 
REMARK    2  A    between atoms: N1_5  and  C4_6 
REMARK    3  A    between atoms: C15_24  and  O1_25 
REMARK    4  A    between atoms: O1_25  and  C16_26 
REMARK    5  A    between atoms: C16_26  and  C17_27 
ROOT
HETATM    1  N1  UNL     1      16.365  51.506   5.587  1.00  0.00    -0.342 N 
HETATM    2  H2  UNL     1      15.541  50.926   5.576  1.00  0.00     0.167 HD
ENDROOT
BRANCH   1   3
HETATM    3  C3  UNL     1      16.134  52.846   5.228  1.00  0.00     0.035 A 
HETATM    4  C2  UNL     1      17.131  53.705   4.762  1.00  0.00     0.056 A 
HETATM    5  C1  UNL     1      16.837  55.027   4.402  1.00  0.00     0.069 A 
HETATM    6 CL1  UNL     1      18.139  56.019   3.838  1.00  0.00    -0.081 Cl
HETATM    7  C15 UNL     1      15.530  55.525   4.491  1.00  0.00     0.091 A 
HETATM    8  C14 UNL     1      14.524  54.669   4.941  1.00  0.00     0.041 A 
HETATM    9  C13 UNL     1      14.826  53.347   5.297  1.00  0.00     0.032 A 
BRANCH   7  10
HETATM   10  O1  UNL     1      15.336  56.829   4.119  1.00  0.00    -0.345 OA
BRANCH  10  11
HETATM   11  C16 UNL     1      13.998  57.307   4.030  1.00  0.00     0.214 C 
BRANCH  11  12
HETATM   12  C17 UNL     1      13.662  57.499   2.572  1.00  0.00    -0.034 A 
HETATM   13  C18 UNL     1      13.343  58.772   2.077  1.00  0.00     0.009 A 
HETATM   14  C19 UNL     1      13.020  58.945   0.729  1.00  0.00     0.001 A 
HETATM   15  C20 UNL     1      13.003  57.850  -0.132  1.00  0.00     0.000 A 
HETATM   16  C21 UNL     1      13.303  56.578   0.353  1.00  0.00     0.001 A 
HETATM   17  C22 UNL     1      13.627  56.402   1.699  1.00  0.00     0.009 A 
ENDBRANCH  11  12
ENDBRANCH  10  11
ENDBRANCH   7  10
ENDBRANCH   1   3
BRANCH   1  18
HETATM   18  C4  UNL     1      17.430  50.905   6.271  1.00  0.00     0.123 A 
HETATM   19  N2  UNL     1      18.236  51.604   7.125  1.00  0.00    -0.338 N 
HETATM   20  C5  UNL     1      19.214  50.965   7.837  1.00  0.00     0.183 A 
ATOM     21  H2  UNL     1      18.108  52.611   7.233  1.00  0.00     0.168 HD
HETATM   22  N3  UNL     1      19.558  49.658   7.856  1.00  0.00    -0.337 N 
HETATM   23  C6  UNL     1      18.787  48.943   7.006  1.00  0.00     0.137 A 
ATOM     24  H3  UNL     1      20.299  49.264   8.435  1.00  0.00     0.168 HD
HETATM   25  N4  UNL     1      18.878  47.633   6.795  1.00  0.00    -0.278 N 
HETATM   26  C12 UNL     1      17.760  49.541   6.229  1.00  0.00     0.082 A 
HETATM   27  N5  UNL     1      17.936  47.366   5.860  1.00  0.00    -0.265 N 
ATOM     28  H4  UNL     1      19.517  46.974   7.240  1.00  0.00     0.189 HD
HETATM   29  C7  UNL     1      17.649  46.108   5.324  1.00  0.00     0.116 A 
HETATM   30  C11 UNL     1      17.243  48.525   5.457  1.00  0.00     0.073 A 
HETATM   31  C8  UNL     1      16.705  45.971   4.381  1.00  0.00     0.019 A 
HETATM   32  C9  UNL     1      16.012  47.156   3.913  1.00  0.00     0.004 A 
HETATM   33  C10 UNL     1      16.271  48.375   4.421  1.00  0.00     0.032 A 
ENDBRANCH   1  18
TORSDOF 5
ENDMDL
MODEL 3
REMARK minimizedAffinity -7.28800774
REMARK CNNscore 0.405622751
REMARK CNNaffinity 5.58299685
REMARK  5 active torsions:
REMARK  status: ('A' for Active; 'I' for Inactive)
REMARK    1  A    between atoms: C3_4  and  N1_5 
REMARK    2  A    between atoms: N1_5  and  C4_6 
REMARK    3  A    between atoms: C15_24  and  O1_25 
REMARK    4  A    between atoms: O1_25  and  C16_26 
REMARK    5  A    between atoms: C16_26  and  C17_27 
ROOT
HETATM    1  N1  UNL     1      16.357  51.679   5.530  1.00  0.00    -0.342 N 
HETATM    2  H2  UNL     1      15.582  51.035   5.476  1.00  0.00     0.167 HD
ENDROOT
BRANCH   1   3
HETATM    3  C3  UNL     1      16.038  52.999   5.168  1.00  0.00     0.035 A 
HETATM    4  C2  UNL     1      16.969  53.911   4.668  1.00  0.00     0.056 A 
HETATM    5  C1  UNL     1      16.587  55.210   4.307  1.00  0.00     0.069 A 
HETATM    6 CL1  UNL     1      17.813  56.272   3.699  1.00  0.00    -0.081 Cl
HETATM    7  C15 UNL     1      15.256  55.631   4.428  1.00  0.00     0.091 A 
HETATM    8  C14 UNL     1      14.315  54.722   4.912  1.00  0.00     0.041 A 
HETATM    9  C13 UNL     1      14.704  53.423   5.270  1.00  0.00     0.032 A 
BRANCH   7  10
HETATM   10  O1  UNL     1      14.975  56.918   4.052  1.00  0.00    -0.345 OA
BRANCH  10  11
HETATM   11  C16 UNL     1      13.747  57.165   3.376  1.00  0.00     0.214 C 
BRANCH  11  12
HETATM   12  C17 UNL     1      13.423  58.632   3.507  1.00  0.00    -0.034 A 
HETATM   13  C18 UNL     1      13.142  59.190   4.762  1.00  0.00     0.009 A 
HETATM   14  C19 UNL     1      12.830  60.546   4.880  1.00  0.00     0.001 A 
HETATM   15  C20 UNL     1      12.787  61.354   3.745  1.00  0.00     0.000 A 
HETATM   16  C21 UNL     1      13.050  60.807   2.490  1.00  0.00     0.001 A 
HETATM   17  C22 UNL     1      13.362  59.452   2.370  1.00  0.00     0.009 A 
ENDBRANCH  11  12
ENDBRANCH  10  11
ENDBRANCH   7  10
ENDBRANCH   1   3
BRANCH   1  18
HETATM   18  C4  UNL     1      17.432  51.158   6.261  1.00  0.00     0.123 A 
HETATM   19  N2  UNL     1      18.176  51.925   7.113  1.00  0.00    -0.338 N 
HETATM   20  C5  UNL     1      19.166  51.362   7.870  1.00  0.00     0.183 A 
ATOM     21  H2  UNL     1      17.991  52.926   7.184  1.00  0.00     0.168 HD
HETATM   22  N3  UNL     1      19.578  50.076   7.941  1.00  0.00    -0.337 N 
HETATM   23  C6  UNL     1      18.871  49.295   7.094  1.00  0.00     0.137 A 
ATOM     24  H3  UNL     1      20.323  49.741   8.552  1.00  0.00     0.168 HD
HETATM   25  N4  UNL     1      19.037  47.986   6.929  1.00  0.00    -0.278 N 
HETATM   26  C12 UNL     1      17.835  49.812   6.271  1.00  0.00     0.082 A 
HETATM   27  N5  UNL     1      18.137  47.640   5.978  1.00  0.00    -0.265 N 
ATOM     28  H4  UNL     1      19.697  47.376   7.412  1.00  0.00     0.189 HD
HETATM   29  C7  UNL     1      17.932  46.352   5.476  1.00  0.00     0.116 A 
HETATM   30  C11 UNL     1      17.395  48.746   5.520  1.00  0.00     0.073 A 
HETATM   31  C8  UNL     1      17.023  46.135   4.513  1.00  0.00     0.019 A 
HETATM   32  C9  UNL     1      16.282  47.266   3.989  1.00  0.00     0.004 A 
HETATM   33  C10 UNL     1      16.461  48.512   4.464  1.00  0.00     0.032 A 
ENDBRANCH   1  18
TORSDOF 5
ENDMDL
MODEL 4
REMARK minimizedAffinity -7.2072444
REMARK CNNscore 0.403981209
REMARK CNNaffinity 6.04875994
REMARK  5 active torsions:
REMARK  status: ('A' for Active; 'I' for Inactive)
REMARK    1  A    between atoms: C3_4  and  N1_5 
REMARK    2  A    between atoms: N1_5  and  C4_6 
REMARK    3  A    between atoms: C15_24  and  O1_25 
REMARK    4  A    between atoms: O1_25  and  C16_26 
REMARK    5  A    between atoms: C16_26  and  C17_27 
ROOT
HETATM    1  N1  UNL     1      13.950  57.392  -0.230  1.00  0.00    -0.342 N 
HETATM    2  H2  UNL     1      13.664  58.206  -0.753  1.00  0.00     0.167 HD
ENDROOT
BRANCH   1   3
HETATM    3  C3  UNL     1      13.805  57.520   1.163  1.00  0.00     0.035 A 
HETATM    4  C2  UNL     1      13.854  56.441   2.048  1.00  0.00     0.056 A 
HETATM    5  C1  UNL     1      13.721  56.634   3.429  1.00  0.00     0.069 A 
HETATM    6 CL1  UNL     1      13.791  55.235   4.449  1.00  0.00    -0.081 Cl
HETATM    7  C15 UNL     1      13.542  57.916   3.966  1.00  0.00     0.091 A 
HETATM    8  C14 UNL     1      13.507  59.001   3.091  1.00  0.00     0.041 A 
HETATM    9  C13 UNL     1      13.643  58.801   1.709  1.00  0.00     0.032 A 
BRANCH   7  10
HETATM   10  O1  UNL     1      13.420  58.007   5.327  1.00  0.00    -0.345 OA
BRANCH  10  11
HETATM   11  C16 UNL     1      13.615  59.281   5.933  1.00  0.00     0.214 C 
BRANCH  11  12
HETATM   12  C17 UNL     1      12.658  59.404   7.092  1.00  0.00    -0.034 A 
HETATM   13  C18 UNL     1      12.924  58.755   8.306  1.00  0.00     0.009 A 
HETATM   14  C19 UNL     1      12.031  58.860   9.375  1.00  0.00     0.001 A 
HETATM   15  C20 UNL     1      10.861  59.604   9.237  1.00  0.00     0.000 A 
HETATM   16  C21 UNL     1      10.578  60.240   8.029  1.00  0.00     0.001 A 
HETATM   17  C22 UNL     1      11.469  60.137   6.960  1.00  0.00     0.009 A 
ENDBRANCH  11  12
ENDBRANCH  10  11
ENDBRANCH   7  10
ENDBRANCH   1   3
BRANCH   1  18
HETATM   18  C4  UNL     1      14.091  56.260  -1.042  1.00  0.00     0.123 A 
HETATM   19  N2  UNL     1      15.143  55.397  -0.916  1.00  0.00    -0.338 N 
HETATM   20  C5  UNL     1      15.203  54.259  -1.672  1.00  0.00     0.183 A 
ATOM     21  H2  UNL     1      15.890  55.604  -0.252  1.00  0.00     0.168 HD
HETATM   22  N3  UNL     1      14.338  53.787  -2.598  1.00  0.00    -0.337 N 
HETATM   23  C6  UNL     1      13.294  54.630  -2.758  1.00  0.00     0.137 A 
ATOM     24  H3  UNL     1      14.459  52.911  -3.108  1.00  0.00     0.168 HD
HETATM   25  N4  UNL     1      12.276  54.450  -3.595  1.00  0.00    -0.278 N 
HETATM   26  C12 UNL     1      13.170  55.834  -2.014  1.00  0.00     0.082 A 
HETATM   27  N5  UNL     1      11.495  55.544  -3.430  1.00  0.00    -0.265 N 
ATOM     28  H4  UNL     1      12.118  53.662  -4.222  1.00  0.00     0.189 HD
HETATM   29  C7  UNL     1      10.294  55.800  -4.097  1.00  0.00     0.116 A 
HETATM   30  C11 UNL     1      12.029  56.442  -2.485  1.00  0.00     0.073 A 
HETATM   31  C8  UNL     1       9.617  56.935  -3.868  1.00  0.00     0.019 A 
HETATM   32  C9  UNL     1      10.171  57.898  -2.936  1.00  0.00     0.004 A 
HETATM   33  C10 UNL     1      11.324  57.668  -2.280  1.00  0.00     0.032 A 
ENDBRANCH   1  18
TORSDOF 5
ENDMDL
MODEL 5
REMARK minimizedAffinity -6.83254719
REMARK CNNscore 0.358114302
REMARK CNNaffinity 5.80041552
REMARK  5 active torsions:
REMARK  status: ('A' for Active; 'I' for Inactive)
REMARK    1  A    between atoms: C3_4  and  N1_5 
REMARK    2  A    between atoms: N1_5  and  C4_6 
REMARK    3  A    between atoms: C15_24  and  O1_25 
REMARK    4  A    between atoms: O1_25  and  C16_26 
REMARK    5  A    between atoms: C16_26  and  C17_27 
ROOT
HETATM    1  N1  UNL     1      13.133  53.704  -3.688  1.00  0.00    -0.342 N 
HETATM    2  H2  UNL     1      13.793  53.731  -4.450  1.00  0.00     0.167 HD
ENDROOT
BRANCH   1   3
HETATM    3  C3  UNL     1      13.504  54.477  -2.574  1.00  0.00     0.035 A 
HETATM    4  C2  UNL     1      14.819  54.857  -2.299  1.00  0.00     0.056 A 
HETATM    5  C1  UNL     1      15.125  55.644  -1.181  1.00  0.00     0.069 A 
HETATM    6 CL1  UNL     1      16.786  56.063  -0.919  1.00  0.00    -0.081 Cl
HETATM    7  C15 UNL     1      14.119  56.083  -0.309  1.00  0.00     0.091 A 
HETATM    8  C14 UNL     1      12.801  55.722  -0.585  1.00  0.00     0.041 A 
HETATM    9  C13 UNL     1      12.501  54.935  -1.707  1.00  0.00     0.032 A 
BRANCH   7  10
HETATM   10  O1  UNL     1      14.513  56.847   0.757  1.00  0.00    -0.345 OA
BRANCH  10  11
HETATM   11  C16 UNL     1      13.674  56.872   1.907  1.00  0.00     0.214 C 
BRANCH  11  12
HETATM   12  C17 UNL     1      14.339  56.064   2.993  1.00  0.00    -0.034 A 
HETATM   13  C18 UNL     1      13.570  55.415   3.970  1.00  0.00     0.009 A 
HETATM   14  C19 UNL     1      14.188  54.678   4.982  1.00  0.00     0.001 A 
HETATM   15  C20 UNL     1      15.577  54.590   5.034  1.00  0.00     0.000 A 
HETATM   16  C21 UNL     1      16.352  55.244   4.077  1.00  0.00     0.001 A 
HETATM   17  C22 UNL     1      15.737  55.981   3.064  1.00  0.00     0.009 A 
ENDBRANCH  11  12
ENDBRANCH  10  11
ENDBRANCH   7  10
ENDBRANCH   1   3
BRANCH   1  18
HETATM   18  C4  UNL     1      11.893  53.182  -4.077  1.00  0.00     0.123 A 
HETATM   19  N2  UNL     1      11.016  53.886  -4.855  1.00  0.00    -0.338 N 
HETATM   20  C5  UNL     1       9.850  53.312  -5.282  1.00  0.00     0.183 A 
ATOM     21  H2  UNL     1      11.234  54.847  -5.120  1.00  0.00     0.168 HD
HETATM   22  N3  UNL     1       9.364  52.070  -5.060  1.00  0.00    -0.337 N 
HETATM   23  C6  UNL     1      10.202  51.355  -4.276  1.00  0.00     0.137 A 
ATOM     24  H3  UNL     1       8.482  51.720  -5.434  1.00  0.00     0.168 HD
HETATM   25  N4  UNL     1      10.007  50.102  -3.877  1.00  0.00    -0.278 N 
HETATM   26  C12 UNL     1      11.425  51.889  -3.790  1.00  0.00     0.082 A 
HETATM   27  N5  UNL     1      11.081  49.814  -3.103  1.00  0.00    -0.265 N 
ATOM     28  H4  UNL     1       9.222  49.491  -4.104  1.00  0.00     0.189 HD
HETATM   29  C7  UNL     1      11.325  48.596  -2.464  1.00  0.00     0.116 A 
HETATM   30  C11 UNL     1      11.967  50.904  -2.996  1.00  0.00     0.073 A 
HETATM   31  C8  UNL     1      12.416  48.436  -1.700  1.00  0.00     0.019 A 
HETATM   32  C9  UNL     1      13.318  49.559  -1.533  1.00  0.00     0.004 A 
HETATM   33  C10 UNL     1      13.103  50.739  -2.145  1.00  0.00     0.032 A 
ENDBRANCH   1  18
TORSDOF 5
ENDMDL
MODEL 6
REMARK minimizedAffinity -7.41900635
REMARK CNNscore 0.351979852
REMARK CNNaffinity 5.89674807
REMARK  5 active torsions:
REMARK  status: ('A' for Active; 'I' for Inactive)
REMARK    1  A    between atoms: C3_4  and  N1_5 
REMARK    2  A    between atoms: N1_5  and  C4_6 
REMARK    3  A    between atoms: C15_24  and  O1_25 
REMARK    4  A    between atoms: O1_25  and  C16_26 
REMARK    5  A    between atoms: C16_26  and  C17_27 
ROOT
HETATM    1  N1  UNL     1      13.398  57.402  -0.040  1.00  0.00    -0.342 N 
HETATM    2  H2  UNL     1      13.953  58.093  -0.521  1.00  0.00     0.167 HD
ENDROOT
BRANCH   1   3
HETATM    3  C3  UNL     1      13.457  57.486   1.362  1.00  0.00     0.035 A 
HETATM    4  C2  UNL     1      13.664  56.384   2.195  1.00  0.00     0.056 A 
HETATM    5  C1  UNL     1      13.731  56.533   3.586  1.00  0.00     0.069 A 
HETATM    6 CL1  UNL     1      13.987  55.109   4.539  1.00  0.00    -0.081 Cl
HETATM    7  C15 UNL     1      13.601  57.794   4.185  1.00  0.00     0.091 A 
HETATM    8  C14 UNL     1      13.410  58.902   3.360  1.00  0.00     0.041 A 
HETATM    9  C13 UNL     1      13.345  58.746   1.968  1.00  0.00     0.032 A 
BRANCH   7  10
HETATM   10  O1  UNL     1      13.679  57.843   5.552  1.00  0.00    -0.345 OA
BRANCH  10  11
HETATM   11  C16 UNL     1      13.908  59.107   6.164  1.00  0.00     0.214 C 
BRANCH  11  12
HETATM   12  C17 UNL     1      12.809  59.351   7.168  1.00  0.00    -0.034 A 
HETATM   13  C18 UNL     1      12.868  58.770   8.443  1.00  0.00     0.009 A 
HETATM   14  C19 UNL     1      11.844  58.986   9.367  1.00  0.00     0.001 A 
HETATM   15  C20 UNL     1      10.748  59.775   9.023  1.00  0.00     0.000 A 
HETATM   16  C21 UNL     1      10.671  60.344   7.753  1.00  0.00     0.001 A 
HETATM   17  C22 UNL     1      11.693  60.130   6.828  1.00  0.00     0.009 A 
ENDBRANCH  11  12
ENDBRANCH  10  11
ENDBRANCH   7  10
ENDBRANCH   1   3
BRANCH   1  18
HETATM   18  C4  UNL     1      12.474  56.779  -0.888  1.00  0.00     0.123 A 
HETATM   19  N2  UNL     1      11.162  57.157  -0.943  1.00  0.00    -0.338 N 
HETATM   20  C5  UNL     1      10.309  56.579  -1.843  1.00  0.00     0.183 A 
ATOM     21  H2  UNL     1      10.815  57.877  -0.308  1.00  0.00     0.168 HD
HETATM   22  N3  UNL     1      10.544  55.623  -2.770  1.00  0.00    -0.337 N 
HETATM   23  C6  UNL     1      11.832  55.215  -2.727  1.00  0.00     0.137 A 
ATOM     24  H3  UNL     1       9.843  55.259  -3.415  1.00  0.00     0.168 HD
HETATM   25  N4  UNL     1      12.376  54.287  -3.509  1.00  0.00    -0.278 N 
HETATM   26  C12 UNL     1      12.771  55.764  -1.814  1.00  0.00     0.082 A 
HETATM   27  N5  UNL     1      13.662  54.197  -3.096  1.00  0.00    -0.265 N 
ATOM     28  H4  UNL     1      11.923  53.759  -4.255  1.00  0.00     0.189 HD
HETATM   29  C7  UNL     1      14.636  53.352  -3.634  1.00  0.00     0.116 A 
HETATM   30  C11 UNL     1      13.941  55.071  -2.027  1.00  0.00     0.073 A 
HETATM   31  C8  UNL     1      15.877  53.334  -3.125  1.00  0.00     0.019 A 
HETATM   32  C9  UNL     1      16.176  54.187  -1.991  1.00  0.00     0.004 A 
HETATM   33  C10 UNL     1      15.252  55.013  -1.462  1.00  0.00     0.032 A 
ENDBRANCH   1  18
TORSDOF 5
ENDMDL
MODEL 7
REMARK minimizedAffinity -6.56005669
REMARK CNNscore 0.334073216
REMARK CNNaffinity 5.89248514
REMARK  5 active torsions:
REMARK  status: ('A' for Active; 'I' for Inactive)
REMARK    1  A    between atoms: C3_4  and  N1_5 
REMARK    2  A    between atoms: N1_5  and  C4_6 
REMARK    3  A    between atoms: C15_24  and  O1_25 
REMARK    4  A    between atoms: O1_25  and  C16_26 
REMARK    5  A    between atoms: C16_26  and  C17_27 
ROOT
HETATM    1  N1  UNL     1      12.004  53.436  -4.036  1.00  0.00    -0.342 N 
HETATM    2  H2  UNL     1      12.706  53.449  -4.759  1.00  0.00     0.167 HD
ENDROOT
BRANCH   1   3
HETATM    3  C3  UNL     1      12.103  54.493  -3.115  1.00  0.00     0.035 A 
HETATM    4  C2  UNL     1      11.378  55.682  -3.221  1.00  0.00     0.056 A 
HETATM    5  C1  UNL     1      11.506  56.695  -2.261  1.00  0.00     0.069 A 
HETATM    6 CL1  UNL     1      10.570  58.136  -2.478  1.00  0.00    -0.081 Cl
HETATM    7  C15 UNL     1      12.359  56.542  -1.159  1.00  0.00     0.091 A 
HETATM    8  C14 UNL     1      13.075  55.351  -1.037  1.00  0.00     0.041 A 
HETATM    9  C13 UNL     1      12.941  54.341  -2.000  1.00  0.00     0.032 A 
BRANCH   7  10
HETATM   10  O1  UNL     1      12.421  57.584  -0.273  1.00  0.00    -0.345 OA
BRANCH  10  11
HETATM   11  C16 UNL     1      13.703  57.988   0.197  1.00  0.00     0.214 C 
BRANCH  11  12
HETATM   12  C17 UNL     1      13.849  57.526   1.625  1.00  0.00    -0.034 A 
HETATM   13  C18 UNL     1      14.648  56.417   1.936  1.00  0.00     0.009 A 
HETATM   14  C19 UNL     1      14.773  55.983   3.257  1.00  0.00     0.001 A 
HETATM   15  C20 UNL     1      14.093  56.645   4.277  1.00  0.00     0.000 A 
HETATM   16  C21 UNL     1      13.283  57.740   3.977  1.00  0.00     0.001 A 
HETATM   17  C22 UNL     1      13.157  58.176   2.658  1.00  0.00     0.009 A 
ENDBRANCH  11  12
ENDBRANCH  10  11
ENDBRANCH   7  10
ENDBRANCH   1   3
BRANCH   1  18
HETATM   18  C4  UNL     1      10.942  52.575  -4.340  1.00  0.00     0.123 A 
HETATM   19  N2  UNL     1       9.904  52.952  -5.146  1.00  0.00    -0.338 N 
HETATM   20  C5  UNL     1       8.928  52.056  -5.487  1.00  0.00     0.183 A 
ATOM     21  H2  UNL     1       9.858  53.909  -5.496  1.00  0.00     0.168 HD
HETATM   22  N3  UNL     1       8.789  50.755  -5.148  1.00  0.00    -0.337 N 
HETATM   23  C6  UNL     1       9.794  50.357  -4.335  1.00  0.00     0.137 A 
ATOM     24  H3  UNL     1       8.028  50.154  -5.464  1.00  0.00     0.168 HD
HETATM   25  N4  UNL     1       9.940  49.137  -3.828  1.00  0.00    -0.278 N 
HETATM   26  C12 UNL     1      10.836  51.235  -3.933  1.00  0.00     0.082 A 
HETATM   27  N5  UNL     1      11.058  49.211  -3.067  1.00  0.00    -0.265 N 
ATOM     28  H4  UNL     1       9.343  48.324  -3.978  1.00  0.00     0.189 HD
HETATM   29  C7  UNL     1      11.622  48.161  -2.337  1.00  0.00     0.116 A 
HETATM   30  C11 UNL     1      11.626  50.500  -3.078  1.00  0.00     0.073 A 
HETATM   31  C8  UNL     1      12.723  48.361  -1.598  1.00  0.00     0.019 A 
HETATM   32  C9  UNL     1      13.297  49.692  -1.552  1.00  0.00     0.004 A 
HETATM   33  C10 UNL     1      12.773  50.715  -2.253  1.00  0.00     0.032 A 
ENDBRANCH   1  18
TORSDOF 5
ENDMDL
MODEL 8
REMARK minimizedAffinity -7.02823353
REMARK CNNscore 0.309727371
REMARK CNNaffinity 5.82915068
REMARK  5 active torsions:
REMARK  status: ('A' for Active; 'I' for Inactive)
REMARK    1  A    between atoms: C3_4  and  N1_5 
REMARK    2  A    between atoms: N1_5  and  C4_6 
REMARK    3  A    between atoms: C15_24  and  O1_25 
REMARK    4  A    between atoms: O1_25  and  C16_26 
REMARK    5  A    between atoms: C16_26  and  C17_27 
ROOT
HETATM    1  N1  UNL     1      13.747  56.758   0.150  1.00  0.00    -0.342 N 
HETATM    2  H2  UNL     1      14.620  56.935  -0.323  1.00  0.00     0.167 HD
ENDROOT
BRANCH   1   3
HETATM    3  C3  UNL     1      13.688  57.260   1.461  1.00  0.00     0.035 A 
HETATM    4  C2  UNL     1      13.581  58.619   1.766  1.00  0.00     0.056 A 
HETATM    5  C1  UNL     1      13.509  59.058   3.094  1.00  0.00     0.069 A 
HETATM    6 CL1  UNL     1      13.382  60.763   3.375  1.00  0.00    -0.081 Cl
HETATM    7  C15 UNL     1      13.533  58.147   4.159  1.00  0.00     0.091 A 
HETATM    8  C14 UNL     1      13.623  56.787   3.864  1.00  0.00     0.041 A 
HETATM    9  C13 UNL     1      13.694  56.354   2.532  1.00  0.00     0.032 A 
BRANCH   7  10
HETATM   10  O1  UNL     1      13.458  58.668   5.423  1.00  0.00    -0.345 OA
BRANCH  10  11
HETATM   11  C16 UNL     1      12.624  59.802   5.631  1.00  0.00     0.214 C 
BRANCH  11  12
HETATM   12  C17 UNL     1      12.051  59.717   7.024  1.00  0.00    -0.034 A 
HETATM   13  C18 UNL     1      10.849  60.367   7.340  1.00  0.00     0.009 A 
HETATM   14  C19 UNL     1      10.327  60.298   8.633  1.00  0.00     0.001 A 
HETATM   15  C20 UNL     1      11.004  59.589   9.623  1.00  0.00     0.000 A 
HETATM   16  C21 UNL     1      12.207  58.952   9.324  1.00  0.00     0.001 A 
HETATM   17  C22 UNL     1      12.731  59.019   8.032  1.00  0.00     0.009 A 
ENDBRANCH  11  12
ENDBRANCH  10  11
ENDBRANCH   7  10
ENDBRANCH   1   3
BRANCH   1  18
HETATM   18  C4  UNL     1      12.734  56.364  -0.733  1.00  0.00     0.123 A 
HETATM   19  N2  UNL     1      11.466  56.869  -0.661  1.00  0.00    -0.338 N 
HETATM   20  C5  UNL     1      10.525  56.522  -1.592  1.00  0.00     0.183 A 
ATOM     21  H2  UNL     1      11.218  57.511   0.093  1.00  0.00     0.168 HD
HETATM   22  N3  UNL     1      10.627  55.705  -2.664  1.00  0.00    -0.337 N 
HETATM   23  C6  UNL     1      11.868  55.175  -2.751  1.00  0.00     0.137 A 
ATOM     24  H3  UNL     1       9.869  55.514  -3.319  1.00  0.00     0.168 HD
HETATM   25  N4  UNL     1      12.284  54.333  -3.692  1.00  0.00    -0.278 N 
HETATM   26  C12 UNL     1      12.891  55.484  -1.816  1.00  0.00     0.082 A 
HETATM   27  N5  UNL     1      13.570  54.058  -3.366  1.00  0.00    -0.265 N 
ATOM     28  H4  UNL     1      11.753  53.973  -4.485  1.00  0.00     0.189 HD
HETATM   29  C7  UNL     1      14.432  53.220  -4.077  1.00  0.00     0.116 A 
HETATM   30  C11 UNL     1      13.976  54.724  -2.193  1.00  0.00     0.073 A 
HETATM   31  C8  UNL     1      15.683  53.005  -3.642  1.00  0.00     0.019 A 
HETATM   32  C9  UNL     1      16.109  53.638  -2.409  1.00  0.00     0.004 A 
HETATM   33  C10 UNL     1      15.294  54.455  -1.714  1.00  0.00     0.032 A 
ENDBRANCH   1  18
TORSDOF 5
ENDMDL
MODEL 9
REMARK minimizedAffinity -6.45923424
REMARK CNNscore 0.302272797
REMARK CNNaffinity 5.82624388
REMARK  5 active torsions:
REMARK  status: ('A' for Active; 'I' for Inactive)
REMARK    1  A    between atoms: C3_4  and  N1_5 
REMARK    2  A    between atoms: N1_5  and  C4_6 
REMARK    3  A    between atoms: C15_24  and  O1_25 
REMARK    4  A    between atoms: O1_25  and  C16_26 
REMARK    5  A    between atoms: C16_26  and  C17_27 
ROOT
HETATM    1  N1  UNL     1      12.115  53.851  -3.678  1.00  0.00    -0.342 N 
HETATM    2  H2  UNL     1      11.962  54.408  -4.504  1.00  0.00     0.167 HD
ENDROOT
BRANCH   1   3
HETATM    3  C3  UNL     1      12.707  54.549  -2.611  1.00  0.00     0.035 A 
HETATM    4  C2  UNL     1      14.087  54.634  -2.412  1.00  0.00     0.056 A 
HETATM    5  C1  UNL     1      14.619  55.361  -1.339  1.00  0.00     0.069 A 
HETATM    6 CL1  UNL     1      16.342  55.407  -1.171  1.00  0.00    -0.081 Cl
HETATM    7  C15 UNL     1      13.783  56.032  -0.436  1.00  0.00     0.091 A 
HETATM    8  C14 UNL     1      12.404  55.966  -0.636  1.00  0.00     0.041 A 
HETATM    9  C13 UNL     1      11.878  55.238  -1.713  1.00  0.00     0.032 A 
BRANCH   7  10
HETATM   10  O1  UNL     1      14.392  56.716   0.583  1.00  0.00    -0.345 OA
BRANCH  10  11
HETATM   11  C16 UNL     1      13.653  56.928   1.781  1.00  0.00     0.214 C 
BRANCH  11  12
HETATM   12  C17 UNL     1      14.322  56.155   2.891  1.00  0.00    -0.034 A 
HETATM   13  C18 UNL     1      15.720  56.102   2.978  1.00  0.00     0.009 A 
HETATM   14  C19 UNL     1      16.338  55.376   3.998  1.00  0.00     0.001 A 
HETATM   15  C20 UNL     1      15.566  54.689   4.933  1.00  0.00     0.000 A 
HETATM   16  C21 UNL     1      14.175  54.723   4.847  1.00  0.00     0.001 A 
HETATM   17  C22 UNL     1      13.555  55.448   3.828  1.00  0.00     0.009 A 
ENDBRANCH  11  12
ENDBRANCH  10  11
ENDBRANCH   7  10
ENDBRANCH   1   3
BRANCH   1  18
HETATM   18  C4  UNL     1      11.400  52.647  -3.708  1.00  0.00     0.123 A 
HETATM   19  N2  UNL     1      11.561  51.678  -2.758  1.00  0.00    -0.338 N 
HETATM   20  C5  UNL     1      10.785  50.551  -2.775  1.00  0.00     0.183 A 
ATOM     21  H2  UNL     1      12.267  51.795  -2.030  1.00  0.00     0.168 HD
HETATM   22  N3  UNL     1       9.802  50.190  -3.629  1.00  0.00    -0.337 N 
HETATM   23  C6  UNL     1       9.631  51.123  -4.592  1.00  0.00     0.137 A 
ATOM     24  H3  UNL     1       9.261  49.328  -3.556  1.00  0.00     0.168 HD
HETATM   25  N4  UNL     1       8.743  51.060  -5.581  1.00  0.00    -0.278 N 
HETATM   26  C12 UNL     1      10.406  52.312  -4.642  1.00  0.00     0.082 A 
HETATM   27  N5  UNL     1       8.948  52.188  -6.302  1.00  0.00    -0.265 N 
ATOM     28  H4  UNL     1       8.059  50.325  -5.757  1.00  0.00     0.189 HD
HETATM   29  C7  UNL     1       8.238  52.569  -7.443  1.00  0.00     0.116 A 
HETATM   30  C11 UNL     1       9.990  52.975  -5.774  1.00  0.00     0.073 A 
HETATM   31  C8  UNL     1       8.548  53.703  -8.090  1.00  0.00     0.019 A 
HETATM   32  C9  UNL     1       9.650  54.505  -7.596  1.00  0.00     0.004 A 
HETATM   33  C10 UNL     1      10.343  54.157  -6.495  1.00  0.00     0.032 A 
ENDBRANCH   1  18
TORSDOF 5
ENDMDL
