MODEL 1
REMARK minimizedAffinity -8.08852005
REMARK  5 active torsions:
REMARK  status: ('A' for Active; 'I' for Inactive)
REMARK    1  A    between atoms: N1_1  and  C1_2 
REMARK    2  A    between atoms: C2_5  and  N3_6 
REMARK    3  A    between atoms: N3_6  and  C3_7 
REMARK    4  A    between atoms: C11_21  and  S1_22 
REMARK    5  A    between atoms: S1_22  and  C12_23 
ROOT
HETATM    1  C3  UNL     1      11.957  35.007  17.446  1.00  0.00     0.708 A 
HETATM    2  N4  UNL     1      11.326  35.738  16.544  1.00  0.00    -0.130 N 
ATOM      3  H4  UNL     1      11.710  36.023  15.643  1.00  0.00     0.205 HD
HETATM    4  N5  UNL     1      10.073  36.055  17.009  1.00  0.00    -0.269 N 
ATOM      5  H5  UNL     1       9.365  36.601  16.518  1.00  0.00     0.189 HD
HETATM    6  C4  UNL     1       9.958  35.524  18.202  1.00  0.00     0.158 A 
HETATM    7  C5  UNL     1       8.850  35.534  19.130  1.00  0.00     0.037 A 
HETATM    8  C6  UNL     1       7.630  36.153  18.850  1.00  0.00     0.017 A 
HETATM    9  C7  UNL     1       6.604  36.109  19.794  1.00  0.00     0.001 A 
HETATM   10  C8  UNL     1       6.799  35.449  21.010  1.00  0.00     0.002 A 
HETATM   11  C9  UNL     1       8.023  34.834  21.288  1.00  0.00     0.030 A 
HETATM   12  C10 UNL     1       9.058  34.872  20.355  1.00  0.00     0.048 A 
HETATM   13  N6  UNL     1      10.292  34.254  20.670  1.00  0.00    -0.335 N 
ATOM     14  H6  UNL     1      10.419  33.792  21.571  1.00  0.00     0.168 HD
HETATM   15  C11 UNL     1      11.266  34.279  19.802  1.00  0.00     0.174 A 
HETATM   16  N7  UNL     1      11.123  34.881  18.547  1.00  0.00    -0.107 N 
ENDROOT
BRANCH   1  17
HETATM   17  N3  UNL     1      13.190  34.431  17.384  1.00  0.00    -0.174 N 
HETATM   18  H3  UNL     1      13.261  33.455  17.657  1.00  0.00     0.186 HD
BRANCH  17  19
HETATM   19  C2  UNL     1      14.337  35.012  16.954  1.00  0.00     0.129 A 
HETATM   20  N2  UNL     1      14.450  35.570  15.706  1.00  0.00    -0.322 N 
HETATM   21  C1  UNL     1      15.649  36.062  15.528  1.00  0.00     0.143 A 
ATOM     22  H2  UNL     1      13.703  35.598  15.012  1.00  0.00     0.169 HD
HETATM   23  S2  UNL     1      16.707  35.918  16.872  1.00  0.00    -0.062 SA
HETATM   24  C18 UNL     1      15.469  35.105  17.737  1.00  0.00     0.102 A 
BRANCH  21  25
HETATM   25  N1  UNL     1      16.032  36.663  14.390  1.00  0.00    -0.380 N 
HETATM   26  H1  UNL     1      16.749  37.374  14.453  1.00  0.00     0.158 HD
HETATM   27  H2  UNL     1      15.263  36.902  13.771  1.00  0.00     0.158 HD
ENDBRANCH  21  25
ENDBRANCH  17  19
ENDBRANCH   1  17
BRANCH  15  28
HETATM   28  S1  UNL     1      12.783  33.529  20.294  1.00  0.00    -0.053 SA
BRANCH  28  29
HETATM   29  C12 UNL     1      13.497  34.889  21.199  1.00  0.00     0.008 A 
HETATM   30  C13 UNL     1      12.684  35.938  21.644  1.00  0.00     0.020 A 
HETATM   31  C14 UNL     1      13.238  37.006  22.354  1.00  0.00     0.020 A 
HETATM   32  C15 UNL     1      14.607  37.029  22.615  1.00  0.00     0.011 A 
HETATM   33 BR1  UNL     1      15.356  38.475  23.574  1.00  0.00    -0.051 Br
HETATM   34  C16 UNL     1      15.426  35.993  22.173  1.00  0.00     0.020 A 
HETATM   35  C17 UNL     1      14.871  34.925  21.463  1.00  0.00     0.020 A 
ENDBRANCH  28  29
ENDBRANCH  15  28
TORSDOF 5
ENDMDL
MODEL 2
REMARK minimizedAffinity -7.54130745
REMARK  5 active torsions:
REMARK  status: ('A' for Active; 'I' for Inactive)
REMARK    1  A    between atoms: N1_1  and  C1_2 
REMARK    2  A    between atoms: C2_5  and  N3_6 
REMARK    3  A    between atoms: N3_6  and  C3_7 
REMARK    4  A    between atoms: C11_21  and  S1_22 
REMARK    5  A    between atoms: S1_22  and  C12_23 
ROOT
HETATM    1  C3  UNL     1      14.176  35.720  16.033  1.00  0.00     0.708 A 
HETATM    2  N4  UNL     1      13.344  36.461  15.323  1.00  0.00    -0.130 N 
ATOM      3  H4  UNL     1      13.576  36.938  14.452  1.00  0.00     0.205 HD
HETATM    4  N5  UNL     1      12.118  36.490  15.942  1.00  0.00    -0.269 N 
ATOM      5  H5  UNL     1      11.285  36.977  15.612  1.00  0.00     0.189 HD
HETATM    6  C4  UNL     1      12.219  35.775  17.035  1.00  0.00     0.158 A 
HETATM    7  C5  UNL     1      11.235  35.461  18.045  1.00  0.00     0.037 A 
HETATM    8  C6  UNL     1       9.911  35.901  17.978  1.00  0.00     0.017 A 
HETATM    9  C7  UNL     1       9.016  35.545  18.988  1.00  0.00     0.001 A 
HETATM   10  C8  UNL     1       9.445  34.753  20.056  1.00  0.00     0.002 A 
HETATM   11  C9  UNL     1      10.771  34.317  20.121  1.00  0.00     0.030 A 
HETATM   12  C10 UNL     1      11.677  34.668  19.120  1.00  0.00     0.048 A 
HETATM   13  N6  UNL     1      13.018  34.225  19.221  1.00  0.00    -0.335 N 
ATOM     14  H6  UNL     1      13.314  33.661  20.017  1.00  0.00     0.168 HD
HETATM   15  C11 UNL     1      13.873  34.542  18.287  1.00  0.00     0.174 A 
HETATM   16  N7  UNL     1      13.500  35.292  17.167  1.00  0.00    -0.107 N 
ENDROOT
BRANCH   1  17
HETATM   17  N3  UNL     1      15.467  35.374  15.770  1.00  0.00    -0.174 N 
HETATM   18  H3  UNL     1      15.899  34.689  16.384  1.00  0.00     0.186 HD
BRANCH  17  19
HETATM   19  C2  UNL     1      16.234  35.817  14.743  1.00  0.00     0.129 A 
HETATM   20  N2  UNL     1      16.243  35.199  13.518  1.00  0.00    -0.322 N 
HETATM   21  C1  UNL     1      17.059  35.810  12.700  1.00  0.00     0.143 A 
ATOM     22  H2  UNL     1      15.689  34.375  13.279  1.00  0.00     0.169 HD
HETATM   23  S2  UNL     1      17.840  37.197  13.342  1.00  0.00    -0.062 SA
HETATM   24  C18 UNL     1      17.045  36.929  14.839  1.00  0.00     0.102 A 
BRANCH  21  25
HETATM   25  N1  UNL     1      17.263  35.409  11.434  1.00  0.00    -0.380 N 
HETATM   26  H1  UNL     1      17.522  36.111  10.754  1.00  0.00     0.158 HD
HETATM   27  H2  UNL     1      16.577  34.739  11.098  1.00  0.00     0.158 HD
ENDBRANCH  21  25
ENDBRANCH  17  19
ENDBRANCH   1  17
BRANCH  15  28
HETATM   28  S1  UNL     1      15.531  33.991  18.513  1.00  0.00    -0.053 SA
BRANCH  28  29
HETATM   29  C12 UNL     1      16.034  35.114  19.805  1.00  0.00     0.008 A 
HETATM   30  C13 UNL     1      15.554  34.941  21.108  1.00  0.00     0.020 A 
HETATM   31  C14 UNL     1      15.945  35.817  22.125  1.00  0.00     0.020 A 
HETATM   32  C15 UNL     1      16.811  36.869  21.837  1.00  0.00     0.011 A 
HETATM   33 BR1  UNL     1      17.337  38.054  23.212  1.00  0.00    -0.051 Br
HETATM   34  C16 UNL     1      17.292  37.053  20.543  1.00  0.00     0.020 A 
HETATM   35  C17 UNL     1      16.900  36.177  19.528  1.00  0.00     0.020 A 
ENDBRANCH  28  29
ENDBRANCH  15  28
TORSDOF 5
ENDMDL
MODEL 3
REMARK minimizedAffinity -7.49323702
REMARK  5 active torsions:
REMARK  status: ('A' for Active; 'I' for Inactive)
REMARK    1  A    between atoms: N1_1  and  C1_2 
REMARK    2  A    between atoms: C2_5  and  N3_6 
REMARK    3  A    between atoms: N3_6  and  C3_7 
REMARK    4  A    between atoms: C11_21  and  S1_22 
REMARK    5  A    between atoms: S1_22  and  C12_23 
ROOT
HETATM    1  C3  UNL     1      12.194  35.258  17.213  1.00  0.00     0.708 A 
HETATM    2  N4  UNL     1      11.090  35.757  16.683  1.00  0.00    -0.130 N 
ATOM      3  H4  UNL     1      11.009  36.138  15.741  1.00  0.00     0.205 HD
HETATM    4  N5  UNL     1      10.071  35.685  17.602  1.00  0.00    -0.269 N 
ATOM      5  H5  UNL     1       9.107  35.988  17.461  1.00  0.00     0.189 HD
HETATM    6  C4  UNL     1      10.569  35.154  18.691  1.00  0.00     0.158 A 
HETATM    7  C5  UNL     1       9.940  34.838  19.953  1.00  0.00     0.037 A 
HETATM    8  C6  UNL     1       8.583  35.057  20.200  1.00  0.00     0.017 A 
HETATM    9  C7  UNL     1       8.046  34.713  21.442  1.00  0.00     0.001 A 
HETATM   10  C8  UNL     1       8.864  34.152  22.427  1.00  0.00     0.002 A 
HETATM   11  C9  UNL     1      10.221  33.938  22.176  1.00  0.00     0.030 A 
HETATM   12  C10 UNL     1      10.772  34.279  20.941  1.00  0.00     0.048 A 
HETATM   13  N6  UNL     1      12.154  34.065  20.721  1.00  0.00    -0.335 N 
ATOM     14  H6  UNL     1      12.736  33.670  21.459  1.00  0.00     0.168 HD
HETATM   15  C11 UNL     1      12.678  34.375  19.567  1.00  0.00     0.174 A 
HETATM   16  N7  UNL     1      11.909  34.895  18.521  1.00  0.00    -0.107 N 
ENDROOT
BRANCH   1  17
HETATM   17  N3  UNL     1      13.420  35.081  16.648  1.00  0.00    -0.174 N 
HETATM   18  H3  UNL     1      13.715  34.125  16.467  1.00  0.00     0.186 HD
BRANCH  17  19
HETATM   19  C2  UNL     1      14.283  36.051  16.257  1.00  0.00     0.129 A 
HETATM   20  N2  UNL     1      14.045  37.381  16.496  1.00  0.00    -0.322 N 
HETATM   21  C1  UNL     1      15.018  38.115  16.023  1.00  0.00     0.143 A 
ATOM     22  H2  UNL     1      13.222  37.746  16.976  1.00  0.00     0.169 HD
HETATM   23  S2  UNL     1      16.306  37.246  15.295  1.00  0.00    -0.062 SA
HETATM   24  C18 UNL     1      15.471  35.780  15.610  1.00  0.00     0.102 A 
BRANCH  21  25
HETATM   25  N1  UNL     1      15.036  39.455  16.117  1.00  0.00    -0.380 N 
HETATM   26  H1  UNL     1      15.938  39.912  16.151  1.00  0.00     0.158 HD
HETATM   27  H2  UNL     1      14.356  39.831  16.771  1.00  0.00     0.158 HD
ENDBRANCH  21  25
ENDBRANCH  17  19
ENDBRANCH   1  17
BRANCH  15  28
HETATM   28  S1  UNL     1      14.413  34.121  19.393  1.00  0.00    -0.053 SA
BRANCH  28  29
HETATM   29  C12 UNL     1      15.003  35.439  20.441  1.00  0.00     0.008 A 
HETATM   30  C13 UNL     1      15.093  36.743  19.941  1.00  0.00     0.020 A 
HETATM   31  C14 UNL     1      15.554  37.780  20.758  1.00  0.00     0.020 A 
HETATM   32  C15 UNL     1      15.930  37.511  22.072  1.00  0.00     0.011 A 
HETATM   33 BR1  UNL     1      16.555  38.913  23.175  1.00  0.00    -0.051 Br
HETATM   34  C16 UNL     1      15.849  36.216  22.578  1.00  0.00     0.020 A 
HETATM   35  C17 UNL     1      15.388  35.180  21.762  1.00  0.00     0.020 A 
ENDBRANCH  28  29
ENDBRANCH  15  28
TORSDOF 5
ENDMDL
MODEL 4
REMARK minimizedAffinity -7.03856373
REMARK  5 active torsions:
REMARK  status: ('A' for Active; 'I' for Inactive)
REMARK    1  A    between atoms: N1_1  and  C1_2 
REMARK    2  A    between atoms: C2_5  and  N3_6 
REMARK    3  A    between atoms: N3_6  and  C3_7 
REMARK    4  A    between atoms: C11_21  and  S1_22 
REMARK    5  A    between atoms: S1_22  and  C12_23 
ROOT
HETATM    1  C3  UNL     1       4.315  65.382  -4.506  1.00  0.00     0.708 A 
HETATM    2  N4  UNL     1       5.166  64.386  -4.331  1.00  0.00    -0.130 N 
ATOM      3  H4  UNL     1       5.319  63.888  -3.454  1.00  0.00     0.205 HD
HETATM    4  N5  UNL     1       5.813  64.127  -5.515  1.00  0.00    -0.269 N 
ATOM      5  H5  UNL     1       6.515  63.404  -5.675  1.00  0.00     0.189 HD
HETATM    6  C4  UNL     1       5.359  64.981  -6.399  1.00  0.00     0.158 A 
HETATM    7  C5  UNL     1       5.683  65.144  -7.798  1.00  0.00     0.037 A 
HETATM    8  C6  UNL     1       6.595  64.325  -8.467  1.00  0.00     0.017 A 
HETATM    9  C7  UNL     1       6.845  64.539  -9.822  1.00  0.00     0.001 A 
HETATM   10  C8  UNL     1       6.185  65.565 -10.503  1.00  0.00     0.002 A 
HETATM   11  C9  UNL     1       5.275  66.384  -9.829  1.00  0.00     0.030 A 
HETATM   12  C10 UNL     1       5.018  66.184  -8.473  1.00  0.00     0.048 A 
HETATM   13  N6  UNL     1       4.103  67.040  -7.814  1.00  0.00    -0.335 N 
ATOM     14  H6  UNL     1       3.644  67.793  -8.325  1.00  0.00     0.168 HD
HETATM   15  C11 UNL     1       3.850  66.858  -6.547  1.00  0.00     0.174 A 
HETATM   16  N7  UNL     1       4.439  65.820  -5.816  1.00  0.00    -0.107 N 
ENDROOT
BRANCH   1  17
HETATM   17  N3  UNL     1       3.433  65.931  -3.625  1.00  0.00    -0.174 N 
HETATM   18  H3  UNL     1       3.561  66.911  -3.388  1.00  0.00     0.186 HD
BRANCH  17  19
HETATM   19  C2  UNL     1       2.365  65.319  -3.056  1.00  0.00     0.129 A 
HETATM   20  N2  UNL     1       2.045  64.012  -3.322  1.00  0.00    -0.322 N 
HETATM   21  C1  UNL     1       0.977  63.655  -2.656  1.00  0.00     0.143 A 
ATOM     22  H2  UNL     1       2.567  63.402  -3.952  1.00  0.00     0.169 HD
HETATM   23  S2  UNL     1       0.312  64.862  -1.634  1.00  0.00    -0.062 SA
HETATM   24  C18 UNL     1       1.532  65.950  -2.156  1.00  0.00     0.102 A 
BRANCH  21  25
HETATM   25  N1  UNL     1       0.441  62.425  -2.736  1.00  0.00    -0.380 N 
HETATM   26  H1  UNL     1      -0.061  62.078  -1.930  1.00  0.00     0.158 HD
HETATM   27  H2  UNL     1       1.050  61.738  -3.173  1.00  0.00     0.158 HD
ENDBRANCH  21  25
ENDBRANCH  17  19
ENDBRANCH   1  17
BRANCH  15  28
HETATM   28  S1  UNL     1       2.737  67.996  -5.791  1.00  0.00    -0.053 SA
BRANCH  28  29
HETATM   29  C12 UNL     1       2.531  69.139  -7.145  1.00  0.00     0.008 A 
HETATM   30  C13 UNL     1       1.457  68.990  -8.029  1.00  0.00     0.020 A 
HETATM   31  C14 UNL     1       1.290  69.883  -9.092  1.00  0.00     0.020 A 
HETATM   32  C15 UNL     1       2.202  70.922  -9.272  1.00  0.00     0.011 A 
HETATM   33 BR1  UNL     1       1.977  72.128 -10.710  1.00  0.00    -0.051 Br
HETATM   34  C16 UNL     1       3.277  71.077  -8.401  1.00  0.00     0.020 A 
HETATM   35  C17 UNL     1       3.442  70.184  -7.339  1.00  0.00     0.020 A 
ENDBRANCH  28  29
ENDBRANCH  15  28
TORSDOF 5
ENDMDL
MODEL 5
REMARK minimizedAffinity -7.03597689
REMARK  5 active torsions:
REMARK  status: ('A' for Active; 'I' for Inactive)
REMARK    1  A    between atoms: N1_1  and  C1_2 
REMARK    2  A    between atoms: C2_5  and  N3_6 
REMARK    3  A    between atoms: N3_6  and  C3_7 
REMARK    4  A    between atoms: C11_21  and  S1_22 
REMARK    5  A    between atoms: S1_22  and  C12_23 
ROOT
HETATM    1  C3  UNL     1      19.112  49.229   6.910  1.00  0.00     0.708 A 
HETATM    2  N4  UNL     1      19.814  48.667   7.879  1.00  0.00    -0.130 N 
ATOM      3  H4  UNL     1      20.038  47.675   7.945  1.00  0.00     0.205 HD
HETATM    4  N5  UNL     1      20.193  49.629   8.783  1.00  0.00    -0.269 N 
ATOM      5  H5  UNL     1      20.752  49.482   9.624  1.00  0.00     0.189 HD
HETATM    6  C4  UNL     1      19.705  50.770   8.363  1.00  0.00     0.158 A 
HETATM    7  C5  UNL     1      19.812  52.099   8.921  1.00  0.00     0.037 A 
HETATM    8  C6  UNL     1      20.535  52.379  10.082  1.00  0.00     0.017 A 
HETATM    9  C7  UNL     1      20.601  53.691  10.552  1.00  0.00     0.001 A 
HETATM   10  C8  UNL     1      19.948  54.715   9.861  1.00  0.00     0.002 A 
HETATM   11  C9  UNL     1      19.223  54.430   8.701  1.00  0.00     0.030 A 
HETATM   12  C10 UNL     1      19.145  53.123   8.222  1.00  0.00     0.048 A 
HETATM   13  N6  UNL     1      18.391  52.862   7.053  1.00  0.00    -0.335 N 
ATOM     14  H6  UNL     1      17.908  53.621   6.574  1.00  0.00     0.168 HD
HETATM   15  C11 UNL     1      18.316  51.643   6.593  1.00  0.00     0.174 A 
HETATM   16  N7  UNL     1      18.985  50.578   7.208  1.00  0.00    -0.107 N 
ENDROOT
BRANCH   1  17
HETATM   17  N3  UNL     1      18.586  48.669   5.786  1.00  0.00    -0.174 N 
HETATM   18  H3  UNL     1      19.056  48.864   4.906  1.00  0.00     0.186 HD
BRANCH  17  19
HETATM   19  C2  UNL     1      17.519  47.834   5.716  1.00  0.00     0.129 A 
HETATM   20  N2  UNL     1      17.131  47.054   6.775  1.00  0.00    -0.322 N 
HETATM   21  C1  UNL     1      16.082  46.340   6.461  1.00  0.00     0.143 A 
ATOM     22  H2  UNL     1      17.597  47.033   7.683  1.00  0.00     0.169 HD
HETATM   23  S2  UNL     1      15.469  46.593   4.878  1.00  0.00    -0.062 SA
HETATM   24  C18 UNL     1      16.732  47.719   4.589  1.00  0.00     0.102 A 
BRANCH  21  25
HETATM   25  N1  UNL     1      15.497  45.483   7.315  1.00  0.00    -0.380 N 
HETATM   26  H1  UNL     1      14.506  45.311   7.203  1.00  0.00     0.158 HD
HETATM   27  H2  UNL     1      15.792  45.598   8.280  1.00  0.00     0.158 HD
ENDBRANCH  21  25
ENDBRANCH  17  19
ENDBRANCH   1  17
BRANCH  15  28
HETATM   28  S1  UNL     1      17.318  51.397   5.162  1.00  0.00    -0.053 SA
BRANCH  28  29
HETATM   29  C12 UNL     1      16.524  52.993   5.088  1.00  0.00     0.008 A 
HETATM   30  C13 UNL     1      15.163  53.112   5.392  1.00  0.00     0.020 A 
HETATM   31  C14 UNL     1      14.536  54.360   5.337  1.00  0.00     0.020 A 
HETATM   32  C15 UNL     1      15.269  55.488   4.972  1.00  0.00     0.011 A 
HETATM   33 BR1  UNL     1      14.419  57.174   4.895  1.00  0.00    -0.051 Br
HETATM   34  C16 UNL     1      16.622  55.380   4.664  1.00  0.00     0.020 A 
HETATM   35  C17 UNL     1      17.248  54.132   4.720  1.00  0.00     0.020 A 
ENDBRANCH  28  29
ENDBRANCH  15  28
TORSDOF 5
ENDMDL
MODEL 6
REMARK minimizedAffinity -7.02072763
REMARK  5 active torsions:
REMARK  status: ('A' for Active; 'I' for Inactive)
REMARK    1  A    between atoms: N1_1  and  C1_2 
REMARK    2  A    between atoms: C2_5  and  N3_6 
REMARK    3  A    between atoms: N3_6  and  C3_7 
REMARK    4  A    between atoms: C11_21  and  S1_22 
REMARK    5  A    between atoms: S1_22  and  C12_23 
ROOT
HETATM    1  C3  UNL     1       4.208  65.356  -4.369  1.00  0.00     0.708 A 
HETATM    2  N4  UNL     1       5.111  64.406  -4.207  1.00  0.00    -0.130 N 
ATOM      3  H4  UNL     1       5.300  63.914  -3.334  1.00  0.00     0.205 HD
HETATM    4  N5  UNL     1       5.757  64.183  -5.399  1.00  0.00    -0.269 N 
ATOM      5  H5  UNL     1       6.494  63.499  -5.570  1.00  0.00     0.189 HD
HETATM    6  C4  UNL     1       5.248  65.014  -6.275  1.00  0.00     0.158 A 
HETATM    7  C5  UNL     1       5.547  65.198  -7.678  1.00  0.00     0.037 A 
HETATM    8  C6  UNL     1       6.492  64.429  -8.359  1.00  0.00     0.017 A 
HETATM    9  C7  UNL     1       6.715  64.659  -9.718  1.00  0.00     0.001 A 
HETATM   10  C8  UNL     1       5.994  65.651 -10.387  1.00  0.00     0.002 A 
HETATM   11  C9  UNL     1       5.051  66.420  -9.700  1.00  0.00     0.030 A 
HETATM   12  C10 UNL     1       4.820  66.204  -8.342  1.00  0.00     0.048 A 
HETATM   13  N6  UNL     1       3.870  67.008  -7.669  1.00  0.00    -0.335 N 
ATOM     14  H6  UNL     1       3.367  67.739  -8.173  1.00  0.00     0.168 HD
HETATM   15  C11 UNL     1       3.642  66.811  -6.399  1.00  0.00     0.174 A 
HETATM   16  N7  UNL     1       4.293  65.803  -5.679  1.00  0.00    -0.107 N 
ENDROOT
BRANCH   1  17
HETATM   17  N3  UNL     1       3.309  65.856  -3.476  1.00  0.00    -0.174 N 
HETATM   18  H3  UNL     1       3.427  66.825  -3.190  1.00  0.00     0.186 HD
BRANCH  17  19
HETATM   19  C2  UNL     1       2.237  65.211  -2.953  1.00  0.00     0.129 A 
HETATM   20  N2  UNL     1       1.957  63.901  -3.250  1.00  0.00    -0.322 N 
HETATM   21  C1  UNL     1       0.876  63.509  -2.627  1.00  0.00     0.143 A 
ATOM     22  H2  UNL     1       2.514  63.314  -3.871  1.00  0.00     0.169 HD
HETATM   23  S2  UNL     1       0.149  64.684  -1.609  1.00  0.00    -0.062 SA
HETATM   24  C18 UNL     1       1.359  65.808  -2.072  1.00  0.00     0.102 A 
BRANCH  21  25
HETATM   25  N1  UNL     1       0.372  62.269  -2.744  1.00  0.00    -0.380 N 
HETATM   26  H1  UNL     1      -0.149  61.898  -1.961  1.00  0.00     0.158 HD
HETATM   27  H2  UNL     1       1.011  61.604  -3.170  1.00  0.00     0.158 HD
ENDBRANCH  21  25
ENDBRANCH  17  19
ENDBRANCH   1  17
BRANCH  15  28
HETATM   28  S1  UNL     1       2.480  67.888  -5.628  1.00  0.00    -0.053 SA
BRANCH  28  29
HETATM   29  C12 UNL     1       0.967  67.138  -6.202  1.00  0.00     0.008 A 
HETATM   30  C13 UNL     1       0.806  65.749  -6.138  1.00  0.00     0.020 A 
HETATM   31  C14 UNL     1      -0.378  65.156  -6.586  1.00  0.00     0.020 A 
HETATM   32  C15 UNL     1      -1.398  65.952  -7.103  1.00  0.00     0.011 A 
HETATM   33 BR1  UNL     1      -2.998  65.149  -7.710  1.00  0.00    -0.051 Br
HETATM   34  C16 UNL     1      -1.247  67.334  -7.174  1.00  0.00     0.020 A 
HETATM   35  C17 UNL     1      -0.063  67.926  -6.727  1.00  0.00     0.020 A 
ENDBRANCH  28  29
ENDBRANCH  15  28
TORSDOF 5
ENDMDL
MODEL 7
REMARK minimizedAffinity -6.98246431
REMARK  5 active torsions:
REMARK  status: ('A' for Active; 'I' for Inactive)
REMARK    1  A    between atoms: N1_1  and  C1_2 
REMARK    2  A    between atoms: C2_5  and  N3_6 
REMARK    3  A    between atoms: N3_6  and  C3_7 
REMARK    4  A    between atoms: C11_21  and  S1_22 
REMARK    5  A    between atoms: S1_22  and  C12_23 
ROOT
HETATM    1  C3  UNL     1      16.023  35.507  17.916  1.00  0.00     0.708 A 
HETATM    2  N4  UNL     1      16.897  34.612  18.341  1.00  0.00    -0.130 N 
ATOM      3  H4  UNL     1      17.026  34.328  19.312  1.00  0.00     0.205 HD
HETATM    4  N5  UNL     1      17.606  34.124  17.270  1.00  0.00    -0.269 N 
ATOM      5  H5  UNL     1      18.339  33.414  17.302  1.00  0.00     0.189 HD
HETATM    6  C4  UNL     1      17.165  34.739  16.201  1.00  0.00     0.158 A 
HETATM    7  C5  UNL     1      17.548  34.602  14.814  1.00  0.00     0.037 A 
HETATM    8  C6  UNL     1      18.516  33.694  14.380  1.00  0.00     0.017 A 
HETATM    9  C7  UNL     1      18.822  33.612  13.021  1.00  0.00     0.001 A 
HETATM   10  C8  UNL     1      18.160  34.432  12.104  1.00  0.00     0.002 A 
HETATM   11  C9  UNL     1      17.193  35.341  12.543  1.00  0.00     0.030 A 
HETATM   12  C10 UNL     1      16.880  35.436  13.898  1.00  0.00     0.048 A 
HETATM   13  N6  UNL     1      15.908  36.377  14.315  1.00  0.00    -0.335 N 
ATOM     14  H6  UNL     1      15.449  36.978  13.631  1.00  0.00     0.168 HD
HETATM   15  C11 UNL     1      15.603  36.471  15.581  1.00  0.00     0.174 A 
HETATM   16  N7  UNL     1      16.192  35.647  16.546  1.00  0.00    -0.107 N 
ENDROOT
BRANCH   1  17
HETATM   17  N3  UNL     1      15.083  36.199  18.618  1.00  0.00    -0.174 N 
HETATM   18  H3  UNL     1      15.329  37.137  18.923  1.00  0.00     0.186 HD
BRANCH  17  19
HETATM   19  C2  UNL     1      13.827  35.787  18.921  1.00  0.00     0.129 A 
HETATM   20  N2  UNL     1      12.794  36.670  19.107  1.00  0.00    -0.322 N 
HETATM   21  C1  UNL     1      11.688  36.031  19.389  1.00  0.00     0.143 A 
ATOM     22  H2  UNL     1      12.876  37.684  19.036  1.00  0.00     0.169 HD
HETATM   23  S2  UNL     1      11.814  34.320  19.408  1.00  0.00    -0.062 SA
HETATM   24  C18 UNL     1      13.485  34.457  19.045  1.00  0.00     0.102 A 
BRANCH  21  25
HETATM   25  N1  UNL     1      10.521  36.655  19.624  1.00  0.00    -0.380 N 
HETATM   26  H1  UNL     1       9.669  36.157  19.401  1.00  0.00     0.158 HD
HETATM   27  H2  UNL     1      10.515  37.633  19.349  1.00  0.00     0.158 HD
ENDBRANCH  21  25
ENDBRANCH  17  19
ENDBRANCH   1  17
BRANCH  15  28
HETATM   28  S1  UNL     1      14.419  37.700  16.020  1.00  0.00    -0.053 SA
BRANCH  28  29
HETATM   29  C12 UNL     1      15.380  39.162  15.673  1.00  0.00     0.008 A 
HETATM   30  C13 UNL     1      15.640  40.087  16.690  1.00  0.00     0.020 A 
HETATM   31  C14 UNL     1      16.393  41.234  16.423  1.00  0.00     0.020 A 
HETATM   32  C15 UNL     1      16.881  41.459  15.138  1.00  0.00     0.011 A 
HETATM   33 BR1  UNL     1      17.897  43.011  14.778  1.00  0.00    -0.051 Br
HETATM   34  C16 UNL     1      16.625  40.547  14.117  1.00  0.00     0.020 A 
HETATM   35  C17 UNL     1      15.872  39.401  14.384  1.00  0.00     0.020 A 
ENDBRANCH  28  29
ENDBRANCH  15  28
TORSDOF 5
ENDMDL
MODEL 8
REMARK minimizedAffinity -6.94927263
REMARK  5 active torsions:
REMARK  status: ('A' for Active; 'I' for Inactive)
REMARK    1  A    between atoms: N1_1  and  C1_2 
REMARK    2  A    between atoms: C2_5  and  N3_6 
REMARK    3  A    between atoms: N3_6  and  C3_7 
REMARK    4  A    between atoms: C11_21  and  S1_22 
REMARK    5  A    between atoms: S1_22  and  C12_23 
ROOT
HETATM    1  C3  UNL     1       4.116  65.414  -8.764  1.00  0.00     0.708 A 
HETATM    2  N4  UNL     1       2.830  65.559  -9.034  1.00  0.00    -0.130 N 
ATOM      3  H4  UNL     1       2.429  65.633  -9.969  1.00  0.00     0.205 HD
HETATM    4  N5  UNL     1       2.119  65.596  -7.860  1.00  0.00    -0.269 N 
ATOM      5  H5  UNL     1       1.107  65.690  -7.768  1.00  0.00     0.189 HD
HETATM    6  C4  UNL     1       2.982  65.487  -6.881  1.00  0.00     0.158 A 
HETATM    7  C5  UNL     1       2.779  65.453  -5.450  1.00  0.00     0.037 A 
HETATM    8  C6  UNL     1       1.515  65.518  -4.861  1.00  0.00     0.017 A 
HETATM    9  C7  UNL     1       1.401  65.468  -3.471  1.00  0.00     0.001 A 
HETATM   10  C8  UNL     1       2.546  65.351  -2.679  1.00  0.00     0.002 A 
HETATM   11  C9  UNL     1       3.809  65.289  -3.272  1.00  0.00     0.030 A 
HETATM   12  C10 UNL     1       3.939  65.342  -4.660  1.00  0.00     0.048 A 
HETATM   13  N6  UNL     1       5.232  65.293  -5.232  1.00  0.00    -0.335 N 
ATOM     14  H6  UNL     1       6.056  65.225  -4.634  1.00  0.00     0.168 HD
HETATM   15  C11 UNL     1       5.365  65.336  -6.529  1.00  0.00     0.174 A 
HETATM   16  N7  UNL     1       4.259  65.404  -7.384  1.00  0.00    -0.107 N 
ENDROOT
BRANCH   1  17
HETATM   17  N3  UNL     1       5.169  65.276  -9.616  1.00  0.00    -0.174 N 
HETATM   18  H3  UNL     1       5.663  66.123  -9.884  1.00  0.00     0.186 HD
BRANCH  17  19
HETATM   19  C2  UNL     1       5.662  64.117 -10.118  1.00  0.00     0.129 A 
HETATM   20  N2  UNL     1       5.374  62.898  -9.560  1.00  0.00    -0.322 N 
HETATM   21  C1  UNL     1       5.967  61.937 -10.221  1.00  0.00     0.143 A 
ATOM     22  H2  UNL     1       4.779  62.759  -8.742  1.00  0.00     0.169 HD
HETATM   23  S2  UNL     1       6.879  62.440 -11.585  1.00  0.00    -0.062 SA
HETATM   24  C18 UNL     1       6.472  64.069 -11.234  1.00  0.00     0.102 A 
BRANCH  21  25
HETATM   25  N1  UNL     1       5.857  60.641  -9.884  1.00  0.00    -0.380 N 
HETATM   26  H1  UNL     1       5.942  59.955 -10.623  1.00  0.00     0.158 HD
HETATM   27  H2  UNL     1       5.110  60.449  -9.223  1.00  0.00     0.158 HD
ENDBRANCH  21  25
ENDBRANCH  17  19
ENDBRANCH   1  17
BRANCH  15  28
HETATM   28  S1  UNL     1       7.011  65.318  -7.157  1.00  0.00    -0.053 SA
BRANCH  28  29
HETATM   29  C12 UNL     1       7.455  63.638  -6.755  1.00  0.00     0.008 A 
HETATM   30  C13 UNL     1       6.851  62.996  -5.668  1.00  0.00     0.020 A 
HETATM   31  C14 UNL     1       7.194  61.679  -5.349  1.00  0.00     0.020 A 
HETATM   32  C15 UNL     1       8.145  61.006  -6.114  1.00  0.00     0.011 A 
HETATM   33 BR1  UNL     1       8.609  59.227  -5.681  1.00  0.00    -0.051 Br
HETATM   34  C16 UNL     1       8.754  61.637  -7.196  1.00  0.00     0.020 A 
HETATM   35  C17 UNL     1       8.411  62.953  -7.514  1.00  0.00     0.020 A 
ENDBRANCH  28  29
ENDBRANCH  15  28
TORSDOF 5
ENDMDL
MODEL 9
REMARK minimizedAffinity -6.94131517
REMARK  5 active torsions:
REMARK  status: ('A' for Active; 'I' for Inactive)
REMARK    1  A    between atoms: N1_1  and  C1_2 
REMARK    2  A    between atoms: C2_5  and  N3_6 
REMARK    3  A    between atoms: N3_6  and  C3_7 
REMARK    4  A    between atoms: C11_21  and  S1_22 
REMARK    5  A    between atoms: S1_22  and  C12_23 
ROOT
HETATM    1  C3  UNL     1      16.008  53.055   5.326  1.00  0.00     0.708 A 
HETATM    2  N4  UNL     1      14.712  52.830   5.454  1.00  0.00    -0.130 N 
ATOM      3  H4  UNL     1      14.296  51.990   5.857  1.00  0.00     0.205 HD
HETATM    4  N5  UNL     1      14.012  53.903   4.959  1.00  0.00    -0.269 N 
ATOM      5  H5  UNL     1      12.997  54.007   4.938  1.00  0.00     0.189 HD
HETATM    6  C4  UNL     1      14.892  54.769   4.519  1.00  0.00     0.158 A 
HETATM    7  C5  UNL     1      14.708  56.070   3.916  1.00  0.00     0.037 A 
HETATM    8  C6  UNL     1      13.450  56.645   3.720  1.00  0.00     0.017 A 
HETATM    9  C7  UNL     1      13.356  57.911   3.142  1.00  0.00     0.001 A 
HETATM   10  C8  UNL     1      14.514  58.596   2.765  1.00  0.00     0.002 A 
HETATM   11  C9  UNL     1      15.770  58.016   2.960  1.00  0.00     0.030 A 
HETATM   12  C10 UNL     1      15.879  56.750   3.534  1.00  0.00     0.048 A 
HETATM   13  N6  UNL     1      17.164  56.181   3.705  1.00  0.00    -0.335 N 
ATOM     14  H6  UNL     1      17.995  56.691   3.407  1.00  0.00     0.168 HD
HETATM   15  C11 UNL     1      17.278  54.999   4.246  1.00  0.00     0.174 A 
HETATM   16  N7  UNL     1      16.164  54.278   4.690  1.00  0.00    -0.107 N 
ENDROOT
BRANCH   1  17
HETATM   17  N3  UNL     1      17.062  52.292   5.728  1.00  0.00    -0.174 N 
HETATM   18  H3  UNL     1      17.826  52.767   6.202  1.00  0.00     0.186 HD
BRANCH  17  19
HETATM   19  C2  UNL     1      17.187  50.947   5.604  1.00  0.00     0.129 A 
HETATM   20  N2  UNL     1      16.830  50.283   4.458  1.00  0.00    -0.322 N 
HETATM   21  C1  UNL     1      17.043  48.999   4.585  1.00  0.00     0.143 A 
ATOM     22  H2  UNL     1      16.451  50.729   3.622  1.00  0.00     0.169 HD
HETATM   23  S2  UNL     1      17.725  48.513   6.082  1.00  0.00    -0.062 SA
HETATM   24  C18 UNL     1      17.697  50.147   6.605  1.00  0.00     0.102 A 
BRANCH  21  25
HETATM   25  N1  UNL     1      16.775  48.113   3.611  1.00  0.00    -0.380 N 
HETATM   26  H1  UNL     1      17.332  47.270   3.577  1.00  0.00     0.158 HD
HETATM   27  H2  UNL     1      16.608  48.537   2.703  1.00  0.00     0.158 HD
ENDBRANCH  21  25
ENDBRANCH  17  19
ENDBRANCH   1  17
BRANCH  15  28
HETATM   28  S1  UNL     1      18.909  54.344   4.378  1.00  0.00    -0.053 SA
BRANCH  28  29
HETATM   29  C12 UNL     1      19.232  54.719   6.091  1.00  0.00     0.008 A 
HETATM   30  C13 UNL     1      18.655  55.850   6.681  1.00  0.00     0.020 A 
HETATM   31  C14 UNL     1      18.903  56.149   8.024  1.00  0.00     0.020 A 
HETATM   32  C15 UNL     1      19.734  55.320   8.775  1.00  0.00     0.011 A 
HETATM   33 BR1  UNL     1      20.072  55.726  10.589  1.00  0.00    -0.051 Br
HETATM   34  C16 UNL     1      20.317  54.195   8.197  1.00  0.00     0.020 A 
HETATM   35  C17 UNL     1      20.068  53.897   6.855  1.00  0.00     0.020 A 
ENDBRANCH  28  29
ENDBRANCH  15  28
TORSDOF 5
ENDMDL
