MODEL 1
REMARK minimizedAffinity -9.76561928
REMARK  3 active torsions:
REMARK  status: ('A' for Active; 'I' for Inactive)
REMARK       I    between atoms: C1_2  and  N1_3 
REMARK       I    between atoms: C1_2  and  N6_23 
REMARK    1  A    between atoms: N1_3  and  C2_4 
REMARK    2  A    between atoms: N4_11  and  C6_12 
REMARK    3  A    between atoms: N6_23  and  C14_24 
ROOT
HETATM    1  C2  UNL     1      -4.845  48.621 -27.697  1.00  0.00     0.111 A 
HETATM    2  C3  UNL     1      -4.902  48.123 -26.397  1.00  0.00     0.080 A 
HETATM    3  C4  UNL     1      -3.988  48.676 -25.500  1.00  0.00     0.067 A 
HETATM    4  N2  UNL     1      -3.743  48.445 -24.177  1.00  0.00    -0.298 N 
HETATM    5  N3  UNL     1      -2.746  49.177 -23.669  1.00  0.00    -0.284 N 
ATOM      6  H3  UNL     1      -2.370  49.147 -22.721  1.00  0.00     0.188 HD
HETATM    7  C5  UNL     1      -2.351  49.957 -24.681  1.00  0.00     0.134 A 
HETATM    8  N4  UNL     1      -1.357  50.878 -24.634  1.00  0.00    -0.339 N 
HETATM    9  C12 UNL     1      -3.085  49.664 -25.868  1.00  0.00     0.053 A 
HETATM   10  C13 UNL     1      -3.105  50.111 -27.188  1.00  0.00     0.107 A 
HETATM   11  N5  UNL     1      -3.971  49.568 -28.083  1.00  0.00    -0.351 N 
ATOM     12  H5  UNL     1      -3.959  49.881 -29.054  1.00  0.00     0.166 HD
HETATM   13  H3  UNL     1      -4.214  47.793 -23.561  1.00  0.00     0.187 HD
HETATM   14  H4  UNL     1      -0.930  51.191 -25.500  1.00  0.00     0.167 HD
ENDROOT
BRANCH   1  15
HETATM   15  N1  UNL     1      -5.708  48.037 -28.633  1.00  0.00    -0.295 N 
HETATM   16  C1  UNL     1      -5.548  48.067 -29.998  1.00  0.00     0.322 C 
HETATM   17  O1  UNL     1      -4.782  48.767 -30.643  1.00  0.00    -0.247 OA
HETATM   18  N6  UNL     1      -6.424  47.177 -30.595  1.00  0.00    -0.334 N 
HETATM   19  H10 UNL     1      -6.635  46.361 -30.036  1.00  0.00     0.165 HD
HETATM   20  H1  UNL     1      -6.603  47.719 -28.304  1.00  0.00     0.172 HD
BRANCH  18  21
HETATM   21  C14 UNL     1      -6.407  46.967 -32.040  1.00  0.00     0.122 C 
HETATM   22  C15 UNL     1      -7.649  47.578 -32.710  1.00  0.00     0.032 C 
HETATM   23  C16 UNL     1      -8.988  47.104 -32.142  1.00  0.00     0.029 C 
HETATM   24  C17 UNL     1      -9.024  45.615 -31.844  1.00  0.00     0.175 C 
HETATM   25  O2  UNL     1      -8.466  44.872 -32.924  1.00  0.00    -0.351 OA
HETATM   26  C18 UNL     1      -7.136  44.586 -32.767  1.00  0.00     0.077 A 
HETATM   27  C19 UNL     1      -6.786  43.275 -33.110  1.00  0.00     0.037 A 
HETATM   28  C23 UNL     1      -6.156  45.499 -32.348  1.00  0.00    -0.002 A 
HETATM   29  C20 UNL     1      -5.467  42.839 -32.995  1.00  0.00     0.003 A 
HETATM   30  C21 UNL     1      -4.489  43.713 -32.538  1.00  0.00     0.001 A 
HETATM   31  C22 UNL     1      -4.830  45.030 -32.222  1.00  0.00     0.012 A 
ENDBRANCH  18  21
ENDBRANCH   1  15
BRANCH   8  32
HETATM   32  C6  UNL     1      -0.696  51.389 -23.491  1.00  0.00     0.055 A 
HETATM   33  C7  UNL     1      -0.907  50.732 -22.265  1.00  0.00     0.031 A 
HETATM   34  C8  UNL     1      -0.338  51.208 -21.082  1.00  0.00     0.002 A 
HETATM   35  C9  UNL     1       0.452  52.353 -21.101  1.00  0.00     0.002 A 
HETATM   36  C10 UNL     1       0.686  53.013 -22.305  1.00  0.00     0.026 A 
HETATM   37  C11 UNL     1       0.122  52.535 -23.494  1.00  0.00     0.060 A 
HETATM   38 CL1  UNL     1       0.582  53.348 -24.951  1.00  0.00    -0.082 Cl
ENDBRANCH   8  32
TORSDOF 3
ENDMDL
MODEL 2
REMARK minimizedAffinity -9.54061794
REMARK  3 active torsions:
REMARK  status: ('A' for Active; 'I' for Inactive)
REMARK       I    between atoms: C1_2  and  N1_3 
REMARK       I    between atoms: C1_2  and  N6_23 
REMARK    1  A    between atoms: N1_3  and  C2_4 
REMARK    2  A    between atoms: N4_11  and  C6_12 
REMARK    3  A    between atoms: N6_23  and  C14_24 
ROOT
HETATM    1  C2  UNL     1       0.677  52.574 -19.246  1.00  0.00     0.111 A 
HETATM    2  C3  UNL     1      -0.223  51.735 -19.901  1.00  0.00     0.080 A 
HETATM    3  C4  UNL     1      -0.263  51.863 -21.290  1.00  0.00     0.067 A 
HETATM    4  N2  UNL     1      -1.002  51.233 -22.250  1.00  0.00    -0.298 N 
HETATM    5  N3  UNL     1      -0.763  51.661 -23.494  1.00  0.00    -0.284 N 
ATOM      6  H3  UNL     1      -1.218  51.361 -24.356  1.00  0.00     0.188 HD
HETATM    7  C5  UNL     1       0.207  52.572 -23.355  1.00  0.00     0.134 A 
HETATM    8  N4  UNL     1       0.783  53.280 -24.359  1.00  0.00    -0.339 N 
HETATM    9  C12 UNL     1       0.543  52.756 -21.981  1.00  0.00     0.053 A 
HETATM   10  C13 UNL     1       1.422  53.550 -21.246  1.00  0.00     0.107 A 
HETATM   11  N5  UNL     1       1.459  53.458 -19.891  1.00  0.00    -0.351 N 
ATOM     12  H5  UNL     1       2.085  54.064 -19.359  1.00  0.00     0.166 HD
HETATM   13  H3  UNL     1      -1.697  50.506 -22.125  1.00  0.00     0.187 HD
HETATM   14  H4  UNL     1       1.272  54.142 -24.140  1.00  0.00     0.167 HD
ENDROOT
BRANCH   1  15
HETATM   15  N1  UNL     1       0.691  52.512 -17.847  1.00  0.00    -0.295 N 
HETATM   16  C1  UNL     1       0.388  51.402 -17.093  1.00  0.00     0.322 C 
HETATM   17  O1  UNL     1      -0.143  50.369 -17.468  1.00  0.00    -0.247 OA
HETATM   18  N6  UNL     1       0.758  51.614 -15.775  1.00  0.00    -0.334 N 
HETATM   19  H10 UNL     1       1.563  52.215 -15.659  1.00  0.00     0.165 HD
HETATM   20  H1  UNL     1       0.756  53.379 -17.345  1.00  0.00     0.172 HD
BRANCH  18  21
HETATM   21  C14 UNL     1       0.606  50.558 -14.778  1.00  0.00     0.122 C 
HETATM   22  C15 UNL     1      -0.774  50.620 -14.102  1.00  0.00     0.032 C 
HETATM   23  C16 UNL     1      -1.127  51.968 -13.474  1.00  0.00     0.029 C 
HETATM   24  C17 UNL     1       0.034  52.613 -12.736  1.00  0.00     0.175 C 
HETATM   25  O2  UNL     1       0.700  51.657 -11.915  1.00  0.00    -0.351 OA
HETATM   26  C18 UNL     1       1.778  51.067 -12.520  1.00  0.00     0.077 A 
HETATM   27  C19 UNL     1       2.904  50.947 -11.698  1.00  0.00     0.037 A 
HETATM   28  C23 UNL     1       1.797  50.566 -13.831  1.00  0.00    -0.002 A 
HETATM   29  C20 UNL     1       4.078  50.371 -12.181  1.00  0.00     0.003 A 
HETATM   30  C21 UNL     1       4.133  49.910 -13.490  1.00  0.00     0.001 A 
HETATM   31  C22 UNL     1       3.002  50.003 -14.305  1.00  0.00     0.012 A 
ENDBRANCH  18  21
ENDBRANCH   1  15
BRANCH   8  32
HETATM   32  C6  UNL     1       0.678  53.057 -25.753  1.00  0.00     0.055 A 
HETATM   33  C7  UNL     1      -0.159  53.913 -26.492  1.00  0.00     0.031 A 
HETATM   34  C8  UNL     1      -0.362  53.724 -27.860  1.00  0.00     0.002 A 
HETATM   35  C9  UNL     1       0.268  52.671 -28.517  1.00  0.00     0.002 A 
HETATM   36  C10 UNL     1       1.112  51.818 -27.809  1.00  0.00     0.026 A 
HETATM   37  C11 UNL     1       1.322  52.009 -26.439  1.00  0.00     0.060 A 
HETATM   38 CL1  UNL     1       2.489  50.979 -25.683  1.00  0.00    -0.082 Cl
ENDBRANCH   8  32
TORSDOF 3
ENDMDL
MODEL 3
REMARK minimizedAffinity -9.46733189
REMARK  3 active torsions:
REMARK  status: ('A' for Active; 'I' for Inactive)
REMARK       I    between atoms: C1_2  and  N1_3 
REMARK       I    between atoms: C1_2  and  N6_23 
REMARK    1  A    between atoms: N1_3  and  C2_4 
REMARK    2  A    between atoms: N4_11  and  C6_12 
REMARK    3  A    between atoms: N6_23  and  C14_24 
ROOT
HETATM    1  C2  UNL     1      -4.729  48.704 -26.738  1.00  0.00     0.111 A 
HETATM    2  C3  UNL     1      -4.784  48.296 -25.405  1.00  0.00     0.080 A 
HETATM    3  C4  UNL     1      -3.839  48.875 -24.560  1.00  0.00     0.067 A 
HETATM    4  N2  UNL     1      -3.583  48.725 -23.226  1.00  0.00    -0.298 N 
HETATM    5  N3  UNL     1      -2.554  49.452 -22.781  1.00  0.00    -0.284 N 
ATOM      6  H3  UNL     1      -2.166  49.473 -21.838  1.00  0.00     0.188 HD
HETATM    7  C5  UNL     1      -2.146  50.148 -23.848  1.00  0.00     0.134 A 
HETATM    8  N4  UNL     1      -1.119  51.034 -23.875  1.00  0.00    -0.339 N 
HETATM    9  C12 UNL     1      -2.907  49.803 -25.004  1.00  0.00     0.053 A 
HETATM   10  C13 UNL     1      -2.930  50.161 -26.351  1.00  0.00     0.107 A 
HETATM   11  N5  UNL     1      -3.828  49.591 -27.196  1.00  0.00    -0.351 N 
ATOM     12  H5  UNL     1      -3.818  49.837 -28.187  1.00  0.00     0.166 HD
HETATM   13  H3  UNL     1      -4.068  48.133 -22.562  1.00  0.00     0.187 HD
HETATM   14  H4  UNL     1      -0.694  51.273 -24.766  1.00  0.00     0.167 HD
ENDROOT
BRANCH   1  15
HETATM   15  N1  UNL     1      -5.625  48.090 -27.621  1.00  0.00    -0.295 N 
HETATM   16  C1  UNL     1      -5.464  47.988 -28.983  1.00  0.00     0.322 C 
HETATM   17  O1  UNL     1      -4.658  48.580 -29.684  1.00  0.00    -0.247 OA
HETATM   18  N6  UNL     1      -6.391  47.101 -29.502  1.00  0.00    -0.334 N 
HETATM   19  H10 UNL     1      -6.650  46.352 -28.873  1.00  0.00     0.165 HD
HETATM   20  H1  UNL     1      -6.537  47.856 -27.269  1.00  0.00     0.172 HD
BRANCH  18  21
HETATM   21  C14 UNL     1      -6.387  46.761 -30.922  1.00  0.00     0.122 C 
HETATM   22  C15 UNL     1      -6.817  47.959 -31.785  1.00  0.00     0.032 C 
HETATM   23  C16 UNL     1      -8.167  48.573 -31.412  1.00  0.00     0.029 C 
HETATM   24  C17 UNL     1      -9.231  47.538 -31.084  1.00  0.00     0.175 C 
HETATM   25  O2  UNL     1      -9.227  46.490 -32.050  1.00  0.00    -0.351 OA
HETATM   26  C18 UNL     1      -8.465  45.410 -31.688  1.00  0.00     0.077 A 
HETATM   27  C19 UNL     1      -9.066  44.173 -31.941  1.00  0.00     0.037 A 
HETATM   28  C23 UNL     1      -7.170  45.478 -31.150  1.00  0.00    -0.002 A 
HETATM   29  C20 UNL     1      -8.410  42.986 -31.619  1.00  0.00     0.003 A 
HETATM   30  C21 UNL     1      -7.146  43.030 -31.043  1.00  0.00     0.001 A 
HETATM   31  C22 UNL     1      -6.532  44.263 -30.815  1.00  0.00     0.012 A 
ENDBRANCH  18  21
ENDBRANCH   1  15
BRANCH   8  32
HETATM   32  C6  UNL     1      -0.425  51.596 -22.777  1.00  0.00     0.055 A 
HETATM   33  C7  UNL     1      -0.577  50.980 -21.521  1.00  0.00     0.031 A 
HETATM   34  C8  UNL     1       0.028  51.507 -20.379  1.00  0.00     0.002 A 
HETATM   35  C9  UNL     1       0.796  52.663 -20.469  1.00  0.00     0.002 A 
HETATM   36  C10 UNL     1       0.972  53.283 -21.704  1.00  0.00     0.026 A 
HETATM   37  C11 UNL     1       0.373  52.754 -22.852  1.00  0.00     0.060 A 
HETATM   38 CL1  UNL     1       0.762  53.522 -24.354  1.00  0.00    -0.082 Cl
ENDBRANCH   8  32
TORSDOF 3
ENDMDL
MODEL 4
REMARK minimizedAffinity -9.25640488
REMARK  3 active torsions:
REMARK  status: ('A' for Active; 'I' for Inactive)
REMARK       I    between atoms: C1_2  and  N1_3 
REMARK       I    between atoms: C1_2  and  N6_23 
REMARK    1  A    between atoms: N1_3  and  C2_4 
REMARK    2  A    between atoms: N4_11  and  C6_12 
REMARK    3  A    between atoms: N6_23  and  C14_24 
ROOT
HETATM    1  C2  UNL     1      -5.492  48.012 -27.480  1.00  0.00     0.111 A 
HETATM    2  C3  UNL     1      -4.238  48.538 -27.786  1.00  0.00     0.080 A 
HETATM    3  C4  UNL     1      -3.518  49.044 -26.704  1.00  0.00     0.067 A 
HETATM    4  N2  UNL     1      -2.287  49.629 -26.613  1.00  0.00    -0.298 N 
HETATM    5  N3  UNL     1      -1.953  50.010 -25.375  1.00  0.00    -0.284 N 
ATOM      6  H3  UNL     1      -1.105  50.493 -25.078  1.00  0.00     0.188 HD
HETATM    7  C5  UNL     1      -2.979  49.614 -24.613  1.00  0.00     0.134 A 
HETATM    8  N4  UNL     1      -3.084  49.783 -23.271  1.00  0.00    -0.339 N 
HETATM    9  C12 UNL     1      -4.006  49.021 -25.406  1.00  0.00     0.053 A 
HETATM   10  C13 UNL     1      -5.266  48.468 -25.189  1.00  0.00     0.107 A 
HETATM   11  N5  UNL     1      -5.994  47.991 -26.232  1.00  0.00    -0.351 N 
ATOM     12  H5  UNL     1      -6.928  47.614 -26.068  1.00  0.00     0.166 HD
HETATM   13  H3  UNL     1      -1.626  49.810 -27.358  1.00  0.00     0.187 HD
HETATM   14  H4  UNL     1      -4.000  49.736 -22.836  1.00  0.00     0.167 HD
ENDROOT
BRANCH   1  15
HETATM   15  N1  UNL     1      -6.263  47.556 -28.557  1.00  0.00    -0.295 N 
HETATM   16  C1  UNL     1      -5.908  47.632 -29.883  1.00  0.00     0.322 C 
HETATM   17  O1  UNL     1      -4.999  48.281 -30.375  1.00  0.00    -0.247 OA
HETATM   18  N6  UNL     1      -6.767  46.857 -30.645  1.00  0.00    -0.334 N 
HETATM   19  H10 UNL     1      -7.128  46.042 -30.168  1.00  0.00     0.165 HD
HETATM   20  H1  UNL     1      -7.220  47.312 -28.372  1.00  0.00     0.172 HD
BRANCH  18  21
HETATM   21  C14 UNL     1      -6.564  46.711 -32.083  1.00  0.00     0.122 C 
HETATM   22  C15 UNL     1      -7.708  47.360 -32.880  1.00  0.00     0.032 C 
HETATM   23  C16 UNL     1      -9.110  46.872 -32.511  1.00  0.00     0.029 C 
HETATM   24  C17 UNL     1      -9.187  45.371 -32.286  1.00  0.00     0.175 C 
HETATM   25  O2  UNL     1      -8.495  44.672 -33.318  1.00  0.00    -0.351 OA
HETATM   26  C18 UNL     1      -7.197  44.370 -33.004  1.00  0.00     0.077 A 
HETATM   27  C19 UNL     1      -6.808  43.073 -33.356  1.00  0.00     0.037 A 
HETATM   28  C23 UNL     1      -6.278  45.256 -32.421  1.00  0.00    -0.002 A 
HETATM   29  C20 UNL     1      -5.515  42.622 -33.092  1.00  0.00     0.003 A 
HETATM   30  C21 UNL     1      -4.603  43.468 -32.474  1.00  0.00     0.001 A 
HETATM   31  C22 UNL     1      -4.979  44.773 -32.146  1.00  0.00     0.012 A 
ENDBRANCH  18  21
ENDBRANCH   1  15
BRANCH   8  32
HETATM   32  C6  UNL     1      -2.073  50.174 -22.361  1.00  0.00     0.055 A 
HETATM   33  C7  UNL     1      -1.819  51.550 -22.216  1.00  0.00     0.031 A 
HETATM   34  C8  UNL     1      -0.799  52.013 -21.382  1.00  0.00     0.002 A 
HETATM   35  C9  UNL     1      -0.011  51.109 -20.677  1.00  0.00     0.002 A 
HETATM   36  C10 UNL     1      -0.253  49.742 -20.795  1.00  0.00     0.026 A 
HETATM   37  C11 UNL     1      -1.278  49.274 -21.624  1.00  0.00     0.060 A 
HETATM   38 CL1  UNL     1      -1.581  47.570 -21.597  1.00  0.00    -0.082 Cl
ENDBRANCH   8  32
TORSDOF 3
ENDMDL
MODEL 5
REMARK minimizedAffinity -9.20496845
REMARK  3 active torsions:
REMARK  status: ('A' for Active; 'I' for Inactive)
REMARK       I    between atoms: C1_2  and  N1_3 
REMARK       I    between atoms: C1_2  and  N6_23 
REMARK    1  A    between atoms: N1_3  and  C2_4 
REMARK    2  A    between atoms: N4_11  and  C6_12 
REMARK    3  A    between atoms: N6_23  and  C14_24 
ROOT
HETATM    1  C2  UNL     1       0.850  52.936 -18.826  1.00  0.00     0.111 A 
HETATM    2  C3  UNL     1      -0.028  52.008 -19.383  1.00  0.00     0.080 A 
HETATM    3  C4  UNL     1      -0.116  52.023 -20.775  1.00  0.00     0.067 A 
HETATM    4  N2  UNL     1      -0.853  51.286 -21.658  1.00  0.00    -0.298 N 
HETATM    5  N3  UNL     1      -0.673  51.625 -22.938  1.00  0.00    -0.284 N 
ATOM      6  H3  UNL     1      -1.139  51.237 -23.759  1.00  0.00     0.188 HD
HETATM    7  C5  UNL     1       0.256  52.586 -22.904  1.00  0.00     0.134 A 
HETATM    8  N4  UNL     1       0.767  53.238 -23.980  1.00  0.00    -0.339 N 
HETATM    9  C12 UNL     1       0.624  52.894 -21.561  1.00  0.00     0.053 A 
HETATM   10  C13 UNL     1       1.486  53.783 -20.921  1.00  0.00     0.107 A 
HETATM   11  N5  UNL     1       1.569  53.801 -19.565  1.00  0.00    -0.351 N 
ATOM     12  H5  UNL     1       2.181  54.475 -19.103  1.00  0.00     0.166 HD
HETATM   13  H3  UNL     1      -1.509  50.541 -21.453  1.00  0.00     0.187 HD
HETATM   14  H4  UNL     1       1.220  54.136 -23.845  1.00  0.00     0.167 HD
ENDROOT
BRANCH   1  15
HETATM   15  N1  UNL     1       0.909  52.986 -17.428  1.00  0.00    -0.295 N 
HETATM   16  C1  UNL     1       0.904  51.897 -16.588  1.00  0.00     0.322 C 
HETATM   17  O1  UNL     1       0.634  50.740 -16.870  1.00  0.00    -0.247 OA
HETATM   18  N6  UNL     1       1.239  52.292 -15.304  1.00  0.00    -0.334 N 
HETATM   19  H10 UNL     1       1.876  53.077 -15.261  1.00  0.00     0.165 HD
HETATM   20  H1  UNL     1       0.772  53.879 -16.989  1.00  0.00     0.172 HD
BRANCH  18  21
HETATM   21  C14 UNL     1       1.373  51.310 -14.231  1.00  0.00     0.122 C 
HETATM   22  C15 UNL     1       0.172  50.349 -14.199  1.00  0.00     0.032 C 
HETATM   23  C16 UNL     1      -1.195  51.026 -14.103  1.00  0.00     0.029 C 
HETATM   24  C17 UNL     1      -1.222  52.199 -13.137  1.00  0.00     0.175 C 
HETATM   25  O2  UNL     1      -0.566  51.861 -11.918  1.00  0.00    -0.351 OA
HETATM   26  C18 UNL     1       0.755  52.225 -11.884  1.00  0.00     0.077 A 
HETATM   27  C19 UNL     1       1.158  52.807 -10.677  1.00  0.00     0.037 A 
HETATM   28  C23 UNL     1       1.679  52.015 -12.919  1.00  0.00    -0.002 A 
HETATM   29  C20 UNL     1       2.474  53.232 -10.500  1.00  0.00     0.003 A 
HETATM   30  C21 UNL     1       3.395  53.076 -11.529  1.00  0.00     0.001 A 
HETATM   31  C22 UNL     1       3.001  52.470 -12.724  1.00  0.00     0.012 A 
ENDBRANCH  18  21
ENDBRANCH   1  15
BRANCH   8  32
HETATM   32  C6  UNL     1       0.630  52.900 -25.347  1.00  0.00     0.055 A 
HETATM   33  C7  UNL     1       0.871  51.565 -25.720  1.00  0.00     0.031 A 
HETATM   34  C8  UNL     1       0.813  51.166 -27.057  1.00  0.00     0.002 A 
HETATM   35  C9  UNL     1       0.514  52.094 -28.048  1.00  0.00     0.002 A 
HETATM   36  C10 UNL     1       0.258  53.419 -27.702  1.00  0.00     0.026 A 
HETATM   37  C11 UNL     1       0.309  53.822 -26.363  1.00  0.00     0.060 A 
HETATM   38 CL1  UNL     1      -0.154  55.456 -26.026  1.00  0.00    -0.082 Cl
ENDBRANCH   8  32
TORSDOF 3
ENDMDL
MODEL 6
REMARK minimizedAffinity -9.18083858
REMARK  3 active torsions:
REMARK  status: ('A' for Active; 'I' for Inactive)
REMARK       I    between atoms: C1_2  and  N1_3 
REMARK       I    between atoms: C1_2  and  N6_23 
REMARK    1  A    between atoms: N1_3  and  C2_4 
REMARK    2  A    between atoms: N4_11  and  C6_12 
REMARK    3  A    between atoms: N6_23  and  C14_24 
ROOT
HETATM    1  C2  UNL     1      -3.586  48.764 -26.613  1.00  0.00     0.111 A 
HETATM    2  C3  UNL     1      -3.722  48.460 -25.259  1.00  0.00     0.080 A 
HETATM    3  C4  UNL     1      -2.882  49.165 -24.397  1.00  0.00     0.067 A 
HETATM    4  N2  UNL     1      -2.724  49.138 -23.041  1.00  0.00    -0.298 N 
HETATM    5  N3  UNL     1      -1.778  49.965 -22.583  1.00  0.00    -0.284 N 
ATOM      6  H3  UNL     1      -1.467  50.086 -21.619  1.00  0.00     0.188 HD
HETATM    7  C5  UNL     1      -1.331  50.600 -23.672  1.00  0.00     0.134 A 
HETATM    8  N4  UNL     1      -0.360  51.547 -23.698  1.00  0.00    -0.339 N 
HETATM    9  C12 UNL     1      -1.976  50.115 -24.848  1.00  0.00     0.053 A 
HETATM   10  C13 UNL     1      -1.914  50.363 -26.219  1.00  0.00     0.107 A 
HETATM   11  N5  UNL     1      -2.707  49.670 -27.077  1.00  0.00    -0.351 N 
ATOM     12  H5  UNL     1      -2.634  49.837 -28.081  1.00  0.00     0.166 HD
HETATM   13  H3  UNL     1      -3.222  48.569 -22.367  1.00  0.00     0.187 HD
HETATM   14  H4  UNL     1       0.119  51.743 -24.572  1.00  0.00     0.167 HD
ENDROOT
BRANCH   1  15
HETATM   15  N1  UNL     1      -4.372  48.024 -27.505  1.00  0.00    -0.295 N 
HETATM   16  C1  UNL     1      -5.730  47.830 -27.405  1.00  0.00     0.322 C 
HETATM   17  O1  UNL     1      -6.447  48.065 -26.444  1.00  0.00    -0.247 OA
HETATM   18  N6  UNL     1      -6.215  47.285 -28.581  1.00  0.00    -0.334 N 
HETATM   19  H10 UNL     1      -5.711  47.567 -29.411  1.00  0.00     0.165 HD
HETATM   20  H1  UNL     1      -3.895  47.445 -28.173  1.00  0.00     0.172 HD
BRANCH  18  21
HETATM   21  C14 UNL     1      -7.645  47.045 -28.759  1.00  0.00     0.122 C 
HETATM   22  C15 UNL     1      -8.091  45.759 -28.043  1.00  0.00     0.032 C 
HETATM   23  C16 UNL     1      -7.312  44.501 -28.429  1.00  0.00     0.029 C 
HETATM   24  C17 UNL     1      -7.026  44.401 -29.918  1.00  0.00     0.175 C 
HETATM   25  O2  UNL     1      -8.192  44.713 -30.676  1.00  0.00    -0.351 OA
HETATM   26  C18 UNL     1      -8.263  46.025 -31.063  1.00  0.00     0.077 A 
HETATM   27  C19 UNL     1      -8.672  46.212 -32.387  1.00  0.00     0.037 A 
HETATM   28  C23 UNL     1      -8.004  47.128 -30.234  1.00  0.00    -0.002 A 
HETATM   29  C20 UNL     1      -8.784  47.494 -32.922  1.00  0.00     0.003 A 
HETATM   30  C21 UNL     1      -8.489  48.599 -32.133  1.00  0.00     0.001 A 
HETATM   31  C22 UNL     1      -8.107  48.417 -30.802  1.00  0.00     0.012 A 
ENDBRANCH  18  21
ENDBRANCH   1  15
BRANCH   8  32
HETATM   32  C6  UNL     1       0.211  52.239 -22.603  1.00  0.00     0.055 A 
HETATM   33  C7  UNL     1       0.188  51.608 -21.346  1.00  0.00     0.031 A 
HETATM   34  C8  UNL     1       0.679  52.248 -20.206  1.00  0.00     0.002 A 
HETATM   35  C9  UNL     1       1.200  53.534 -20.300  1.00  0.00     0.002 A 
HETATM   36  C10 UNL     1       1.245  54.174 -21.537  1.00  0.00     0.026 A 
HETATM   37  C11 UNL     1       0.761  53.534 -22.682  1.00  0.00     0.060 A 
HETATM   38 CL1  UNL     1       0.984  54.360 -24.187  1.00  0.00    -0.082 Cl
ENDBRANCH   8  32
TORSDOF 3
ENDMDL
MODEL 7
REMARK minimizedAffinity -9.17512989
REMARK  3 active torsions:
REMARK  status: ('A' for Active; 'I' for Inactive)
REMARK       I    between atoms: C1_2  and  N1_3 
REMARK       I    between atoms: C1_2  and  N6_23 
REMARK    1  A    between atoms: N1_3  and  C2_4 
REMARK    2  A    between atoms: N4_11  and  C6_12 
REMARK    3  A    between atoms: N6_23  and  C14_24 
ROOT
HETATM    1  C2  UNL     1      -5.985  47.687 -27.548  1.00  0.00     0.111 A 
HETATM    2  C3  UNL     1      -4.702  48.109 -27.892  1.00  0.00     0.080 A 
HETATM    3  C4  UNL     1      -3.947  48.649 -26.850  1.00  0.00     0.067 A 
HETATM    4  N2  UNL     1      -2.682  49.162 -26.802  1.00  0.00    -0.298 N 
HETATM    5  N3  UNL     1      -2.320  49.612 -25.596  1.00  0.00    -0.284 N 
ATOM      6  H3  UNL     1      -1.443  50.062 -25.335  1.00  0.00     0.188 HD
HETATM    7  C5  UNL     1      -3.366  49.340 -24.807  1.00  0.00     0.134 A 
HETATM    8  N4  UNL     1      -3.456  49.615 -23.482  1.00  0.00    -0.339 N 
HETATM    9  C12 UNL     1      -4.431  48.754 -25.554  1.00  0.00     0.053 A 
HETATM   10  C13 UNL     1      -5.723  48.298 -25.298  1.00  0.00     0.107 A 
HETATM   11  N5  UNL     1      -6.483  47.791 -26.303  1.00  0.00    -0.351 N 
ATOM     12  H5  UNL     1      -7.438  47.486 -26.112  1.00  0.00     0.166 HD
HETATM   13  H3  UNL     1      -2.014  49.244 -27.558  1.00  0.00     0.187 HD
HETATM   14  H4  UNL     1      -4.371  49.658 -23.045  1.00  0.00     0.167 HD
ENDROOT
BRANCH   1  15
HETATM   15  N1  UNL     1      -6.787  47.201 -28.588  1.00  0.00    -0.295 N 
HETATM   16  C1  UNL     1      -7.846  47.865 -29.160  1.00  0.00     0.322 C 
HETATM   17  O1  UNL     1      -8.411  48.865 -28.744  1.00  0.00    -0.247 OA
HETATM   18  N6  UNL     1      -8.238  47.218 -30.320  1.00  0.00    -0.334 N 
HETATM   19  H10 UNL     1      -7.486  46.755 -30.813  1.00  0.00     0.165 HD
HETATM   20  H1  UNL     1      -6.701  46.228 -28.825  1.00  0.00     0.172 HD
BRANCH  18  21
HETATM   21  C14 UNL     1      -9.303  47.764 -31.156  1.00  0.00     0.122 C 
HETATM   22  C15 UNL     1     -10.679  47.603 -30.488  1.00  0.00     0.032 C 
HETATM   23  C16 UNL     1     -11.035  46.173 -30.077  1.00  0.00     0.029 C 
HETATM   24  C17 UNL     1     -10.642  45.132 -31.113  1.00  0.00     0.175 C 
HETATM   25  O2  UNL     1     -11.019  45.557 -32.420  1.00  0.00    -0.351 OA
HETATM   26  C18 UNL     1     -10.020  46.201 -33.100  1.00  0.00     0.077 A 
HETATM   27  C19 UNL     1      -9.895  45.815 -34.438  1.00  0.00     0.037 A 
HETATM   28  C23 UNL     1      -9.193  47.202 -32.566  1.00  0.00    -0.002 A 
HETATM   29  C20 UNL     1      -8.915  46.383 -35.252  1.00  0.00     0.003 A 
HETATM   30  C21 UNL     1      -8.056  47.342 -34.732  1.00  0.00     0.001 A 
HETATM   31  C22 UNL     1      -8.197  47.751 -33.404  1.00  0.00     0.012 A 
ENDBRANCH  18  21
ENDBRANCH   1  15
BRANCH   8  32
HETATM   32  C6  UNL     1      -2.418  50.009 -22.603  1.00  0.00     0.055 A 
HETATM   33  C7  UNL     1      -2.159  51.385 -22.472  1.00  0.00     0.031 A 
HETATM   34  C8  UNL     1      -1.115  51.852 -21.670  1.00  0.00     0.002 A 
HETATM   35  C9  UNL     1      -0.309  50.949 -20.983  1.00  0.00     0.002 A 
HETATM   36  C10 UNL     1      -0.556  49.582 -21.086  1.00  0.00     0.026 A 
HETATM   37  C11 UNL     1      -1.604  49.112 -21.884  1.00  0.00     0.060 A 
HETATM   38 CL1  UNL     1      -1.909  47.408 -21.839  1.00  0.00    -0.082 Cl
ENDBRANCH   8  32
TORSDOF 3
ENDMDL
MODEL 8
REMARK minimizedAffinity -9.15181255
REMARK  3 active torsions:
REMARK  status: ('A' for Active; 'I' for Inactive)
REMARK       I    between atoms: C1_2  and  N1_3 
REMARK       I    between atoms: C1_2  and  N6_23 
REMARK    1  A    between atoms: N1_3  and  C2_4 
REMARK    2  A    between atoms: N4_11  and  C6_12 
REMARK    3  A    between atoms: N6_23  and  C14_24 
ROOT
HETATM    1  C2  UNL     1      -1.003  50.566 -14.870  1.00  0.00     0.111 A 
HETATM    2  C3  UNL     1      -2.154  50.586 -15.657  1.00  0.00     0.080 A 
HETATM    3  C4  UNL     1      -1.962  50.939 -16.993  1.00  0.00     0.067 A 
HETATM    4  N2  UNL     1      -2.827  51.071 -18.042  1.00  0.00    -0.298 N 
HETATM    5  N3  UNL     1      -2.248  51.459 -19.183  1.00  0.00    -0.284 N 
ATOM      6  H3  UNL     1      -2.698  51.653 -20.077  1.00  0.00     0.188 HD
HETATM    7  C5  UNL     1      -0.945  51.536 -18.890  1.00  0.00     0.134 A 
HETATM    8  N4  UNL     1       0.044  51.891 -19.749  1.00  0.00    -0.339 N 
HETATM    9  C12 UNL     1      -0.712  51.243 -17.514  1.00  0.00     0.053 A 
HETATM   10  C13 UNL     1       0.386  51.188 -16.657  1.00  0.00     0.107 A 
HETATM   11  N5  UNL     1       0.218  50.870 -15.347  1.00  0.00    -0.351 N 
ATOM     12  H5  UNL     1       1.023  50.861 -14.720  1.00  0.00     0.166 HD
HETATM   13  H3  UNL     1      -3.829  50.922 -18.046  1.00  0.00     0.187 HD
HETATM   14  H4  UNL     1       0.930  52.216 -19.376  1.00  0.00     0.167 HD
ENDROOT
BRANCH   1  15
HETATM   15  N1  UNL     1      -1.176  50.278 -13.511  1.00  0.00    -0.295 N 
HETATM   16  C1  UNL     1      -1.270  51.207 -12.501  1.00  0.00     0.322 C 
HETATM   17  O1  UNL     1      -1.009  52.398 -12.559  1.00  0.00    -0.247 OA
HETATM   18  N6  UNL     1      -1.700  50.594 -11.336  1.00  0.00    -0.334 N 
HETATM   19  H10 UNL     1      -2.316  49.805 -11.482  1.00  0.00     0.165 HD
HETATM   20  H1  UNL     1      -1.051  49.325 -13.219  1.00  0.00     0.172 HD
BRANCH  18  21
HETATM   21  C14 UNL     1      -1.948  51.376 -10.129  1.00  0.00     0.122 C 
HETATM   22  C15 UNL     1      -3.445  51.401  -9.776  1.00  0.00     0.032 C 
HETATM   23  C16 UNL     1      -4.365  51.887 -10.896  1.00  0.00     0.029 C 
HETATM   24  C17 UNL     1      -3.814  53.082 -11.655  1.00  0.00     0.175 C 
HETATM   25  O2  UNL     1      -3.302  54.058 -10.752  1.00  0.00    -0.351 OA
HETATM   26  C18 UNL     1      -1.957  53.941 -10.518  1.00  0.00     0.077 A 
HETATM   27  C19 UNL     1      -1.266  55.158 -10.521  1.00  0.00     0.037 A 
HETATM   28  C23 UNL     1      -1.284  52.740 -10.248  1.00  0.00    -0.002 A 
HETATM   29  C20 UNL     1       0.111  55.192 -10.303  1.00  0.00     0.003 A 
HETATM   30  C21 UNL     1       0.804  54.010 -10.080  1.00  0.00     0.001 A 
HETATM   31  C22 UNL     1       0.113  52.797 -10.048  1.00  0.00     0.012 A 
ENDBRANCH  18  21
ENDBRANCH   1  15
BRANCH   8  32
HETATM   32  C6  UNL     1      -0.030  52.017 -21.157  1.00  0.00     0.055 A 
HETATM   33  C7  UNL     1      -0.837  51.100 -21.855  1.00  0.00     0.031 A 
HETATM   34  C8  UNL     1      -0.917  51.121 -23.248  1.00  0.00     0.002 A 
HETATM   35  C9  UNL     1      -0.188  52.058 -23.973  1.00  0.00     0.002 A 
HETATM   36  C10 UNL     1       0.609  52.985 -23.303  1.00  0.00     0.026 A 
HETATM   37  C11 UNL     1       0.686  52.971 -21.906  1.00  0.00     0.060 A 
HETATM   38 CL1  UNL     1       1.596  54.245 -21.167  1.00  0.00    -0.082 Cl
ENDBRANCH   8  32
TORSDOF 3
ENDMDL
MODEL 9
REMARK minimizedAffinity -9.11335754
REMARK  3 active torsions:
REMARK  status: ('A' for Active; 'I' for Inactive)
REMARK       I    between atoms: C1_2  and  N1_3 
REMARK       I    between atoms: C1_2  and  N6_23 
REMARK    1  A    between atoms: N1_3  and  C2_4 
REMARK    2  A    between atoms: N4_11  and  C6_12 
REMARK    3  A    between atoms: N6_23  and  C14_24 
ROOT
HETATM    1  C2  UNL     1      -0.381  50.711 -19.187  1.00  0.00     0.111 A 
HETATM    2  C3  UNL     1       0.289  51.889 -18.859  1.00  0.00     0.080 A 
HETATM    3  C4  UNL     1       0.786  51.956 -17.558  1.00  0.00     0.067 A 
HETATM    4  N2  UNL     1       1.474  52.925 -16.885  1.00  0.00    -0.298 N 
HETATM    5  N3  UNL     1       1.756  52.615 -15.615  1.00  0.00    -0.284 N 
ATOM      6  H3  UNL     1       2.227  53.195 -14.921  1.00  0.00     0.188 HD
HETATM    7  C5  UNL     1       1.281  51.375 -15.458  1.00  0.00     0.134 A 
HETATM    8  N4  UNL     1       1.342  50.637 -14.321  1.00  0.00    -0.339 N 
HETATM    9  C12 UNL     1       0.636  50.920 -16.647  1.00  0.00     0.053 A 
HETATM   10  C13 UNL     1      -0.040  49.774 -17.063  1.00  0.00     0.107 A 
HETATM   11  N5  UNL     1      -0.552  49.699 -18.319  1.00  0.00    -0.351 N 
ATOM     12  H5  UNL     1      -1.070  48.867 -18.606  1.00  0.00     0.166 HD
HETATM   13  H3  UNL     1       1.776  53.829 -17.230  1.00  0.00     0.187 HD
HETATM   14  H4  UNL     1       0.703  49.858 -14.201  1.00  0.00     0.167 HD
ENDROOT
BRANCH   1  15
HETATM   15  N1  UNL     1      -0.945  50.645 -20.467  1.00  0.00    -0.295 N 
HETATM   16  C1  UNL     1      -1.106  51.706 -21.327  1.00  0.00     0.322 C 
HETATM   17  O1  UNL     1      -1.001  52.895 -21.071  1.00  0.00    -0.247 OA
HETATM   18  N6  UNL     1      -1.444  51.243 -22.587  1.00  0.00    -0.334 N 
HETATM   19  H10 UNL     1      -1.052  50.339 -22.819  1.00  0.00     0.165 HD
HETATM   20  H1  UNL     1      -1.428  49.800 -20.718  1.00  0.00     0.172 HD
BRANCH  18  21
HETATM   21  C14 UNL     1      -1.604  52.169 -23.705  1.00  0.00     0.122 C 
HETATM   22  C15 UNL     1      -3.081  52.301 -24.115  1.00  0.00     0.032 C 
HETATM   23  C16 UNL     1      -3.781  50.982 -24.442  1.00  0.00     0.029 C 
HETATM   24  C17 UNL     1      -2.921  50.025 -25.251  1.00  0.00     0.175 C 
HETATM   25  O2  UNL     1      -2.276  50.712 -26.320  1.00  0.00    -0.351 OA
HETATM   26  C18 UNL     1      -1.013  51.145 -26.014  1.00  0.00     0.077 A 
HETATM   27  C19 UNL     1      -0.070  50.927 -27.025  1.00  0.00     0.037 A 
HETATM   28  C23 UNL     1      -0.647  51.798 -24.827  1.00  0.00    -0.002 A 
HETATM   29  C20 UNL     1       1.259  51.311 -26.851  1.00  0.00     0.003 A 
HETATM   30  C21 UNL     1       1.652  51.917 -25.665  1.00  0.00     0.001 A 
HETATM   31  C22 UNL     1       0.708  52.162 -24.666  1.00  0.00     0.012 A 
ENDBRANCH  18  21
ENDBRANCH   1  15
BRANCH   8  32
HETATM   32  C6  UNL     1       2.108  50.893 -13.158  1.00  0.00     0.055 A 
HETATM   33  C7  UNL     1       3.297  50.162 -12.983  1.00  0.00     0.031 A 
HETATM   34  C8  UNL     1       4.077  50.314 -11.836  1.00  0.00     0.002 A 
HETATM   35  C9  UNL     1       3.683  51.200 -10.838  1.00  0.00     0.002 A 
HETATM   36  C10 UNL     1       2.516  51.945 -10.996  1.00  0.00     0.026 A 
HETATM   37  C11 UNL     1       1.735  51.800 -12.147  1.00  0.00     0.060 A 
HETATM   38 CL1  UNL     1       0.380  52.866 -12.305  1.00  0.00    -0.082 Cl
ENDBRANCH   8  32
TORSDOF 3
ENDMDL
