MODEL 1
REMARK minimizedAffinity -8.99867344
REMARK  6 active torsions:
REMARK  status: ('A' for Active; 'I' for Inactive)
REMARK    1  A    between atoms: O1_2  and  C2_3 
REMARK    2  A    between atoms: C2_3  and  C3_4 
REMARK    3  A    between atoms: C3_4  and  N1_5 
REMARK    4  A    between atoms: C3_4  and  C17_27 
REMARK       I    between atoms: N1_5  and  C4_6 
REMARK       I    between atoms: C4_6  and  N2_8 
REMARK    5  A    between atoms: N2_8  and  C5_9 
REMARK    6  A    between atoms: C8_15  and  C9_16 
ROOT
HETATM    1  C5  UNL     1       0.356  52.495 -19.777  1.00  0.00     0.111 A 
HETATM    2  C6  UNL     1       0.962  53.694 -20.125  1.00  0.00     0.080 A 
HETATM    3  C7  UNL     1       1.115  53.908 -21.495  1.00  0.00     0.065 A 
HETATM    4  N3  UNL     1       1.660  54.942 -22.201  1.00  0.00    -0.299 N 
HETATM    5  N4  UNL     1       1.636  54.771 -23.531  1.00  0.00    -0.299 N 
ATOM      6  H4  UNL     1       2.001  55.398 -24.248  1.00  0.00     0.187 HD
HETATM    7  C8  UNL     1       1.021  53.589 -23.708  1.00  0.00     0.072 A 
HETATM    8  C15 UNL     1       0.691  52.995 -22.451  1.00  0.00     0.036 A 
HETATM    9  C16 UNL     1       0.108  51.806 -22.010  1.00  0.00     0.105 A 
HETATM   10  N5  UNL     1      -0.054  51.574 -20.681  1.00  0.00    -0.351 N 
ATOM     11  H5  UNL     1      -0.487  50.706 -20.364  1.00  0.00     0.166 HD
HETATM   12  H10 UNL     1       2.073  55.791 -21.833  1.00  0.00     0.187 HD
ENDROOT
BRANCH   1  13
HETATM   13  N2  UNL     1       0.121  52.104 -18.459  1.00  0.00    -0.295 N 
HETATM   14  C4  UNL     1       0.964  52.181 -17.385  1.00  0.00     0.322 C 
HETATM   15  N1  UNL     1       0.375  51.668 -16.253  1.00  0.00    -0.332 N 
HETATM   16  O2  UNL     1       2.091  52.658 -17.378  1.00  0.00    -0.247 OA
HETATM   17  H7  UNL     1      -0.327  50.957 -16.398  1.00  0.00     0.165 HD
HETATM   18  H8  UNL     1      -0.837  51.834 -18.300  1.00  0.00     0.172 HD
BRANCH  15  19
HETATM   19  C3  UNL     1       1.117  51.579 -14.999  1.00  0.00     0.143 C 
BRANCH  19  20
HETATM   20  C2  UNL     1       0.416  52.274 -13.798  1.00  0.00     0.197 C 
BRANCH  20  21
HETATM   21  O1  UNL     1      -0.971  51.937 -13.657  1.00  0.00    -0.394 OA
HETATM   22  C1  UNL     1      -1.518  52.348 -12.411  1.00  0.00     0.201 C 
ENDBRANCH  20  21
ENDBRANCH  19  20
BRANCH  19  23
HETATM   23  C17 UNL     1       1.485  50.128 -14.725  1.00  0.00    -0.033 A 
HETATM   24  C18 UNL     1       2.613  49.825 -13.945  1.00  0.00     0.009 A 
HETATM   25  C19 UNL     1       2.980  48.500 -13.703  1.00  0.00     0.001 A 
HETATM   26  C20 UNL     1       2.228  47.459 -14.240  1.00  0.00     0.000 A 
HETATM   27  C21 UNL     1       1.111  47.741 -15.022  1.00  0.00     0.001 A 
HETATM   28  C22 UNL     1       0.743  49.064 -15.266  1.00  0.00     0.009 A 
ENDBRANCH  19  23
ENDBRANCH  15  19
ENDBRANCH   1  13
BRANCH   7  29
HETATM   29  C9  UNL     1       0.785  53.065 -25.053  1.00  0.00    -0.007 A 
HETATM   30  C10 UNL     1       1.411  51.875 -25.461  1.00  0.00     0.017 A 
HETATM   31  C11 UNL     1       1.191  51.361 -26.741  1.00  0.00     0.043 A 
HETATM   32  C12 UNL     1       0.352  52.040 -27.616  1.00  0.00     0.116 A 
HETATM   33  F1  UNL     1       0.141  51.549 -28.843  1.00  0.00    -0.206 F 
HETATM   34  C13 UNL     1      -0.268  53.225 -27.237  1.00  0.00     0.043 A 
HETATM   35  C14 UNL     1      -0.049  53.741 -25.957  1.00  0.00     0.017 A 
ENDBRANCH   7  29
TORSDOF 6
ENDMDL
MODEL 2
REMARK minimizedAffinity -8.99703026
REMARK  6 active torsions:
REMARK  status: ('A' for Active; 'I' for Inactive)
REMARK    1  A    between atoms: O1_2  and  C2_3 
REMARK    2  A    between atoms: C2_3  and  C3_4 
REMARK    3  A    between atoms: C3_4  and  N1_5 
REMARK    4  A    between atoms: C3_4  and  C17_27 
REMARK       I    between atoms: N1_5  and  C4_6 
REMARK       I    between atoms: C4_6  and  N2_8 
REMARK    5  A    between atoms: N2_8  and  C5_9 
REMARK    6  A    between atoms: C8_15  and  C9_16 
ROOT
HETATM    1  C5  UNL     1      -2.534  51.042 -26.980  1.00  0.00     0.111 A 
HETATM    2  C6  UNL     1      -1.424  51.739 -27.439  1.00  0.00     0.080 A 
HETATM    3  C7  UNL     1      -0.581  52.237 -26.446  1.00  0.00     0.065 A 
HETATM    4  N3  UNL     1       0.574  52.961 -26.509  1.00  0.00    -0.299 N 
HETATM    5  N4  UNL     1       1.094  53.272 -25.312  1.00  0.00    -0.299 N 
ATOM      6  H4  UNL     1       1.933  53.819 -25.119  1.00  0.00     0.187 HD
HETATM    7  C8  UNL     1       0.261  52.701 -24.426  1.00  0.00     0.072 A 
HETATM    8  C15 UNL     1      -0.824  52.053 -25.091  1.00  0.00     0.036 A 
HETATM    9  C16 UNL     1      -1.974  51.355 -24.719  1.00  0.00     0.105 A 
HETATM   10  N5  UNL     1      -2.811  50.857 -25.668  1.00  0.00    -0.351 N 
ATOM     11  H5  UNL     1      -3.647  50.343 -25.390  1.00  0.00     0.166 HD
HETATM   12  H10 UNL     1       1.056  53.283 -27.341  1.00  0.00     0.187 HD
ENDROOT
BRANCH   1  13
HETATM   13  N2  UNL     1      -3.490  50.474 -27.822  1.00  0.00    -0.295 N 
HETATM   14  C4  UNL     1      -3.963  49.191 -27.828  1.00  0.00     0.322 C 
HETATM   15  N1  UNL     1      -4.885  49.005 -28.831  1.00  0.00    -0.332 N 
HETATM   16  O2  UNL     1      -3.656  48.298 -27.048  1.00  0.00    -0.247 OA
HETATM   17  H7  UNL     1      -4.787  49.598 -29.643  1.00  0.00     0.165 HD
HETATM   18  H8  UNL     1      -3.937  51.154 -28.416  1.00  0.00     0.172 HD
BRANCH  15  19
HETATM   19  C3  UNL     1      -5.471  47.691 -29.075  1.00  0.00     0.143 C 
BRANCH  19  20
HETATM   20  C2  UNL     1      -6.746  47.401 -28.234  1.00  0.00     0.197 C 
BRANCH  20  21
HETATM   21  O1  UNL     1      -7.858  48.251 -28.546  1.00  0.00    -0.394 OA
HETATM   22  C1  UNL     1      -8.908  48.165 -27.592  1.00  0.00     0.201 C 
ENDBRANCH  20  21
ENDBRANCH  19  20
BRANCH  19  23
HETATM   23  C17 UNL     1      -5.677  47.492 -30.570  1.00  0.00    -0.033 A 
HETATM   24  C18 UNL     1      -6.727  48.155 -31.227  1.00  0.00     0.009 A 
HETATM   25  C19 UNL     1      -6.947  47.966 -32.593  1.00  0.00     0.001 A 
HETATM   26  C20 UNL     1      -6.124  47.111 -33.320  1.00  0.00     0.000 A 
HETATM   27  C21 UNL     1      -5.084  46.440 -32.683  1.00  0.00     0.001 A 
HETATM   28  C22 UNL     1      -4.863  46.626 -31.318  1.00  0.00     0.009 A 
ENDBRANCH  19  23
ENDBRANCH  15  19
ENDBRANCH   1  13
BRANCH   7  29
HETATM   29  C9  UNL     1       0.518  52.803 -22.988  1.00  0.00    -0.007 A 
HETATM   30  C10 UNL     1       0.058  51.798 -22.121  1.00  0.00     0.017 A 
HETATM   31  C11 UNL     1       0.301  51.881 -20.748  1.00  0.00     0.043 A 
HETATM   32  C12 UNL     1       0.993  52.973 -20.241  1.00  0.00     0.116 A 
HETATM   33  F1  UNL     1       1.225  53.054 -18.925  1.00  0.00    -0.206 F 
HETATM   34  C13 UNL     1       1.445  53.985 -21.079  1.00  0.00     0.043 A 
HETATM   35  C14 UNL     1       1.205  53.904 -22.453  1.00  0.00     0.017 A 
ENDBRANCH   7  29
TORSDOF 6
ENDMDL
MODEL 3
REMARK minimizedAffinity -8.79957581
REMARK  6 active torsions:
REMARK  status: ('A' for Active; 'I' for Inactive)
REMARK    1  A    between atoms: O1_2  and  C2_3 
REMARK    2  A    between atoms: C2_3  and  C3_4 
REMARK    3  A    between atoms: C3_4  and  N1_5 
REMARK    4  A    between atoms: C3_4  and  C17_27 
REMARK       I    between atoms: N1_5  and  C4_6 
REMARK       I    between atoms: C4_6  and  N2_8 
REMARK    5  A    between atoms: N2_8  and  C5_9 
REMARK    6  A    between atoms: C8_15  and  C9_16 
ROOT
HETATM    1  C5  UNL     1      -0.139  52.224 -21.639  1.00  0.00     0.111 A 
HETATM    2  C6  UNL     1       0.676  52.604 -22.697  1.00  0.00     0.080 A 
HETATM    3  C7  UNL     1       0.272  52.151 -23.952  1.00  0.00     0.065 A 
HETATM    4  N3  UNL     1       0.811  52.312 -25.196  1.00  0.00    -0.299 N 
HETATM    5  N4  UNL     1       0.127  51.699 -26.174  1.00  0.00    -0.299 N 
ATOM      6  H4  UNL     1       0.353  51.667 -27.168  1.00  0.00     0.187 HD
HETATM    7  C8  UNL     1      -0.922  51.138 -25.549  1.00  0.00     0.072 A 
HETATM    8  C15 UNL     1      -0.865  51.377 -24.142  1.00  0.00     0.036 A 
HETATM    9  C16 UNL     1      -1.616  51.027 -23.020  1.00  0.00     0.105 A 
HETATM   10  N5  UNL     1      -1.245  51.457 -21.785  1.00  0.00    -0.351 N 
ATOM     11  H5  UNL     1      -1.801  51.203 -20.968  1.00  0.00     0.166 HD
HETATM   12  H10 UNL     1       1.650  52.823 -25.444  1.00  0.00     0.187 HD
ENDROOT
BRANCH   1  13
HETATM   13  N2  UNL     1       0.105  52.579 -20.312  1.00  0.00    -0.295 N 
HETATM   14  C4  UNL     1       0.095  51.780 -19.202  1.00  0.00     0.322 C 
HETATM   15  N1  UNL     1       0.357  52.506 -18.064  1.00  0.00    -0.332 N 
HETATM   16  O2  UNL     1      -0.093  50.570 -19.178  1.00  0.00    -0.247 OA
HETATM   17  H7  UNL     1       0.098  53.481 -18.087  1.00  0.00     0.165 HD
HETATM   18  H8  UNL     1       0.426  53.529 -20.218  1.00  0.00     0.172 HD
BRANCH  15  19
HETATM   19  C3  UNL     1       0.326  51.873 -16.749  1.00  0.00     0.143 C 
BRANCH  19  20
HETATM   20  C2  UNL     1      -0.400  50.498 -16.726  1.00  0.00     0.197 C 
BRANCH  20  21
HETATM   21  O1  UNL     1      -1.567  50.468 -15.893  1.00  0.00    -0.394 OA
HETATM   22  C1  UNL     1      -2.760  50.782 -16.599  1.00  0.00     0.201 C 
ENDBRANCH  20  21
ENDBRANCH  19  20
BRANCH  19  23
HETATM   23  C17 UNL     1       1.733  51.822 -16.172  1.00  0.00    -0.033 A 
HETATM   24  C18 UNL     1       1.992  51.060 -15.022  1.00  0.00     0.009 A 
HETATM   25  C19 UNL     1       3.272  51.019 -14.464  1.00  0.00     0.001 A 
HETATM   26  C20 UNL     1       4.310  51.744 -15.046  1.00  0.00     0.000 A 
HETATM   27  C21 UNL     1       4.068  52.511 -16.183  1.00  0.00     0.001 A 
HETATM   28  C22 UNL     1       2.790  52.553 -16.741  1.00  0.00     0.009 A 
ENDBRANCH  19  23
ENDBRANCH  15  19
ENDBRANCH   1  13
BRANCH   7  29
HETATM   29  C9  UNL     1      -1.926  50.388 -26.306  1.00  0.00    -0.007 A 
HETATM   30  C10 UNL     1      -2.476  50.937 -27.476  1.00  0.00     0.017 A 
HETATM   31  C11 UNL     1      -3.431  50.230 -28.210  1.00  0.00     0.043 A 
HETATM   32  C12 UNL     1      -3.843  48.979 -27.770  1.00  0.00     0.116 A 
HETATM   33  F1  UNL     1      -4.759  48.300 -28.472  1.00  0.00    -0.206 F 
HETATM   34  C13 UNL     1      -3.321  48.422 -26.608  1.00  0.00     0.043 A 
HETATM   35  C14 UNL     1      -2.365  49.127 -25.872  1.00  0.00     0.017 A 
ENDBRANCH   7  29
TORSDOF 6
ENDMDL
MODEL 4
REMARK minimizedAffinity -8.7753582
REMARK  6 active torsions:
REMARK  status: ('A' for Active; 'I' for Inactive)
REMARK    1  A    between atoms: O1_2  and  C2_3 
REMARK    2  A    between atoms: C2_3  and  C3_4 
REMARK    3  A    between atoms: C3_4  and  N1_5 
REMARK    4  A    between atoms: C3_4  and  C17_27 
REMARK       I    between atoms: N1_5  and  C4_6 
REMARK       I    between atoms: C4_6  and  N2_8 
REMARK    5  A    between atoms: N2_8  and  C5_9 
REMARK    6  A    between atoms: C8_15  and  C9_16 
ROOT
HETATM    1  C5  UNL     1      -2.575  49.551 -25.923  1.00  0.00     0.111 A 
HETATM    2  C6  UNL     1      -1.513  50.277 -26.447  1.00  0.00     0.080 A 
HETATM    3  C7  UNL     1      -0.757  50.984 -25.512  1.00  0.00     0.065 A 
HETATM    4  N3  UNL     1       0.332  51.796 -25.647  1.00  0.00    -0.299 N 
HETATM    5  N4  UNL     1       0.775  52.316 -24.493  1.00  0.00    -0.299 N 
ATOM      6  H4  UNL     1       1.555  52.960 -24.357  1.00  0.00     0.187 HD
HETATM    7  C8  UNL     1      -0.038  51.799 -23.557  1.00  0.00     0.072 A 
HETATM    8  C15 UNL     1      -1.035  50.968 -24.152  1.00  0.00     0.036 A 
HETATM    9  C16 UNL     1      -2.134  50.225 -23.715  1.00  0.00     0.105 A 
HETATM   10  N5  UNL     1      -2.885  49.525 -24.605  1.00  0.00    -0.351 N 
ATOM     11  H5  UNL     1      -3.684  48.980 -24.280  1.00  0.00     0.166 HD
HETATM   12  H10 UNL     1       0.816  52.043 -26.503  1.00  0.00     0.187 HD
ENDROOT
BRANCH   1  13
HETATM   13  N2  UNL     1      -3.444  48.786 -26.701  1.00  0.00    -0.295 N 
HETATM   14  C4  UNL     1      -3.933  49.057 -27.949  1.00  0.00     0.322 C 
HETATM   15  N1  UNL     1      -4.788  48.068 -28.374  1.00  0.00    -0.332 N 
HETATM   16  O2  UNL     1      -3.657  50.027 -28.643  1.00  0.00    -0.247 OA
HETATM   17  H7  UNL     1      -5.274  47.557 -27.652  1.00  0.00     0.165 HD
HETATM   18  H8  UNL     1      -3.626  47.879 -26.300  1.00  0.00     0.172 HD
BRANCH  15  19
HETATM   19  C3  UNL     1      -5.488  48.182 -29.650  1.00  0.00     0.143 C 
BRANCH  19  20
HETATM   20  C2  UNL     1      -4.988  47.189 -30.737  1.00  0.00     0.197 C 
BRANCH  20  21
HETATM   21  O1  UNL     1      -4.515  47.822 -31.934  1.00  0.00    -0.394 OA
HETATM   22  C1  UNL     1      -4.501  46.949 -33.055  1.00  0.00     0.201 C 
ENDBRANCH  20  21
ENDBRANCH  19  20
BRANCH  19  23
HETATM   23  C17 UNL     1      -6.990  48.114 -29.416  1.00  0.00    -0.033 A 
HETATM   24  C18 UNL     1      -7.488  47.627 -28.196  1.00  0.00     0.009 A 
HETATM   25  C19 UNL     1      -8.864  47.535 -27.972  1.00  0.00     0.001 A 
HETATM   26  C20 UNL     1      -9.760  47.923 -28.965  1.00  0.00     0.000 A 
HETATM   27  C21 UNL     1      -9.283  48.400 -30.182  1.00  0.00     0.001 A 
HETATM   28  C22 UNL     1      -7.909  48.493 -30.409  1.00  0.00     0.009 A 
ENDBRANCH  19  23
ENDBRANCH  15  19
ENDBRANCH   1  13
BRANCH   7  29
HETATM   29  C9  UNL     1       0.152  52.123 -22.142  1.00  0.00    -0.007 A 
HETATM   30  C10 UNL     1       0.848  53.289 -21.778  1.00  0.00     0.017 A 
HETATM   31  C11 UNL     1       1.032  53.613 -20.433  1.00  0.00     0.043 A 
HETATM   32  C12 UNL     1       0.530  52.768 -19.451  1.00  0.00     0.116 A 
HETATM   33  F1  UNL     1       0.707  53.077 -18.160  1.00  0.00    -0.206 F 
HETATM   34  C13 UNL     1      -0.151  51.604 -19.788  1.00  0.00     0.043 A 
HETATM   35  C14 UNL     1      -0.337  51.278 -21.134  1.00  0.00     0.017 A 
ENDBRANCH   7  29
TORSDOF 6
ENDMDL
MODEL 5
REMARK minimizedAffinity -8.71050453
REMARK  6 active torsions:
REMARK  status: ('A' for Active; 'I' for Inactive)
REMARK    1  A    between atoms: O1_2  and  C2_3 
REMARK    2  A    between atoms: C2_3  and  C3_4 
REMARK    3  A    between atoms: C3_4  and  N1_5 
REMARK    4  A    between atoms: C3_4  and  C17_27 
REMARK       I    between atoms: N1_5  and  C4_6 
REMARK       I    between atoms: C4_6  and  N2_8 
REMARK    5  A    between atoms: N2_8  and  C5_9 
REMARK    6  A    between atoms: C8_15  and  C9_16 
ROOT
HETATM    1  C5  UNL     1       0.824  52.973 -19.637  1.00  0.00     0.111 A 
HETATM    2  C6  UNL     1       1.436  54.055 -20.255  1.00  0.00     0.080 A 
HETATM    3  C7  UNL     1       1.315  54.093 -21.644  1.00  0.00     0.065 A 
HETATM    4  N3  UNL     1       1.780  54.977 -22.575  1.00  0.00    -0.299 N 
HETATM    5  N4  UNL     1       1.465  54.659 -23.840  1.00  0.00    -0.299 N 
ATOM      6  H4  UNL     1       1.721  55.158 -24.692  1.00  0.00     0.187 HD
HETATM    7  C8  UNL     1       0.737  53.534 -23.732  1.00  0.00     0.072 A 
HETATM    8  C15 UNL     1       0.631  53.126 -22.367  1.00  0.00     0.036 A 
HETATM    9  C16 UNL     1       0.062  52.062 -21.665  1.00  0.00     0.105 A 
HETATM   10  N5  UNL     1       0.163  52.002 -20.311  1.00  0.00    -0.351 N 
ATOM     11  H5  UNL     1      -0.260  51.226 -19.802  1.00  0.00     0.166 HD
HETATM   12  H10 UNL     1       2.326  55.816 -22.413  1.00  0.00     0.187 HD
ENDROOT
BRANCH   1  13
HETATM   13  N2  UNL     1       0.839  52.763 -18.258  1.00  0.00    -0.295 N 
HETATM   14  C4  UNL     1       0.516  51.628 -17.567  1.00  0.00     0.322 C 
HETATM   15  N1  UNL     1       0.631  51.822 -16.210  1.00  0.00    -0.332 N 
HETATM   16  O2  UNL     1       0.188  50.551 -18.048  1.00  0.00    -0.247 OA
HETATM   17  H7  UNL     1       0.497  52.767 -15.882  1.00  0.00     0.165 HD
HETATM   18  H8  UNL     1       1.244  53.535 -17.753  1.00  0.00     0.172 HD
BRANCH  15  19
HETATM   19  C3  UNL     1       0.266  50.767 -15.270  1.00  0.00     0.143 C 
BRANCH  19  20
HETATM   20  C2  UNL     1       1.480  50.100 -14.564  1.00  0.00     0.197 C 
BRANCH  20  21
HETATM   21  O1  UNL     1       2.688  50.871 -14.628  1.00  0.00    -0.394 OA
HETATM   22  C1  UNL     1       3.698  50.392 -13.750  1.00  0.00     0.201 C 
ENDBRANCH  20  21
ENDBRANCH  19  20
BRANCH  19  23
HETATM   23  C17 UNL     1      -0.784  51.289 -14.300  1.00  0.00    -0.033 A 
HETATM   24  C18 UNL     1      -0.389  52.001 -13.155  1.00  0.00     0.009 A 
HETATM   25  C19 UNL     1      -1.336  52.467 -12.241  1.00  0.00     0.001 A 
HETATM   26  C20 UNL     1      -2.690  52.223 -12.455  1.00  0.00     0.000 A 
HETATM   27  C21 UNL     1      -3.099  51.512 -13.579  1.00  0.00     0.001 A 
HETATM   28  C22 UNL     1      -2.154  51.045 -14.494  1.00  0.00     0.009 A 
ENDBRANCH  19  23
ENDBRANCH  15  19
ENDBRANCH   1  13
BRANCH   7  29
HETATM   29  C9  UNL     1       0.185  52.886 -24.922  1.00  0.00    -0.007 A 
HETATM   30  C10 UNL     1      -0.172  51.528 -24.878  1.00  0.00     0.017 A 
HETATM   31  C11 UNL     1      -0.705  50.899 -26.005  1.00  0.00     0.043 A 
HETATM   32  C12 UNL     1      -0.873  51.624 -27.178  1.00  0.00     0.116 A 
HETATM   33  F1  UNL     1      -1.382  51.021 -28.260  1.00  0.00    -0.206 F 
HETATM   34  C13 UNL     1      -0.515  52.965 -27.247  1.00  0.00     0.043 A 
HETATM   35  C14 UNL     1       0.018  53.597 -26.121  1.00  0.00     0.017 A 
ENDBRANCH   7  29
TORSDOF 6
ENDMDL
MODEL 6
REMARK minimizedAffinity -8.68683624
REMARK  6 active torsions:
REMARK  status: ('A' for Active; 'I' for Inactive)
REMARK    1  A    between atoms: O1_2  and  C2_3 
REMARK    2  A    between atoms: C2_3  and  C3_4 
REMARK    3  A    between atoms: C3_4  and  N1_5 
REMARK    4  A    between atoms: C3_4  and  C17_27 
REMARK       I    between atoms: N1_5  and  C4_6 
REMARK       I    between atoms: C4_6  and  N2_8 
REMARK    5  A    between atoms: N2_8  and  C5_9 
REMARK    6  A    between atoms: C8_15  and  C9_16 
ROOT
HETATM    1  C5  UNL     1       0.867  53.127 -19.638  1.00  0.00     0.111 A 
HETATM    2  C6  UNL     1       1.477  54.173 -20.318  1.00  0.00     0.080 A 
HETATM    3  C7  UNL     1       1.330  54.148 -21.704  1.00  0.00     0.065 A 
HETATM    4  N3  UNL     1       1.785  54.982 -22.685  1.00  0.00    -0.299 N 
HETATM    5  N4  UNL     1       1.442  54.608 -23.926  1.00  0.00    -0.299 N 
ATOM      6  H4  UNL     1       1.687  55.064 -24.806  1.00  0.00     0.187 HD
HETATM    7  C8  UNL     1       0.705  53.498 -23.752  1.00  0.00     0.072 A 
HETATM    8  C15 UNL     1       0.622  53.155 -22.368  1.00  0.00     0.036 A 
HETATM    9  C16 UNL     1       0.056  52.131 -21.606  1.00  0.00     0.105 A 
HETATM   10  N5  UNL     1       0.183  52.134 -20.253  1.00  0.00    -0.351 N 
ATOM     11  H5  UNL     1      -0.238  51.386 -19.701  1.00  0.00     0.166 HD
HETATM   12  H10 UNL     1       2.343  55.821 -22.572  1.00  0.00     0.187 HD
ENDROOT
BRANCH   1  13
HETATM   13  N2  UNL     1       0.907  52.981 -18.251  1.00  0.00    -0.295 N 
HETATM   14  C4  UNL     1       0.590  51.882 -17.502  1.00  0.00     0.322 C 
HETATM   15  N1  UNL     1       0.732  52.138 -16.158  1.00  0.00    -0.332 N 
HETATM   16  O2  UNL     1       0.245  50.787 -17.926  1.00  0.00    -0.247 OA
HETATM   17  H7  UNL     1       0.610  53.099 -15.872  1.00  0.00     0.165 HD
HETATM   18  H8  UNL     1       1.326  53.773 -17.791  1.00  0.00     0.172 HD
BRANCH  15  19
HETATM   19  C3  UNL     1       0.377  51.131 -15.163  1.00  0.00     0.143 C 
BRANCH  19  20
HETATM   20  C2  UNL     1      -0.693  50.112 -15.647  1.00  0.00     0.197 C 
BRANCH  20  21
HETATM   21  O1  UNL     1      -2.031  50.437 -15.248  1.00  0.00    -0.394 OA
HETATM   22  C1  UNL     1      -2.931  50.526 -16.345  1.00  0.00     0.201 C 
ENDBRANCH  20  21
ENDBRANCH  19  20
BRANCH  19  23
HETATM   23  C17 UNL     1       1.641  50.471 -14.631  1.00  0.00    -0.033 A 
HETATM   24  C18 UNL     1       2.836  51.205 -14.555  1.00  0.00     0.009 A 
HETATM   25  C19 UNL     1       4.012  50.610 -14.092  1.00  0.00     0.001 A 
HETATM   26  C20 UNL     1       4.011  49.273 -13.705  1.00  0.00     0.000 A 
HETATM   27  C21 UNL     1       2.837  48.529 -13.782  1.00  0.00     0.001 A 
HETATM   28  C22 UNL     1       1.661  49.121 -14.245  1.00  0.00     0.009 A 
ENDBRANCH  19  23
ENDBRANCH  15  19
ENDBRANCH   1  13
BRANCH   7  29
HETATM   29  C9  UNL     1       0.123  52.801 -24.900  1.00  0.00    -0.007 A 
HETATM   30  C10 UNL     1       0.010  53.461 -26.136  1.00  0.00     0.017 A 
HETATM   31  C11 UNL     1      -0.539  52.807 -27.240  1.00  0.00     0.043 A 
HETATM   32  C12 UNL     1      -0.983  51.497 -27.109  1.00  0.00     0.116 A 
HETATM   33  F1  UNL     1      -1.510  50.869 -28.167  1.00  0.00    -0.206 F 
HETATM   34  C13 UNL     1      -0.891  50.830 -25.893  1.00  0.00     0.043 A 
HETATM   35  C14 UNL     1      -0.342  51.482 -24.786  1.00  0.00     0.017 A 
ENDBRANCH   7  29
TORSDOF 6
ENDMDL
MODEL 7
REMARK minimizedAffinity -8.66951275
REMARK  6 active torsions:
REMARK  status: ('A' for Active; 'I' for Inactive)
REMARK    1  A    between atoms: O1_2  and  C2_3 
REMARK    2  A    between atoms: C2_3  and  C3_4 
REMARK    3  A    between atoms: C3_4  and  N1_5 
REMARK    4  A    between atoms: C3_4  and  C17_27 
REMARK       I    between atoms: N1_5  and  C4_6 
REMARK       I    between atoms: C4_6  and  N2_8 
REMARK    5  A    between atoms: N2_8  and  C5_9 
REMARK    6  A    between atoms: C8_15  and  C9_16 
ROOT
HETATM    1  C5  UNL     1      -3.554  49.444 -26.887  1.00  0.00     0.111 A 
HETATM    2  C6  UNL     1      -3.746  48.616 -25.789  1.00  0.00     0.080 A 
HETATM    3  C7  UNL     1      -3.049  48.984 -24.638  1.00  0.00     0.065 A 
HETATM    4  N3  UNL     1      -2.982  48.423 -23.395  1.00  0.00    -0.299 N 
HETATM    5  N4  UNL     1      -2.175  49.072 -22.543  1.00  0.00    -0.299 N 
ATOM      6  H4  UNL     1      -1.957  48.825 -21.577  1.00  0.00     0.187 HD
HETATM    7  C8  UNL     1      -1.716  50.121 -23.247  1.00  0.00     0.072 A 
HETATM    8  C15 UNL     1      -2.223  50.098 -24.582  1.00  0.00     0.036 A 
HETATM    9  C16 UNL     1      -2.074  50.864 -25.740  1.00  0.00     0.105 A 
HETATM   10  N5  UNL     1      -2.744  50.529 -26.874  1.00  0.00    -0.351 N 
ATOM     11  H5  UNL     1      -2.637  51.096 -27.715  1.00  0.00     0.166 HD
HETATM   12  H10 UNL     1      -3.458  47.591 -23.067  1.00  0.00     0.187 HD
ENDROOT
BRANCH   1  13
HETATM   13  N2  UNL     1      -4.164  49.237 -28.125  1.00  0.00    -0.295 N 
HETATM   14  C4  UNL     1      -5.244  48.452 -28.421  1.00  0.00     0.322 C 
HETATM   15  N1  UNL     1      -5.531  48.487 -29.765  1.00  0.00    -0.332 N 
HETATM   16  O2  UNL     1      -5.914  47.806 -27.625  1.00  0.00    -0.247 OA
HETATM   17  H7  UNL     1      -4.754  48.673 -30.382  1.00  0.00     0.165 HD
HETATM   18  H8  UNL     1      -3.796  49.840 -28.843  1.00  0.00     0.172 HD
BRANCH  15  19
HETATM   19  C3  UNL     1      -6.601  47.665 -30.323  1.00  0.00     0.143 C 
BRANCH  19  20
HETATM   20  C2  UNL     1      -7.622  48.458 -31.187  1.00  0.00     0.197 C 
BRANCH  20  21
HETATM   21  O1  UNL     1      -8.692  49.046 -30.434  1.00  0.00    -0.394 OA
HETATM   22  C1  UNL     1      -9.804  48.175 -30.279  1.00  0.00     0.201 C 
ENDBRANCH  20  21
ENDBRANCH  19  20
BRANCH  19  23
HETATM   23  C17 UNL     1      -6.001  46.468 -31.046  1.00  0.00    -0.033 A 
HETATM   24  C18 UNL     1      -6.635  45.217 -30.975  1.00  0.00     0.009 A 
HETATM   25  C19 UNL     1      -6.088  44.101 -31.612  1.00  0.00     0.001 A 
HETATM   26  C20 UNL     1      -4.897  44.219 -32.324  1.00  0.00     0.000 A 
HETATM   27  C21 UNL     1      -4.251  45.450 -32.397  1.00  0.00     0.001 A 
HETATM   28  C22 UNL     1      -4.796  46.566 -31.761  1.00  0.00     0.009 A 
ENDBRANCH  19  23
ENDBRANCH  15  19
ENDBRANCH   1  13
BRANCH   7  29
HETATM   29  C9  UNL     1      -0.808  51.091 -22.634  1.00  0.00    -0.007 A 
HETATM   30  C10 UNL     1      -0.181  52.065 -23.430  1.00  0.00     0.017 A 
HETATM   31  C11 UNL     1       0.684  53.000 -22.857  1.00  0.00     0.043 A 
HETATM   32  C12 UNL     1       0.930  52.956 -21.491  1.00  0.00     0.116 A 
HETATM   33  F1  UNL     1       1.760  53.851 -20.940  1.00  0.00    -0.206 F 
HETATM   34  C13 UNL     1       0.330  51.993 -20.686  1.00  0.00     0.043 A 
HETATM   35  C14 UNL     1      -0.536  51.057 -21.257  1.00  0.00     0.017 A 
ENDBRANCH   7  29
TORSDOF 6
ENDMDL
MODEL 8
REMARK minimizedAffinity -8.59273815
REMARK  6 active torsions:
REMARK  status: ('A' for Active; 'I' for Inactive)
REMARK    1  A    between atoms: O1_2  and  C2_3 
REMARK    2  A    between atoms: C2_3  and  C3_4 
REMARK    3  A    between atoms: C3_4  and  N1_5 
REMARK    4  A    between atoms: C3_4  and  C17_27 
REMARK       I    between atoms: N1_5  and  C4_6 
REMARK       I    between atoms: C4_6  and  N2_8 
REMARK    5  A    between atoms: N2_8  and  C5_9 
REMARK    6  A    between atoms: C8_15  and  C9_16 
ROOT
HETATM    1  C5  UNL     1      -0.159  52.329 -20.559  1.00  0.00     0.111 A 
HETATM    2  C6  UNL     1       0.709  53.077 -19.775  1.00  0.00     0.080 A 
HETATM    3  C7  UNL     1       0.870  52.624 -18.466  1.00  0.00     0.065 A 
HETATM    4  N3  UNL     1       1.616  53.094 -17.424  1.00  0.00    -0.299 N 
HETATM    5  N4  UNL     1       1.493  52.381 -16.295  1.00  0.00    -0.299 N 
ATOM      6  H4  UNL     1       1.937  52.557 -15.393  1.00  0.00     0.187 HD
HETATM    7  C8  UNL     1       0.654  51.382 -16.618  1.00  0.00     0.072 A 
HETATM    8  C15 UNL     1       0.216  51.503 -17.972  1.00  0.00     0.036 A 
HETATM    9  C16 UNL     1      -0.652  50.821 -18.825  1.00  0.00     0.105 A 
HETATM   10  N5  UNL     1      -0.825  51.240 -20.106  1.00  0.00    -0.351 N 
ATOM     11  H5  UNL     1      -1.457  50.735 -20.727  1.00  0.00     0.166 HD
HETATM   12  H10 UNL     1       2.226  53.904 -17.417  1.00  0.00     0.187 HD
ENDROOT
BRANCH   1  13
HETATM   13  N2  UNL     1      -0.448  52.628 -21.890  1.00  0.00    -0.295 N 
HETATM   14  C4  UNL     1      -0.780  51.770 -22.903  1.00  0.00     0.322 C 
HETATM   15  N1  UNL     1      -0.967  52.446 -24.086  1.00  0.00    -0.332 N 
HETATM   16  O2  UNL     1      -0.926  50.558 -22.811  1.00  0.00    -0.247 OA
HETATM   17  H7  UNL     1      -0.455  53.309 -24.192  1.00  0.00     0.165 HD
HETATM   18  H8  UNL     1      -0.513  53.619 -22.059  1.00  0.00     0.172 HD
BRANCH  15  19
HETATM   19  C3  UNL     1      -1.256  51.724 -25.322  1.00  0.00     0.143 C 
BRANCH  19  20
HETATM   20  C2  UNL     1      -2.543  52.206 -26.048  1.00  0.00     0.197 C 
BRANCH  20  21
HETATM   21  O1  UNL     1      -3.720  52.181 -25.230  1.00  0.00    -0.394 OA
HETATM   22  C1  UNL     1      -4.092  50.867 -24.832  1.00  0.00     0.201 C 
ENDBRANCH  20  21
ENDBRANCH  19  20
BRANCH  19  23
HETATM   23  C17 UNL     1      -0.023  51.726 -26.214  1.00  0.00    -0.033 A 
HETATM   24  C18 UNL     1      -0.166  51.850 -27.606  1.00  0.00     0.009 A 
HETATM   25  C19 UNL     1       0.952  51.829 -28.443  1.00  0.00     0.001 A 
HETATM   26  C20 UNL     1       2.226  51.680 -27.902  1.00  0.00     0.000 A 
HETATM   27  C21 UNL     1       2.385  51.548 -26.525  1.00  0.00     0.001 A 
HETATM   28  C22 UNL     1       1.269  51.567 -25.687  1.00  0.00     0.009 A 
ENDBRANCH  19  23
ENDBRANCH  15  19
ENDBRANCH   1  13
BRANCH   7  29
HETATM   29  C9  UNL     1       0.291  50.364 -15.631  1.00  0.00    -0.007 A 
HETATM   30  C10 UNL     1       0.498  49.004 -15.918  1.00  0.00     0.017 A 
HETATM   31  C11 UNL     1       0.160  48.024 -14.983  1.00  0.00     0.043 A 
HETATM   32  C12 UNL     1      -0.393  48.400 -13.765  1.00  0.00     0.116 A 
HETATM   33  F1  UNL     1      -0.718  47.461 -12.869  1.00  0.00    -0.206 F 
HETATM   34  C13 UNL     1      -0.618  49.739 -13.466  1.00  0.00     0.043 A 
HETATM   35  C14 UNL     1      -0.280  50.723 -14.400  1.00  0.00     0.017 A 
ENDBRANCH   7  29
TORSDOF 6
ENDMDL
MODEL 9
REMARK minimizedAffinity -8.53513145
REMARK  6 active torsions:
REMARK  status: ('A' for Active; 'I' for Inactive)
REMARK    1  A    between atoms: O1_2  and  C2_3 
REMARK    2  A    between atoms: C2_3  and  C3_4 
REMARK    3  A    between atoms: C3_4  and  N1_5 
REMARK    4  A    between atoms: C3_4  and  C17_27 
REMARK       I    between atoms: N1_5  and  C4_6 
REMARK       I    between atoms: C4_6  and  N2_8 
REMARK    5  A    between atoms: N2_8  and  C5_9 
REMARK    6  A    between atoms: C8_15  and  C9_16 
ROOT
HETATM    1  C5  UNL     1      -3.248  48.798 -24.784  1.00  0.00     0.111 A 
HETATM    2  C6  UNL     1      -4.604  48.604 -24.552  1.00  0.00     0.080 A 
HETATM    3  C7  UNL     1      -5.361  48.290 -25.680  1.00  0.00     0.065 A 
HETATM    4  N3  UNL     1      -6.694  48.042 -25.844  1.00  0.00    -0.299 N 
HETATM    5  N4  UNL     1      -7.054  47.787 -27.110  1.00  0.00    -0.299 N 
ATOM      6  H4  UNL     1      -7.990  47.597 -27.467  1.00  0.00     0.187 HD
HETATM    7  C8  UNL     1      -5.904  47.839 -27.804  1.00  0.00     0.072 A 
HETATM    8  C15 UNL     1      -4.809  48.173 -26.949  1.00  0.00     0.036 A 
HETATM    9  C16 UNL     1      -3.440  48.403 -27.093  1.00  0.00     0.105 A 
HETATM   10  N5  UNL     1      -2.679  48.709 -26.009  1.00  0.00    -0.351 N 
ATOM     11  H5  UNL     1      -1.677  48.871 -26.119  1.00  0.00     0.166 HD
HETATM   12  H10 UNL     1      -7.413  48.040 -25.130  1.00  0.00     0.187 HD
ENDROOT
BRANCH   1  13
HETATM   13  N2  UNL     1      -2.333  49.121 -23.782  1.00  0.00    -0.295 N 
HETATM   14  C4  UNL     1      -2.499  49.964 -22.718  1.00  0.00     0.322 C 
HETATM   15  N1  UNL     1      -1.353  50.043 -21.963  1.00  0.00    -0.332 N 
HETATM   16  O2  UNL     1      -3.521  50.569 -22.421  1.00  0.00    -0.247 OA
HETATM   17  H7  UNL     1      -0.485  49.879 -22.451  1.00  0.00     0.165 HD
HETATM   18  H8  UNL     1      -1.496  48.563 -23.828  1.00  0.00     0.172 HD
BRANCH  15  19
HETATM   19  C3  UNL     1      -1.273  50.942 -20.815  1.00  0.00     0.143 C 
BRANCH  19  20
HETATM   20  C2  UNL     1      -0.972  50.224 -19.469  1.00  0.00     0.197 C 
BRANCH  20  21
HETATM   21  O1  UNL     1      -2.005  50.370 -18.485  1.00  0.00    -0.394 OA
HETATM   22  C1  UNL     1      -3.091  51.170 -18.936  1.00  0.00     0.201 C 
ENDBRANCH  20  21
ENDBRANCH  19  20
BRANCH  19  23
HETATM   23  C17 UNL     1      -0.308  52.078 -21.121  1.00  0.00    -0.033 A 
HETATM   24  C18 UNL     1       0.144  52.912 -20.086  1.00  0.00     0.009 A 
HETATM   25  C19 UNL     1       1.011  53.975 -20.352  1.00  0.00     0.001 A 
HETATM   26  C20 UNL     1       1.434  54.220 -21.655  1.00  0.00     0.000 A 
HETATM   27  C21 UNL     1       0.989  53.408 -22.694  1.00  0.00     0.001 A 
HETATM   28  C22 UNL     1       0.122  52.346 -22.431  1.00  0.00     0.009 A 
ENDBRANCH  19  23
ENDBRANCH  15  19
ENDBRANCH   1  13
BRANCH   7  29
HETATM   29  C9  UNL     1      -5.890  47.585 -29.245  1.00  0.00    -0.007 A 
HETATM   30  C10 UNL     1      -6.438  46.395 -29.752  1.00  0.00     0.017 A 
HETATM   31  C11 UNL     1      -6.436  46.142 -31.125  1.00  0.00     0.043 A 
HETATM   32  C12 UNL     1      -5.878  47.074 -31.991  1.00  0.00     0.116 A 
HETATM   33  F1  UNL     1      -5.874  46.833 -33.308  1.00  0.00    -0.206 F 
HETATM   34  C13 UNL     1      -5.319  48.253 -31.510  1.00  0.00     0.043 A 
HETATM   35  C14 UNL     1      -5.321  48.508 -30.136  1.00  0.00     0.017 A 
ENDBRANCH   7  29
TORSDOF 6
ENDMDL
