MODEL 1
REMARK minimizedAffinity -9.88256073
REMARK  3 active torsions:
REMARK  status: ('A' for Active; 'I' for Inactive)
REMARK    1  A    between atoms: C4_4  and  C5_5 
REMARK    2  A    between atoms: C8_11  and  N3_12 
REMARK       I    between atoms: N3_12  and  C9_13 
REMARK       I    between atoms: C9_13  and  N4_15 
REMARK    3  A    between atoms: N4_15  and  C10_16 
ROOT
HETATM    1  C5  UNL     1      -0.341  52.906 -24.784  1.00  0.00     0.072 A 
HETATM    2  N1  UNL     1       0.321  53.925 -25.358  1.00  0.00    -0.299 N 
ATOM      3  H1  UNL     1       0.271  54.234 -26.329  1.00  0.00     0.187 HD
HETATM    4  N2  UNL     1       1.062  54.443 -24.367  1.00  0.00    -0.299 N 
HETATM    5  C6  UNL     1       0.894  53.825 -23.162  1.00  0.00     0.065 A 
HETATM    6  C7  UNL     1       1.458  54.062 -21.909  1.00  0.00     0.080 A 
HETATM    7  C8  UNL     1       1.021  53.221 -20.894  1.00  0.00     0.111 A 
HETATM    8  N6  UNL     1       0.117  52.232 -21.080  1.00  0.00    -0.351 N 
ATOM      9  H6  UNL     1      -0.162  51.641 -20.295  1.00  0.00     0.166 HD
HETATM   10  C19 UNL     1      -0.421  52.024 -22.311  1.00  0.00     0.105 A 
HETATM   11  C20 UNL     1      -0.030  52.815 -23.393  1.00  0.00     0.036 A 
HETATM   12  H5  UNL     1       1.663  55.232 -24.579  1.00  0.00     0.187 HD
ENDROOT
BRANCH   7  13
HETATM   13  N3  UNL     1       1.474  53.300 -19.576  1.00  0.00    -0.295 N 
HETATM   14  C9  UNL     1       1.054  52.585 -18.488  1.00  0.00     0.322 C 
HETATM   15  O1  UNL     1       0.209  51.700 -18.481  1.00  0.00    -0.247 OA
HETATM   16  N4  UNL     1       1.724  52.973 -17.348  1.00  0.00    -0.334 N 
HETATM   17  H8  UNL     1       2.095  53.912 -17.342  1.00  0.00     0.165 HD
HETATM   18  H7  UNL     1       2.283  53.893 -19.485  1.00  0.00     0.172 HD
BRANCH  16  19
HETATM   19  C10 UNL     1       1.389  52.405 -16.049  1.00  0.00     0.121 C 
HETATM   20  C11 UNL     1       2.672  52.229 -15.215  1.00  0.00     0.030 C 
HETATM   21  C12 UNL     1       2.418  51.363 -13.988  1.00  0.00     0.007 C 
HETATM   22  C13 UNL     1       1.997  49.959 -14.413  1.00  0.00     0.039 C 
HETATM   23  C14 UNL     1       0.888  49.974 -15.433  1.00  0.00    -0.047 A 
HETATM   24  C15 UNL     1       0.128  48.818 -15.635  1.00  0.00     0.024 A 
HETATM   25  C18 UNL     1       0.621  51.111 -16.213  1.00  0.00    -0.014 A 
HETATM   26  C16 UNL     1      -0.889  48.843 -16.575  1.00  0.00     0.088 A 
HETATM   27  N5  UNL     1      -1.197  49.926 -17.314  1.00  0.00    -0.375 N 
HETATM   28  C17 UNL     1      -0.446  51.031 -17.109  1.00  0.00     0.097 A 
ATOM     29  H5  UNL     1      -1.958  49.913 -17.993  1.00  0.00     0.164 HD
ENDBRANCH  16  19
ENDBRANCH   7  13
BRANCH   1  30
HETATM   30  C4  UNL     1      -1.249  52.072 -25.570  1.00  0.00    -0.004 A 
HETATM   31  C3  UNL     1      -1.605  50.789 -25.145  1.00  0.00     0.038 A 
HETATM   32  C2  UNL     1      -2.476  50.038 -25.928  1.00  0.00     0.005 A 
HETATM   33  C1  UNL     1      -2.870  48.656 -25.500  1.00  0.00     0.068 C 
HETATM   34  N7  UNL     1      -2.994  50.497 -27.090  1.00  0.00    -0.369 N 
HETATM   35  C22 UNL     1      -2.622  51.732 -27.491  1.00  0.00     0.089 A 
ATOM     36  H7  UNL     1      -3.641  49.933 -27.642  1.00  0.00     0.165 HD
HETATM   37  C21 UNL     1      -1.763  52.546 -26.777  1.00  0.00     0.031 A 
ENDBRANCH   1  30
TORSDOF 3
ENDMDL
MODEL 2
REMARK minimizedAffinity -9.79679394
REMARK  3 active torsions:
REMARK  status: ('A' for Active; 'I' for Inactive)
REMARK    1  A    between atoms: C4_4  and  C5_5 
REMARK    2  A    between atoms: C8_11  and  N3_12 
REMARK       I    between atoms: N3_12  and  C9_13 
REMARK       I    between atoms: C9_13  and  N4_15 
REMARK    3  A    between atoms: N4_15  and  C10_16 
ROOT
HETATM    1  C5  UNL     1       0.680  53.644 -23.980  1.00  0.00     0.072 A 
HETATM    2  N1  UNL     1       1.387  54.784 -24.064  1.00  0.00    -0.299 N 
ATOM      3  H1  UNL     1       1.594  55.329 -24.900  1.00  0.00     0.187 HD
HETATM    4  N2  UNL     1       1.759  55.041 -22.801  1.00  0.00    -0.299 N 
HETATM    5  C6  UNL     1       1.303  54.134 -21.888  1.00  0.00     0.065 A 
HETATM    6  C7  UNL     1       1.454  54.052 -20.504  1.00  0.00     0.080 A 
HETATM    7  C8  UNL     1       0.817  52.974 -19.902  1.00  0.00     0.111 A 
HETATM    8  N6  UNL     1       0.097  52.054 -20.586  1.00  0.00    -0.351 N 
ATOM      9  H6  UNL     1      -0.344  51.280 -20.088  1.00  0.00     0.166 HD
HETATM   10  C19 UNL     1      -0.038  52.161 -21.934  1.00  0.00     0.105 A 
HETATM   11  C20 UNL     1       0.579  53.206 -22.623  1.00  0.00     0.036 A 
HETATM   12  H5  UNL     1       2.323  55.866 -22.625  1.00  0.00     0.187 HD
ENDROOT
BRANCH   7  13
HETATM   13  N3  UNL     1       0.858  52.721 -18.531  1.00  0.00    -0.295 N 
HETATM   14  C9  UNL     1       0.161  51.783 -17.818  1.00  0.00     0.322 C 
HETATM   15  O1  UNL     1      -0.616  50.955 -18.272  1.00  0.00    -0.247 OA
HETATM   16  N4  UNL     1       0.451  51.864 -16.473  1.00  0.00    -0.334 N 
HETATM   17  H8  UNL     1       0.770  52.760 -16.134  1.00  0.00     0.165 HD
HETATM   18  H7  UNL     1       1.583  53.244 -18.066  1.00  0.00     0.172 HD
BRANCH  16  19
HETATM   19  C10 UNL     1      -0.232  51.016 -15.505  1.00  0.00     0.121 C 
HETATM   20  C11 UNL     1      -1.610  50.606 -16.059  1.00  0.00     0.030 C 
HETATM   21  C12 UNL     1      -2.479  49.985 -14.973  1.00  0.00     0.007 C 
HETATM   22  C13 UNL     1      -2.755  51.006 -13.873  1.00  0.00     0.039 C 
HETATM   23  C14 UNL     1      -1.500  51.683 -13.387  1.00  0.00    -0.047 A 
HETATM   24  C15 UNL     1      -1.508  52.336 -12.150  1.00  0.00     0.024 A 
HETATM   25  C18 UNL     1      -0.328  51.706 -14.162  1.00  0.00    -0.014 A 
HETATM   26  C16 UNL     1      -0.349  52.954 -11.713  1.00  0.00     0.088 A 
HETATM   27  N5  UNL     1       0.802  52.965 -12.412  1.00  0.00    -0.375 N 
HETATM   28  C17 UNL     1       0.788  52.334 -13.609  1.00  0.00     0.097 A 
ATOM     29  H5  UNL     1       1.641  53.424 -12.058  1.00  0.00     0.164 HD
ENDBRANCH  16  19
ENDBRANCH   7  13
BRANCH   1  30
HETATM   30  C4  UNL     1       0.117  53.027 -25.180  1.00  0.00    -0.004 A 
HETATM   31  C3  UNL     1      -0.524  51.787 -25.124  1.00  0.00     0.038 A 
HETATM   32  C2  UNL     1      -1.046  51.245 -26.294  1.00  0.00     0.005 A 
HETATM   33  C1  UNL     1      -1.734  49.913 -26.265  1.00  0.00     0.068 C 
HETATM   34  N7  UNL     1      -0.955  51.869 -27.491  1.00  0.00    -0.369 N 
HETATM   35  C22 UNL     1      -0.315  53.057 -27.525  1.00  0.00     0.089 A 
ATOM     36  H7  UNL     1      -1.356  51.458 -28.335  1.00  0.00     0.165 HD
HETATM   37  C21 UNL     1       0.233  53.668 -26.413  1.00  0.00     0.031 A 
ENDBRANCH   1  30
TORSDOF 3
ENDMDL
MODEL 3
REMARK minimizedAffinity -9.585742
REMARK  3 active torsions:
REMARK  status: ('A' for Active; 'I' for Inactive)
REMARK    1  A    between atoms: C4_4  and  C5_5 
REMARK    2  A    between atoms: C8_11  and  N3_12 
REMARK       I    between atoms: N3_12  and  C9_13 
REMARK       I    between atoms: C9_13  and  N4_15 
REMARK    3  A    between atoms: N4_15  and  C10_16 
ROOT
HETATM    1  C5  UNL     1      -0.380  51.819 -24.466  1.00  0.00     0.072 A 
HETATM    2  N1  UNL     1       0.735  52.109 -25.158  1.00  0.00    -0.299 N 
ATOM      3  H1  UNL     1       1.637  52.411 -24.790  1.00  0.00     0.187 HD
HETATM    4  N2  UNL     1       0.394  51.914 -26.441  1.00  0.00    -0.299 N 
HETATM    5  C6  UNL     1      -0.889  51.482 -26.618  1.00  0.00     0.065 A 
HETATM    6  C7  UNL     1      -1.611  51.158 -27.766  1.00  0.00     0.080 A 
HETATM    7  C8  UNL     1      -2.913  50.729 -27.546  1.00  0.00     0.111 A 
HETATM    8  N6  UNL     1      -3.468  50.625 -26.317  1.00  0.00    -0.351 N 
ATOM      9  H6  UNL     1      -4.433  50.309 -26.218  1.00  0.00     0.166 HD
HETATM   10  C19 UNL     1      -2.742  50.944 -25.213  1.00  0.00     0.105 A 
HETATM   11  C20 UNL     1      -1.427  51.396 -25.341  1.00  0.00     0.036 A 
HETATM   12  H5  UNL     1       1.092  52.087 -27.156  1.00  0.00     0.187 HD
ENDROOT
BRANCH   7  13
HETATM   13  N3  UNL     1      -3.790  50.366 -28.569  1.00  0.00    -0.295 N 
HETATM   14  C9  UNL     1      -4.298  49.128 -28.855  1.00  0.00     0.322 C 
HETATM   15  O1  UNL     1      -4.098  48.097 -28.227  1.00  0.00    -0.247 OA
HETATM   16  N4  UNL     1      -5.111  49.167 -29.967  1.00  0.00    -0.334 N 
HETATM   17  H8  UNL     1      -4.932  49.910 -30.628  1.00  0.00     0.165 HD
HETATM   18  H7  UNL     1      -4.149  51.165 -29.066  1.00  0.00     0.172 HD
BRANCH  16  19
HETATM   19  C10 UNL     1      -5.702  47.952 -30.509  1.00  0.00     0.121 C 
HETATM   20  C11 UNL     1      -5.118  47.670 -31.906  1.00  0.00     0.030 C 
HETATM   21  C12 UNL     1      -5.920  46.600 -32.635  1.00  0.00     0.007 C 
HETATM   22  C13 UNL     1      -7.350  47.081 -32.867  1.00  0.00     0.039 C 
HETATM   23  C14 UNL     1      -7.986  47.622 -31.613  1.00  0.00    -0.047 A 
HETATM   24  C15 UNL     1      -9.378  47.735 -31.544  1.00  0.00     0.024 A 
HETATM   25  C18 UNL     1      -7.213  48.050 -30.521  1.00  0.00    -0.014 A 
HETATM   26  C16 UNL     1      -9.952  48.233 -30.387  1.00  0.00     0.088 A 
HETATM   27  N5  UNL     1      -9.244  48.619 -29.308  1.00  0.00    -0.375 N 
HETATM   28  C17 UNL     1      -7.899  48.508 -29.396  1.00  0.00     0.097 A 
ATOM     29  H5  UNL     1      -9.699  48.976 -28.468  1.00  0.00     0.164 HD
ENDBRANCH  16  19
ENDBRANCH   7  13
BRANCH   1  30
HETATM   30  C4  UNL     1      -0.404  51.939 -23.010  1.00  0.00    -0.004 A 
HETATM   31  C3  UNL     1       0.440  52.830 -22.342  1.00  0.00     0.038 A 
HETATM   32  C2  UNL     1       0.374  52.909 -20.954  1.00  0.00     0.005 A 
HETATM   33  C1  UNL     1       1.273  53.851 -20.211  1.00  0.00     0.068 C 
HETATM   34  N7  UNL     1      -0.475  52.154 -20.220  1.00  0.00    -0.369 N 
HETATM   35  C22 UNL     1      -1.268  51.286 -20.884  1.00  0.00     0.089 A 
ATOM     36  H7  UNL     1      -0.514  52.237 -19.203  1.00  0.00     0.165 HD
HETATM   37  C21 UNL     1      -1.268  51.142 -22.258  1.00  0.00     0.031 A 
ENDBRANCH   1  30
TORSDOF 3
ENDMDL
MODEL 4
REMARK minimizedAffinity -9.42225933
REMARK  3 active torsions:
REMARK  status: ('A' for Active; 'I' for Inactive)
REMARK    1  A    between atoms: C4_4  and  C5_5 
REMARK    2  A    between atoms: C8_11  and  N3_12 
REMARK       I    between atoms: N3_12  and  C9_13 
REMARK       I    between atoms: C9_13  and  N4_15 
REMARK    3  A    between atoms: N4_15  and  C10_16 
ROOT
HETATM    1  C5  UNL     1      -1.469  50.684 -23.689  1.00  0.00     0.072 A 
HETATM    2  N1  UNL     1      -1.912  49.862 -22.722  1.00  0.00    -0.299 N 
ATOM      3  H1  UNL     1      -1.701  49.900 -21.725  1.00  0.00     0.187 HD
HETATM    4  N2  UNL     1      -2.695  48.981 -23.364  1.00  0.00    -0.299 N 
HETATM    5  C6  UNL     1      -2.805  49.205 -24.706  1.00  0.00     0.065 A 
HETATM    6  C7  UNL     1      -3.516  48.540 -25.704  1.00  0.00     0.080 A 
HETATM    7  C8  UNL     1      -3.397  49.083 -26.978  1.00  0.00     0.111 A 
HETATM    8  N6  UNL     1      -2.650  50.176 -27.258  1.00  0.00    -0.351 N 
ATOM      9  H6  UNL     1      -2.597  50.526 -28.215  1.00  0.00     0.166 HD
HETATM   10  C19 UNL     1      -1.970  50.808 -26.265  1.00  0.00     0.105 A 
HETATM   11  C20 UNL     1      -2.022  50.324 -24.957  1.00  0.00     0.036 A 
HETATM   12  H5  UNL     1      -3.136  48.246 -22.822  1.00  0.00     0.187 HD
ENDROOT
BRANCH   7  13
HETATM   13  N3  UNL     1      -4.028  48.555 -28.104  1.00  0.00    -0.295 N 
HETATM   14  C9  UNL     1      -5.236  47.915 -28.181  1.00  0.00     0.322 C 
HETATM   15  O1  UNL     1      -6.014  47.717 -27.258  1.00  0.00    -0.247 OA
HETATM   16  N4  UNL     1      -5.503  47.509 -29.471  1.00  0.00    -0.334 N 
HETATM   17  H8  UNL     1      -4.704  47.357 -30.069  1.00  0.00     0.165 HD
HETATM   18  H7  UNL     1      -3.550  48.792 -28.958  1.00  0.00     0.172 HD
BRANCH  16  19
HETATM   19  C10 UNL     1      -6.698  46.737 -29.782  1.00  0.00     0.121 C 
HETATM   20  C11 UNL     1      -7.369  46.272 -28.476  1.00  0.00     0.030 C 
HETATM   21  C12 UNL     1      -8.431  45.214 -28.747  1.00  0.00     0.007 C 
HETATM   22  C13 UNL     1      -7.791  43.970 -29.356  1.00  0.00     0.039 C 
HETATM   23  C14 UNL     1      -6.893  44.296 -30.521  1.00  0.00    -0.047 A 
HETATM   24  C15 UNL     1      -6.547  43.285 -31.424  1.00  0.00     0.024 A 
HETATM   25  C18 UNL     1      -6.365  45.584 -30.706  1.00  0.00    -0.014 A 
HETATM   26  C16 UNL     1      -5.722  43.596 -32.491  1.00  0.00     0.088 A 
HETATM   27  N5  UNL     1      -5.227  44.828 -32.720  1.00  0.00    -0.375 N 
HETATM   28  C17 UNL     1      -5.567  45.790 -31.832  1.00  0.00     0.097 A 
ATOM     29  H5  UNL     1      -4.627  45.025 -33.520  1.00  0.00     0.164 HD
ENDBRANCH  16  19
ENDBRANCH   7  13
BRANCH   1  30
HETATM   30  C4  UNL     1      -0.556  51.780 -23.372  1.00  0.00    -0.004 A 
HETATM   31  C3  UNL     1      -0.169  52.044 -22.056  1.00  0.00     0.038 A 
HETATM   32  C2  UNL     1       0.706  53.097 -21.809  1.00  0.00     0.005 A 
HETATM   33  C1  UNL     1       1.134  53.406 -20.406  1.00  0.00     0.068 C 
HETATM   34  N7  UNL     1       1.198  53.883 -22.795  1.00  0.00    -0.369 N 
HETATM   35  C22 UNL     1       0.796  53.622 -24.057  1.00  0.00     0.089 A 
ATOM     36  H7  UNL     1       1.849  54.642 -22.591  1.00  0.00     0.165 HD
HETATM   37  C21 UNL     1      -0.069  52.598 -24.392  1.00  0.00     0.031 A 
ENDBRANCH   1  30
TORSDOF 3
ENDMDL
MODEL 5
REMARK minimizedAffinity -9.41866493
REMARK  3 active torsions:
REMARK  status: ('A' for Active; 'I' for Inactive)
REMARK    1  A    between atoms: C4_4  and  C5_5 
REMARK    2  A    between atoms: C8_11  and  N3_12 
REMARK       I    between atoms: N3_12  and  C9_13 
REMARK       I    between atoms: C9_13  and  N4_15 
REMARK    3  A    between atoms: N4_15  and  C10_16 
ROOT
HETATM    1  C5  UNL     1      -1.887  50.301 -25.098  1.00  0.00     0.072 A 
HETATM    2  N1  UNL     1      -2.146  49.703 -23.923  1.00  0.00    -0.299 N 
ATOM      3  H1  UNL     1      -1.667  49.841 -23.033  1.00  0.00     0.187 HD
HETATM    4  N2  UNL     1      -3.177  48.885 -24.183  1.00  0.00    -0.299 N 
HETATM    5  C6  UNL     1      -3.622  48.940 -25.473  1.00  0.00     0.065 A 
HETATM    6  C7  UNL     1      -4.656  48.273 -26.128  1.00  0.00     0.080 A 
HETATM    7  C8  UNL     1      -4.825  48.610 -27.465  1.00  0.00     0.111 A 
HETATM    8  N6  UNL     1      -4.054  49.516 -28.111  1.00  0.00    -0.351 N 
ATOM      9  H6  UNL     1      -4.222  49.718 -29.096  1.00  0.00     0.166 HD
HETATM   10  C19 UNL     1      -3.055  50.155 -27.447  1.00  0.00     0.105 A 
HETATM   11  C20 UNL     1      -2.806  49.869 -26.103  1.00  0.00     0.036 A 
HETATM   12  H5  UNL     1      -3.540  48.314 -23.428  1.00  0.00     0.187 HD
ENDROOT
BRANCH   7  13
HETATM   13  N3  UNL     1      -5.801  48.046 -28.287  1.00  0.00    -0.295 N 
HETATM   14  C9  UNL     1      -5.679  47.616 -29.580  1.00  0.00     0.322 C 
HETATM   15  O1  UNL     1      -4.658  47.618 -30.254  1.00  0.00    -0.247 OA
HETATM   16  N4  UNL     1      -6.881  47.145 -30.064  1.00  0.00    -0.334 N 
HETATM   17  H8  UNL     1      -7.716  47.513 -29.629  1.00  0.00     0.165 HD
HETATM   18  H7  UNL     1      -6.655  47.851 -27.789  1.00  0.00     0.172 HD
BRANCH  16  19
HETATM   19  C10 UNL     1      -7.015  46.707 -31.447  1.00  0.00     0.121 C 
HETATM   20  C11 UNL     1      -6.680  47.875 -32.394  1.00  0.00     0.030 C 
HETATM   21  C12 UNL     1      -7.100  47.564 -33.824  1.00  0.00     0.007 C 
HETATM   22  C13 UNL     1      -8.613  47.382 -33.900  1.00  0.00     0.039 C 
HETATM   23  C14 UNL     1      -9.133  46.431 -32.853  1.00  0.00    -0.047 A 
HETATM   24  C15 UNL     1     -10.396  45.854 -33.018  1.00  0.00     0.024 A 
HETATM   25  C18 UNL     1      -8.394  46.134 -31.696  1.00  0.00    -0.014 A 
HETATM   26  C16 UNL     1     -10.863  44.981 -32.051  1.00  0.00     0.088 A 
HETATM   27  N5  UNL     1     -10.167  44.646 -30.947  1.00  0.00    -0.375 N 
HETATM   28  C17 UNL     1      -8.951  45.219 -30.803  1.00  0.00     0.097 A 
ATOM     29  H5  UNL     1     -10.537  43.994 -30.257  1.00  0.00     0.164 HD
ENDBRANCH  16  19
ENDBRANCH   7  13
BRANCH   1  30
HETATM   30  C4  UNL     1      -0.793  51.263 -25.218  1.00  0.00    -0.004 A 
HETATM   31  C3  UNL     1       0.317  51.002 -26.026  1.00  0.00     0.038 A 
HETATM   32  C2  UNL     1       1.328  51.953 -26.108  1.00  0.00     0.005 A 
HETATM   33  C1  UNL     1       2.534  51.697 -26.962  1.00  0.00     0.068 C 
HETATM   34  N7  UNL     1       1.285  53.126 -25.435  1.00  0.00    -0.369 N 
HETATM   35  C22 UNL     1       0.212  53.349 -24.646  1.00  0.00     0.089 A 
ATOM     36  H7  UNL     1       2.033  53.815 -25.520  1.00  0.00     0.165 HD
HETATM   37  C21 UNL     1      -0.837  52.461 -24.504  1.00  0.00     0.031 A 
ENDBRANCH   1  30
TORSDOF 3
ENDMDL
MODEL 6
REMARK minimizedAffinity -9.39878941
REMARK  3 active torsions:
REMARK  status: ('A' for Active; 'I' for Inactive)
REMARK    1  A    between atoms: C4_4  and  C5_5 
REMARK    2  A    between atoms: C8_11  and  N3_12 
REMARK       I    between atoms: N3_12  and  C9_13 
REMARK       I    between atoms: C9_13  and  N4_15 
REMARK    3  A    between atoms: N4_15  and  C10_16 
ROOT
HETATM    1  C5  UNL     1      -5.990  47.731 -27.326  1.00  0.00     0.072 A 
HETATM    2  N1  UNL     1      -7.051  47.650 -26.505  1.00  0.00    -0.299 N 
ATOM      3  H1  UNL     1      -7.988  47.313 -26.727  1.00  0.00     0.187 HD
HETATM    4  N2  UNL     1      -6.600  48.112 -25.329  1.00  0.00    -0.299 N 
HETATM    5  C6  UNL     1      -5.282  48.467 -25.336  1.00  0.00     0.065 A 
HETATM    6  C7  UNL     1      -4.449  48.968 -24.337  1.00  0.00     0.080 A 
HETATM    7  C8  UNL     1      -3.134  49.197 -24.721  1.00  0.00     0.111 A 
HETATM    8  N6  UNL     1      -2.669  48.961 -25.970  1.00  0.00    -0.351 N 
ATOM      9  H6  UNL     1      -1.692  49.154 -26.195  1.00  0.00     0.166 HD
HETATM   10  C19 UNL     1      -3.501  48.468 -26.924  1.00  0.00     0.105 A 
HETATM   11  C20 UNL     1      -4.843  48.220 -26.629  1.00  0.00     0.036 A 
HETATM   12  H5  UNL     1      -7.247  48.152 -24.549  1.00  0.00     0.187 HD
ENDROOT
BRANCH   7  13
HETATM   13  N3  UNL     1      -2.155  49.701 -23.864  1.00  0.00    -0.295 N 
HETATM   14  C9  UNL     1      -2.065  50.953 -23.319  1.00  0.00     0.322 C 
HETATM   15  O1  UNL     1      -2.865  51.867 -23.461  1.00  0.00    -0.247 OA
HETATM   16  N4  UNL     1      -0.932  51.078 -22.544  1.00  0.00    -0.334 N 
HETATM   17  H8  UNL     1      -0.162  50.466 -22.771  1.00  0.00     0.165 HD
HETATM   18  H7  UNL     1      -1.517  48.988 -23.550  1.00  0.00     0.172 HD
BRANCH  16  19
HETATM   19  C10 UNL     1      -0.583  52.350 -21.925  1.00  0.00     0.121 C 
HETATM   20  C11 UNL     1       0.634  52.959 -22.647  1.00  0.00     0.030 C 
HETATM   21  C12 UNL     1       1.223  54.118 -21.853  1.00  0.00     0.007 C 
HETATM   22  C13 UNL     1       1.739  53.624 -20.505  1.00  0.00     0.039 C 
HETATM   23  C14 UNL     1       0.722  52.789 -19.770  1.00  0.00    -0.047 A 
HETATM   24  C15 UNL     1       0.866  52.589 -18.393  1.00  0.00     0.024 A 
HETATM   25  C18 UNL     1      -0.349  52.176 -20.439  1.00  0.00    -0.014 A 
HETATM   26  C16 UNL     1      -0.074  51.821 -17.728  1.00  0.00     0.088 A 
HETATM   27  N5  UNL     1      -1.134  51.248 -18.330  1.00  0.00    -0.375 N 
HETATM   28  C17 UNL     1      -1.251  51.447 -19.663  1.00  0.00     0.097 A 
ATOM     29  H5  UNL     1      -1.812  50.693 -17.809  1.00  0.00     0.164 HD
ENDBRANCH  16  19
ENDBRANCH   7  13
BRANCH   1  30
HETATM   30  C4  UNL     1      -6.102  47.330 -28.727  1.00  0.00    -0.004 A 
HETATM   31  C3  UNL     1      -6.807  46.183 -29.099  1.00  0.00     0.038 A 
HETATM   32  C2  UNL     1      -6.886  45.848 -30.447  1.00  0.00     0.005 A 
HETATM   33  C1  UNL     1      -7.632  44.619 -30.874  1.00  0.00     0.068 C 
HETATM   34  N7  UNL     1      -6.304  46.588 -31.419  1.00  0.00    -0.369 N 
HETATM   35  C22 UNL     1      -5.611  47.681 -31.035  1.00  0.00     0.089 A 
ATOM     36  H7  UNL     1      -6.385  46.330 -32.402  1.00  0.00     0.165 HD
HETATM   37  C21 UNL     1      -5.481  48.087 -29.721  1.00  0.00     0.031 A 
ENDBRANCH   1  30
TORSDOF 3
ENDMDL
MODEL 7
REMARK minimizedAffinity -9.36652088
REMARK  3 active torsions:
REMARK  status: ('A' for Active; 'I' for Inactive)
REMARK    1  A    between atoms: C4_4  and  C5_5 
REMARK    2  A    between atoms: C8_11  and  N3_12 
REMARK       I    between atoms: N3_12  and  C9_13 
REMARK       I    between atoms: C9_13  and  N4_15 
REMARK    3  A    between atoms: N4_15  and  C10_16 
ROOT
HETATM    1  C5  UNL     1      -4.246  49.240 -28.481  1.00  0.00     0.072 A 
HETATM    2  N1  UNL     1      -3.803  50.322 -29.144  1.00  0.00    -0.299 N 
ATOM      3  H1  UNL     1      -4.049  50.620 -30.088  1.00  0.00     0.187 HD
HETATM    4  N2  UNL     1      -2.966  50.922 -28.284  1.00  0.00    -0.299 N 
HETATM    5  C6  UNL     1      -2.861  50.295 -27.076  1.00  0.00     0.065 A 
HETATM    6  C7  UNL     1      -2.124  50.598 -25.932  1.00  0.00     0.080 A 
HETATM    7  C8  UNL     1      -2.291  49.719 -24.870  1.00  0.00     0.111 A 
HETATM    8  N6  UNL     1      -3.103  48.637 -24.915  1.00  0.00    -0.351 N 
ATOM      9  H6  UNL     1      -3.181  48.024 -24.103  1.00  0.00     0.166 HD
HETATM   10  C19 UNL     1      -3.814  48.367 -26.041  1.00  0.00     0.105 A 
HETATM   11  C20 UNL     1      -3.697  49.190 -27.163  1.00  0.00     0.036 A 
HETATM   12  H5  UNL     1      -2.498  51.771 -28.583  1.00  0.00     0.187 HD
ENDROOT
BRANCH   7  13
HETATM   13  N3  UNL     1      -1.635  49.854 -23.646  1.00  0.00    -0.295 N 
HETATM   14  C9  UNL     1      -1.910  50.721 -22.624  1.00  0.00     0.322 C 
HETATM   15  O1  UNL     1      -2.826  51.530 -22.584  1.00  0.00    -0.247 OA
HETATM   16  N4  UNL     1      -1.014  50.570 -21.588  1.00  0.00    -0.334 N 
HETATM   17  H8  UNL     1      -0.108  50.194 -21.828  1.00  0.00     0.165 HD
HETATM   18  H7  UNL     1      -0.949  49.130 -23.498  1.00  0.00     0.172 HD
BRANCH  16  19
HETATM   19  C10 UNL     1      -1.061  51.441 -20.421  1.00  0.00     0.121 C 
HETATM   20  C11 UNL     1      -0.128  52.648 -20.640  1.00  0.00     0.030 C 
HETATM   21  C12 UNL     1       0.094  53.415 -19.343  1.00  0.00     0.007 C 
HETATM   22  C13 UNL     1       0.792  52.525 -18.318  1.00  0.00     0.039 C 
HETATM   23  C14 UNL     1       0.121  51.184 -18.168  1.00  0.00    -0.047 A 
HETATM   24  C15 UNL     1       0.374  50.416 -17.027  1.00  0.00     0.024 A 
HETATM   25  C18 UNL     1      -0.726  50.670 -19.162  1.00  0.00    -0.014 A 
HETATM   26  C16 UNL     1      -0.248  49.186 -16.899  1.00  0.00     0.088 A 
HETATM   27  N5  UNL     1      -1.095  48.677 -17.815  1.00  0.00    -0.375 N 
HETATM   28  C17 UNL     1      -1.321  49.432 -18.914  1.00  0.00     0.097 A 
ATOM     29  H5  UNL     1      -1.542  47.770 -17.686  1.00  0.00     0.164 HD
ENDBRANCH  16  19
ENDBRANCH   7  13
BRANCH   1  30
HETATM   30  C4  UNL     1      -5.178  48.309 -29.115  1.00  0.00    -0.004 A 
HETATM   31  C3  UNL     1      -5.961  47.437 -28.354  1.00  0.00     0.038 A 
HETATM   32  C2  UNL     1      -6.835  46.573 -29.006  1.00  0.00     0.005 A 
HETATM   33  C1  UNL     1      -7.683  45.622 -28.215  1.00  0.00     0.068 C 
HETATM   34  N7  UNL     1      -6.958  46.539 -30.353  1.00  0.00    -0.369 N 
HETATM   35  C22 UNL     1      -6.179  47.377 -31.069  1.00  0.00     0.089 A 
ATOM     36  H7  UNL     1      -7.615  45.906 -30.809  1.00  0.00     0.165 HD
HETATM   37  C21 UNL     1      -5.284  48.266 -30.505  1.00  0.00     0.031 A 
ENDBRANCH   1  30
TORSDOF 3
ENDMDL
MODEL 8
REMARK minimizedAffinity -9.30017567
REMARK  3 active torsions:
REMARK  status: ('A' for Active; 'I' for Inactive)
REMARK    1  A    between atoms: C4_4  and  C5_5 
REMARK    2  A    between atoms: C8_11  and  N3_12 
REMARK       I    between atoms: N3_12  and  C9_13 
REMARK       I    between atoms: C9_13  and  N4_15 
REMARK    3  A    between atoms: N4_15  and  C10_16 
ROOT
HETATM    1  C5  UNL     1      -1.442  50.848 -24.624  1.00  0.00     0.072 A 
HETATM    2  N1  UNL     1      -2.315  49.827 -24.654  1.00  0.00    -0.299 N 
ATOM      3  H1  UNL     1      -2.755  49.406 -25.472  1.00  0.00     0.187 HD
HETATM    4  N2  UNL     1      -2.478  49.487 -23.366  1.00  0.00    -0.299 N 
HETATM    5  C6  UNL     1      -1.729  50.224 -22.495  1.00  0.00     0.065 A 
HETATM    6  C7  UNL     1      -1.603  50.178 -21.107  1.00  0.00     0.080 A 
HETATM    7  C8  UNL     1      -0.711  51.092 -20.562  1.00  0.00     0.111 A 
HETATM    8  N6  UNL     1      -0.002  51.977 -21.301  1.00  0.00    -0.351 N 
ATOM      9  H6  UNL     1       0.635  52.629 -20.843  1.00  0.00     0.166 HD
HETATM   10  C19 UNL     1      -0.140  51.998 -22.653  1.00  0.00     0.105 A 
HETATM   11  C20 UNL     1      -1.025  51.123 -23.285  1.00  0.00     0.036 A 
HETATM   12  H5  UNL     1      -3.116  48.730 -23.146  1.00  0.00     0.187 HD
ENDROOT
BRANCH   7  13
HETATM   13  N3  UNL     1      -0.455  51.201 -19.195  1.00  0.00    -0.295 N 
HETATM   14  C9  UNL     1       0.466  51.990 -18.562  1.00  0.00     0.322 C 
HETATM   15  O1  UNL     1       1.226  52.789 -19.092  1.00  0.00    -0.247 OA
HETATM   16  N4  UNL     1       0.437  51.794 -17.198  1.00  0.00    -0.334 N 
HETATM   17  H8  UNL     1       0.094  50.899 -16.880  1.00  0.00     0.165 HD
HETATM   18  H7  UNL     1      -1.128  50.698 -18.638  1.00  0.00     0.172 HD
BRANCH  16  19
HETATM   19  C10 UNL     1       1.385  52.469 -16.322  1.00  0.00     0.121 C 
HETATM   20  C11 UNL     1       2.808  52.329 -16.894  1.00  0.00     0.030 C 
HETATM   21  C12 UNL     1       3.858  52.742 -15.870  1.00  0.00     0.007 C 
HETATM   22  C13 UNL     1       3.800  51.820 -14.656  1.00  0.00     0.039 C 
HETATM   23  C14 UNL     1       2.401  51.662 -14.118  1.00  0.00    -0.047 A 
HETATM   24  C15 UNL     1       2.217  51.189 -12.815  1.00  0.00     0.024 A 
HETATM   25  C18 UNL     1       1.273  51.944 -14.906  1.00  0.00    -0.014 A 
HETATM   26  C16 UNL     1       0.928  51.048 -12.331  1.00  0.00     0.088 A 
HETATM   27  N5  UNL     1      -0.175  51.344 -13.045  1.00  0.00    -0.375 N 
HETATM   28  C17 UNL     1       0.024  51.792 -14.306  1.00  0.00     0.097 A 
ATOM     29  H5  UNL     1      -1.111  51.235 -12.656  1.00  0.00     0.164 HD
ENDBRANCH  16  19
ENDBRANCH   7  13
BRANCH   1  30
HETATM   30  C4  UNL     1      -1.029  51.511 -25.860  1.00  0.00    -0.004 A 
HETATM   31  C3  UNL     1       0.255  51.336 -26.381  1.00  0.00     0.038 A 
HETATM   32  C2  UNL     1       0.597  51.986 -27.563  1.00  0.00     0.005 A 
HETATM   33  C1  UNL     1       1.970  51.821 -28.142  1.00  0.00     0.068 C 
HETATM   34  N7  UNL     1      -0.265  52.787 -28.231  1.00  0.00    -0.369 N 
HETATM   35  C22 UNL     1      -1.494  52.957 -27.699  1.00  0.00     0.089 A 
ATOM     36  H7  UNL     1       0.003  53.244 -29.103  1.00  0.00     0.165 HD
HETATM   37  C21 UNL     1      -1.918  52.351 -26.531  1.00  0.00     0.031 A 
ENDBRANCH   1  30
TORSDOF 3
ENDMDL
MODEL 9
REMARK minimizedAffinity -9.2815609
REMARK  3 active torsions:
REMARK  status: ('A' for Active; 'I' for Inactive)
REMARK    1  A    between atoms: C4_4  and  C5_5 
REMARK    2  A    between atoms: C8_11  and  N3_12 
REMARK       I    between atoms: N3_12  and  C9_13 
REMARK       I    between atoms: C9_13  and  N4_15 
REMARK    3  A    between atoms: N4_15  and  C10_16 
ROOT
HETATM    1  C5  UNL     1       0.736  53.397 -23.846  1.00  0.00     0.072 A 
HETATM    2  N1  UNL     1       1.374  54.571 -23.988  1.00  0.00    -0.299 N 
ATOM      3  H1  UNL     1       1.584  55.066 -24.855  1.00  0.00     0.187 HD
HETATM    4  N2  UNL     1       1.673  54.944 -22.735  1.00  0.00    -0.299 N 
HETATM    5  C6  UNL     1       1.235  54.078 -21.774  1.00  0.00     0.065 A 
HETATM    6  C7  UNL     1       1.331  54.106 -20.384  1.00  0.00     0.080 A 
HETATM    7  C8  UNL     1       0.736  53.037 -19.727  1.00  0.00     0.111 A 
HETATM    8  N6  UNL     1       0.105  52.024 -20.366  1.00  0.00    -0.351 N 
ATOM      9  H6  UNL     1      -0.309  51.262 -19.830  1.00  0.00     0.166 HD
HETATM   10  C19 UNL     1       0.023  52.023 -21.723  1.00  0.00     0.105 A 
HETATM   11  C20 UNL     1       0.604  53.053 -22.465  1.00  0.00     0.036 A 
HETATM   12  H5  UNL     1       2.177  55.814 -22.599  1.00  0.00     0.187 HD
ENDROOT
BRANCH   7  13
HETATM   13  N3  UNL     1       0.732  52.887 -18.340  1.00  0.00    -0.295 N 
HETATM   14  C9  UNL     1       0.540  51.747 -17.608  1.00  0.00     0.322 C 
HETATM   15  O1  UNL     1       0.368  50.620 -18.050  1.00  0.00    -0.247 OA
HETATM   16  N4  UNL     1       0.578  52.011 -16.256  1.00  0.00    -0.334 N 
HETATM   17  H8  UNL     1       0.341  52.952 -15.975  1.00  0.00     0.165 HD
HETATM   18  H7  UNL     1       1.017  53.728 -17.864  1.00  0.00     0.172 HD
BRANCH  16  19
HETATM   19  C10 UNL     1       0.319  50.963 -15.278  1.00  0.00     0.121 C 
HETATM   20  C11 UNL     1      -1.193  50.680 -15.211  1.00  0.00     0.030 C 
HETATM   21  C12 UNL     1      -1.542  49.825 -14.000  1.00  0.00     0.007 C 
HETATM   22  C13 UNL     1      -1.197  50.571 -12.713  1.00  0.00     0.039 C 
HETATM   23  C14 UNL     1       0.203  51.128 -12.729  1.00  0.00    -0.047 A 
HETATM   24  C15 UNL     1       0.812  51.485 -11.521  1.00  0.00     0.024 A 
HETATM   25  C18 UNL     1       0.901  51.332 -13.930  1.00  0.00    -0.014 A 
HETATM   26  C16 UNL     1       2.098  51.996 -11.547  1.00  0.00     0.088 A 
HETATM   27  N5  UNL     1       2.811  52.171 -12.676  1.00  0.00    -0.375 N 
HETATM   28  C17 UNL     1       2.202  51.826 -13.834  1.00  0.00     0.097 A 
ATOM     29  H5  UNL     1       3.759  52.544 -12.659  1.00  0.00     0.164 HD
ENDBRANCH  16  19
ENDBRANCH   7  13
BRANCH   1  30
HETATM   30  C4  UNL     1       0.266  52.658 -25.017  1.00  0.00    -0.004 A 
HETATM   31  C3  UNL     1      -1.097  52.532 -25.295  1.00  0.00     0.038 A 
HETATM   32  C2  UNL     1      -1.491  51.822 -26.424  1.00  0.00     0.005 A 
HETATM   33  C1  UNL     1      -2.948  51.666 -26.745  1.00  0.00     0.068 C 
HETATM   34  N7  UNL     1      -0.606  51.243 -27.268  1.00  0.00    -0.369 N 
HETATM   35  C22 UNL     1       0.705  51.361 -26.970  1.00  0.00     0.089 A 
ATOM     36  H7  UNL     1      -0.918  50.737 -28.098  1.00  0.00     0.165 HD
HETATM   37  C21 UNL     1       1.185  52.046 -25.870  1.00  0.00     0.031 A 
ENDBRANCH   1  30
TORSDOF 3
ENDMDL
