MODEL 1
REMARK minimizedAffinity -8.09417629
REMARK  9 active torsions:
REMARK  status: ('A' for Active; 'I' for Inactive)
REMARK    1  A    between atoms: O1_2  and  C2_3 
REMARK    2  A    between atoms: C2_3  and  C3_4 
REMARK    3  A    between atoms: C3_4  and  O2_5 
REMARK    4  A    between atoms: O2_5  and  C4_6 
REMARK    5  A    between atoms: C7_12  and  N3_13 
REMARK       I    between atoms: N3_13  and  C8_14 
REMARK       I    between atoms: C8_14  and  N4_16 
REMARK    6  A    between atoms: N4_16  and  C9_17 
REMARK    7  A    between atoms: C9_17  and  C10_18 
REMARK    8  A    between atoms: C9_17  and  C16_25 
REMARK    9  A    between atoms: C16_25  and  O4_28 
ROOT
HETATM    1  N3  UNL     1      -2.960  49.080 -26.808  1.00  0.00    -0.295 N 
HETATM    2  C8  UNL     1      -2.683  50.377 -26.471  1.00  0.00     0.322 C 
HETATM    3  O3  UNL     1      -3.471  51.315 -26.477  1.00  0.00    -0.247 OA
HETATM    4  N4  UNL     1      -1.372  50.519 -26.087  1.00  0.00    -0.331 N 
HETATM    5  H10 UNL     1      -2.248  48.384 -26.658  1.00  0.00     0.172 HD
HETATM    6  H11 UNL     1      -0.703  49.853 -26.445  1.00  0.00     0.165 HD
ENDROOT
BRANCH   1   7
HETATM    7  C7  UNL     1      -4.179  48.521 -27.191  1.00  0.00     0.111 A 
HETATM    8  C6  UNL     1      -4.478  48.152 -28.498  1.00  0.00     0.080 A 
HETATM    9  C5  UNL     1      -5.765  47.651 -28.692  1.00  0.00     0.067 A 
HETATM   10  N2  UNL     1      -6.424  47.220 -29.811  1.00  0.00    -0.298 N 
HETATM   11  C20 UNL     1      -6.676  47.511 -27.652  1.00  0.00     0.060 A 
HETATM   12  N1  UNL     1      -7.693  46.824 -29.585  1.00  0.00    -0.279 N 
HETATM   13  H8  UNL     1      -6.066  47.179 -30.759  1.00  0.00     0.187 HD
HETATM   14  C4  UNL     1      -7.829  46.983 -28.266  1.00  0.00     0.171 A 
ATOM     15  H1  UNL     1      -8.381  46.485 -30.258  1.00  0.00     0.189 HD
HETATM   16  C19 UNL     1      -6.290  47.887 -26.368  1.00  0.00     0.108 A 
HETATM   17  N5  UNL     1      -5.043  48.389 -26.155  1.00  0.00    -0.351 N 
ATOM     18  H5  UNL     1      -4.758  48.664 -25.216  1.00  0.00     0.166 HD
BRANCH  14  19
HETATM   19  O2  UNL     1      -8.985  46.685 -27.631  1.00  0.00    -0.332 OA
BRANCH  19  20
HETATM   20  C3  UNL     1     -10.040  47.639 -27.796  1.00  0.00     0.203 C 
BRANCH  20  21
HETATM   21  C2  UNL     1     -10.397  48.310 -26.467  1.00  0.00     0.193 C 
BRANCH  21  22
HETATM   22  O1  UNL     1     -11.819  48.484 -26.397  1.00  0.00    -0.394 OA
HETATM   23  C1  UNL     1     -12.494  47.239 -26.304  1.00  0.00     0.201 C 
ENDBRANCH  21  22
ENDBRANCH  20  21
ENDBRANCH  19  20
ENDBRANCH  14  19
ENDBRANCH   1   7
BRANCH   4  24
HETATM   24  C9  UNL     1      -0.799  51.809 -25.713  1.00  0.00     0.153 C 
BRANCH  24  25
HETATM   25  C10 UNL     1      -0.549  51.786 -24.205  1.00  0.00    -0.032 A 
HETATM   26  C11 UNL     1      -1.041  50.760 -23.382  1.00  0.00     0.011 A 
HETATM   27  C12 UNL     1      -0.814  50.778 -22.004  1.00  0.00     0.024 A 
HETATM   28  C13 UNL     1      -0.105  51.830 -21.433  1.00  0.00     0.034 A 
HETATM   29 CL1  UNL     1       0.165  51.853 -19.733  1.00  0.00    -0.084 Cl
HETATM   30  C14 UNL     1       0.378  52.864 -22.227  1.00  0.00     0.024 A 
HETATM   31  C15 UNL     1       0.156  52.845 -23.606  1.00  0.00     0.011 A 
ENDBRANCH  24  25
BRANCH  24  32
HETATM   32  C16 UNL     1       0.459  52.145 -26.595  1.00  0.00     0.075 C 
HETATM   33  C17 UNL     1       1.696  51.381 -26.103  1.00  0.00     0.048 C 
HETATM   34  C18 UNL     1       0.228  51.807 -28.076  1.00  0.00     0.048 C 
BRANCH  32  35
HETATM   35  O4  UNL     1       0.774  53.547 -26.481  1.00  0.00    -0.388 OA
HETATM   36  H23 UNL     1       1.412  53.767 -27.177  1.00  0.00     0.210 HD
ENDBRANCH  32  35
ENDBRANCH  24  32
ENDBRANCH   4  24
TORSDOF 9
ENDMDL
MODEL 2
REMARK minimizedAffinity -7.90914011
REMARK  9 active torsions:
REMARK  status: ('A' for Active; 'I' for Inactive)
REMARK    1  A    between atoms: O1_2  and  C2_3 
REMARK    2  A    between atoms: C2_3  and  C3_4 
REMARK    3  A    between atoms: C3_4  and  O2_5 
REMARK    4  A    between atoms: O2_5  and  C4_6 
REMARK    5  A    between atoms: C7_12  and  N3_13 
REMARK       I    between atoms: N3_13  and  C8_14 
REMARK       I    between atoms: C8_14  and  N4_16 
REMARK    6  A    between atoms: N4_16  and  C9_17 
REMARK    7  A    between atoms: C9_17  and  C10_18 
REMARK    8  A    between atoms: C9_17  and  C16_25 
REMARK    9  A    between atoms: C16_25  and  O4_28 
ROOT
HETATM    1  N3  UNL     1      -3.751  50.462 -27.734  1.00  0.00    -0.295 N 
HETATM    2  C8  UNL     1      -3.899  49.151 -28.096  1.00  0.00     0.322 C 
HETATM    3  O3  UNL     1      -3.169  48.220 -27.776  1.00  0.00    -0.247 OA
HETATM    4  N4  UNL     1      -5.017  48.976 -28.875  1.00  0.00    -0.331 N 
HETATM    5  H10 UNL     1      -4.481  51.111 -27.977  1.00  0.00     0.172 HD
HETATM    6  H11 UNL     1      -5.349  49.768 -29.404  1.00  0.00     0.165 HD
ENDROOT
BRANCH   1   7
HETATM    7  C7  UNL     1      -2.784  51.033 -26.907  1.00  0.00     0.111 A 
HETATM    8  C6  UNL     1      -2.163  52.248 -27.177  1.00  0.00     0.080 A 
HETATM    9  C5  UNL     1      -1.190  52.633 -26.254  1.00  0.00     0.067 A 
HETATM   10  N2  UNL     1      -0.362  53.720 -26.192  1.00  0.00    -0.298 N 
HETATM   11  C20 UNL     1      -0.879  51.870 -25.135  1.00  0.00     0.060 A 
HETATM   12  N1  UNL     1       0.471  53.719 -25.132  1.00  0.00    -0.279 N 
HETATM   13  H8  UNL     1      -0.312  54.494 -26.846  1.00  0.00     0.187 HD
HETATM   14  C4  UNL     1       0.133  52.601 -24.484  1.00  0.00     0.171 A 
ATOM     15  H1  UNL     1       1.185  54.405 -24.887  1.00  0.00     0.189 HD
HETATM   16  C19 UNL     1      -1.561  50.673 -24.930  1.00  0.00     0.108 A 
HETATM   17  N5  UNL     1      -2.507  50.271 -25.821  1.00  0.00    -0.351 N 
ATOM     18  H5  UNL     1      -3.008  49.396 -25.672  1.00  0.00     0.166 HD
BRANCH  14  19
HETATM   19  O2  UNL     1       0.750  52.232 -23.338  1.00  0.00    -0.332 OA
BRANCH  19  20
HETATM   20  C3  UNL     1       0.351  52.952 -22.166  1.00  0.00     0.203 C 
BRANCH  20  21
HETATM   21  C2  UNL     1       1.440  53.928 -21.714  1.00  0.00     0.193 C 
BRANCH  21  22
HETATM   22  O1  UNL     1       1.177  54.331 -20.363  1.00  0.00    -0.394 OA
HETATM   23  C1  UNL     1       0.398  53.366 -19.672  1.00  0.00     0.201 C 
ENDBRANCH  21  22
ENDBRANCH  20  21
ENDBRANCH  19  20
ENDBRANCH  14  19
ENDBRANCH   1   7
BRANCH   4  24
HETATM   24  C9  UNL     1      -5.391  47.678 -29.431  1.00  0.00     0.153 C 
BRANCH  24  25
HETATM   25  C10 UNL     1      -6.684  47.235 -28.749  1.00  0.00    -0.032 A 
HETATM   26  C11 UNL     1      -7.562  48.151 -28.146  1.00  0.00     0.011 A 
HETATM   27  C12 UNL     1      -8.727  47.713 -27.511  1.00  0.00     0.024 A 
HETATM   28  C13 UNL     1      -9.019  46.354 -27.461  1.00  0.00     0.034 A 
HETATM   29 CL1  UNL     1     -10.451  45.817 -26.670  1.00  0.00    -0.084 Cl
HETATM   30  C14 UNL     1      -8.156  45.428 -28.038  1.00  0.00     0.024 A 
HETATM   31  C15 UNL     1      -6.993  45.866 -28.677  1.00  0.00     0.011 A 
ENDBRANCH  24  25
BRANCH  24  32
HETATM   32  C16 UNL     1      -5.447  47.733 -31.002  1.00  0.00     0.075 C 
HETATM   33  C17 UNL     1      -4.922  46.428 -31.617  1.00  0.00     0.048 C 
HETATM   34  C18 UNL     1      -6.872  47.982 -31.517  1.00  0.00     0.048 C 
BRANCH  32  35
HETATM   35  O4  UNL     1      -4.587  48.784 -31.484  1.00  0.00    -0.388 OA
HETATM   36  H23 UNL     1      -4.790  48.931 -32.421  1.00  0.00     0.210 HD
ENDBRANCH  32  35
ENDBRANCH  24  32
ENDBRANCH   4  24
TORSDOF 9
ENDMDL
MODEL 3
REMARK minimizedAffinity -7.80558014
REMARK  9 active torsions:
REMARK  status: ('A' for Active; 'I' for Inactive)
REMARK    1  A    between atoms: O1_2  and  C2_3 
REMARK    2  A    between atoms: C2_3  and  C3_4 
REMARK    3  A    between atoms: C3_4  and  O2_5 
REMARK    4  A    between atoms: O2_5  and  C4_6 
REMARK    5  A    between atoms: C7_12  and  N3_13 
REMARK       I    between atoms: N3_13  and  C8_14 
REMARK       I    between atoms: C8_14  and  N4_16 
REMARK    6  A    between atoms: N4_16  and  C9_17 
REMARK    7  A    between atoms: C9_17  and  C10_18 
REMARK    8  A    between atoms: C9_17  and  C16_25 
REMARK    9  A    between atoms: C16_25  and  O4_28 
ROOT
HETATM    1  N3  UNL     1      -2.934  49.218 -26.301  1.00  0.00    -0.295 N 
HETATM    2  C8  UNL     1      -2.571  50.535 -26.223  1.00  0.00     0.322 C 
HETATM    3  O3  UNL     1      -3.257  51.500 -26.540  1.00  0.00    -0.247 OA
HETATM    4  N4  UNL     1      -1.305  50.670 -25.708  1.00  0.00    -0.331 N 
HETATM    5  H10 UNL     1      -2.316  48.527 -25.908  1.00  0.00     0.172 HD
HETATM    6  H11 UNL     1      -0.668  49.895 -25.818  1.00  0.00     0.165 HD
ENDROOT
BRANCH   1   7
HETATM    7  C7  UNL     1      -4.150  48.673 -26.712  1.00  0.00     0.111 A 
HETATM    8  C6  UNL     1      -5.138  48.248 -25.832  1.00  0.00     0.080 A 
HETATM    9  C5  UNL     1      -6.266  47.689 -26.433  1.00  0.00     0.067 A 
HETATM   10  N2  UNL     1      -7.409  47.146 -25.914  1.00  0.00    -0.298 N 
HETATM   11  C20 UNL     1      -6.403  47.584 -27.811  1.00  0.00     0.060 A 
HETATM   12  N1  UNL     1      -8.271  46.683 -26.841  1.00  0.00    -0.279 N 
HETATM   13  H8  UNL     1      -7.658  47.053 -24.934  1.00  0.00     0.187 HD
HETATM   14  C4  UNL     1      -7.660  46.976 -27.993  1.00  0.00     0.171 A 
ATOM     15  H1  UNL     1      -9.170  46.223 -26.699  1.00  0.00     0.189 HD
HETATM   16  C19 UNL     1      -5.373  48.051 -28.624  1.00  0.00     0.108 A 
HETATM   17  N5  UNL     1      -4.257  48.591 -28.061  1.00  0.00    -0.351 N 
ATOM     18  H5  UNL     1      -3.502  48.934 -28.654  1.00  0.00     0.166 HD
BRANCH  14  19
HETATM   19  O2  UNL     1      -8.215  46.670 -29.188  1.00  0.00    -0.332 OA
BRANCH  19  20
HETATM   20  C3  UNL     1      -9.301  47.511 -29.594  1.00  0.00     0.203 C 
BRANCH  20  21
HETATM   21  C2  UNL     1      -9.473  47.503 -31.114  1.00  0.00     0.193 C 
BRANCH  21  22
HETATM   22  O1  UNL     1      -8.675  48.550 -31.682  1.00  0.00    -0.394 OA
HETATM   23  C1  UNL     1      -8.666  49.706 -30.858  1.00  0.00     0.201 C 
ENDBRANCH  21  22
ENDBRANCH  20  21
ENDBRANCH  19  20
ENDBRANCH  14  19
ENDBRANCH   1   7
BRANCH   4  24
HETATM   24  C9  UNL     1      -0.654  51.968 -25.553  1.00  0.00     0.153 C 
BRANCH  24  25
HETATM   25  C10 UNL     1      -0.271  52.122 -24.082  1.00  0.00    -0.032 A 
HETATM   26  C11 UNL     1      -0.698  51.214 -23.099  1.00  0.00     0.011 A 
HETATM   27  C12 UNL     1      -0.348  51.394 -21.758  1.00  0.00     0.024 A 
HETATM   28  C13 UNL     1       0.422  52.491 -21.385  1.00  0.00     0.034 A 
HETATM   29 CL1  UNL     1       0.844  52.713 -19.731  1.00  0.00    -0.084 Cl
HETATM   30  C14 UNL     1       0.844  53.410 -22.340  1.00  0.00     0.024 A 
HETATM   31  C15 UNL     1       0.498  53.229 -23.681  1.00  0.00     0.011 A 
ENDBRANCH  24  25
BRANCH  24  32
HETATM   32  C16 UNL     1       0.530  52.132 -26.575  1.00  0.00     0.075 C 
HETATM   33  C17 UNL     1       1.779  51.380 -26.094  1.00  0.00     0.048 C 
HETATM   34  C18 UNL     1       0.154  51.620 -27.974  1.00  0.00     0.048 C 
BRANCH  32  35
HETATM   35  O4  UNL     1       0.902  53.521 -26.671  1.00  0.00    -0.388 OA
HETATM   36  H23 UNL     1       1.482  53.622 -27.442  1.00  0.00     0.210 HD
ENDBRANCH  32  35
ENDBRANCH  24  32
ENDBRANCH   4  24
TORSDOF 9
ENDMDL
MODEL 4
REMARK minimizedAffinity -7.802423
REMARK  9 active torsions:
REMARK  status: ('A' for Active; 'I' for Inactive)
REMARK    1  A    between atoms: O1_2  and  C2_3 
REMARK    2  A    between atoms: C2_3  and  C3_4 
REMARK    3  A    between atoms: C3_4  and  O2_5 
REMARK    4  A    between atoms: O2_5  and  C4_6 
REMARK    5  A    between atoms: C7_12  and  N3_13 
REMARK       I    between atoms: N3_13  and  C8_14 
REMARK       I    between atoms: C8_14  and  N4_16 
REMARK    6  A    between atoms: N4_16  and  C9_17 
REMARK    7  A    between atoms: C9_17  and  C10_18 
REMARK    8  A    between atoms: C9_17  and  C16_25 
REMARK    9  A    between atoms: C16_25  and  O4_28 
ROOT
HETATM    1  N3  UNL     1      -2.786  48.420 -23.492  1.00  0.00    -0.295 N 
HETATM    2  C8  UNL     1      -2.808  49.369 -22.507  1.00  0.00     0.322 C 
HETATM    3  O3  UNL     1      -3.334  50.475 -22.573  1.00  0.00    -0.247 OA
HETATM    4  N4  UNL     1      -2.168  48.924 -21.377  1.00  0.00    -0.331 N 
HETATM    5  H10 UNL     1      -2.412  47.511 -23.273  1.00  0.00     0.172 HD
HETATM    6  H11 UNL     1      -1.459  48.215 -21.487  1.00  0.00     0.165 HD
ENDROOT
BRANCH   1   7
HETATM    7  C7  UNL     1      -3.371  48.464 -24.757  1.00  0.00     0.111 A 
HETATM    8  C6  UNL     1      -4.729  48.272 -24.983  1.00  0.00     0.080 A 
HETATM    9  C5  UNL     1      -5.118  48.309 -26.322  1.00  0.00     0.067 A 
HETATM   10  N2  UNL     1      -6.331  48.140 -26.932  1.00  0.00    -0.298 N 
HETATM   11  C20 UNL     1      -4.218  48.543 -27.355  1.00  0.00     0.060 A 
HETATM   12  N1  UNL     1      -6.291  48.231 -28.276  1.00  0.00    -0.279 N 
HETATM   13  H8  UNL     1      -7.224  47.951 -26.486  1.00  0.00     0.187 HD
HETATM   14  C4  UNL     1      -5.006  48.499 -28.522  1.00  0.00     0.171 A 
ATOM     15  H1  UNL     1      -7.056  48.121 -28.942  1.00  0.00     0.189 HD
HETATM   16  C19 UNL     1      -2.876  48.745 -27.041  1.00  0.00     0.108 A 
HETATM   17  N5  UNL     1      -2.470  48.702 -25.743  1.00  0.00    -0.351 N 
ATOM     18  H5  UNL     1      -1.489  48.850 -25.511  1.00  0.00     0.166 HD
BRANCH  14  19
HETATM   19  O2  UNL     1      -4.545  48.671 -29.782  1.00  0.00    -0.332 OA
BRANCH  19  20
HETATM   20  C3  UNL     1      -5.504  48.449 -30.822  1.00  0.00     0.203 C 
BRANCH  20  21
HETATM   21  C2  UNL     1      -5.160  47.202 -31.639  1.00  0.00     0.193 C 
BRANCH  21  22
HETATM   22  O1  UNL     1      -3.985  47.462 -32.419  1.00  0.00    -0.394 OA
HETATM   23  C1  UNL     1      -4.312  47.913 -33.724  1.00  0.00     0.201 C 
ENDBRANCH  21  22
ENDBRANCH  20  21
ENDBRANCH  19  20
ENDBRANCH  14  19
ENDBRANCH   1   7
BRANCH   4  24
HETATM   24  C9  UNL     1      -2.011  49.754 -20.185  1.00  0.00     0.153 C 
BRANCH  24  25
HETATM   25  C10 UNL     1      -1.095  50.922 -20.550  1.00  0.00    -0.032 A 
HETATM   26  C11 UNL     1      -0.854  51.987 -19.667  1.00  0.00     0.011 A 
HETATM   27  C12 UNL     1      -0.028  53.051 -20.037  1.00  0.00     0.024 A 
HETATM   28  C13 UNL     1       0.556  53.066 -21.300  1.00  0.00     0.034 A 
HETATM   29 CL1  UNL     1       1.567  54.383 -21.756  1.00  0.00    -0.084 Cl
HETATM   30  C14 UNL     1       0.320  52.029 -22.196  1.00  0.00     0.024 A 
HETATM   31  C15 UNL     1      -0.503  50.963 -21.825  1.00  0.00     0.011 A 
ENDBRANCH  24  25
BRANCH  24  32
HETATM   32  C16 UNL     1      -3.410  50.160 -19.592  1.00  0.00     0.075 C 
HETATM   33  C17 UNL     1      -3.911  51.472 -20.214  1.00  0.00     0.048 C 
HETATM   34  C18 UNL     1      -4.468  49.071 -19.822  1.00  0.00     0.048 C 
BRANCH  32  35
HETATM   35  O4  UNL     1      -3.288  50.401 -18.177  1.00  0.00    -0.388 OA
HETATM   36  H23 UNL     1      -4.181  50.448 -17.803  1.00  0.00     0.210 HD
ENDBRANCH  32  35
ENDBRANCH  24  32
ENDBRANCH   4  24
TORSDOF 9
ENDMDL
MODEL 5
REMARK minimizedAffinity -7.69289303
REMARK  9 active torsions:
REMARK  status: ('A' for Active; 'I' for Inactive)
REMARK    1  A    between atoms: O1_2  and  C2_3 
REMARK    2  A    between atoms: C2_3  and  C3_4 
REMARK    3  A    between atoms: C3_4  and  O2_5 
REMARK    4  A    between atoms: O2_5  and  C4_6 
REMARK    5  A    between atoms: C7_12  and  N3_13 
REMARK       I    between atoms: N3_13  and  C8_14 
REMARK       I    between atoms: C8_14  and  N4_16 
REMARK    6  A    between atoms: N4_16  and  C9_17 
REMARK    7  A    between atoms: C9_17  and  C10_18 
REMARK    8  A    between atoms: C9_17  and  C16_25 
REMARK    9  A    between atoms: C16_25  and  O4_28 
ROOT
HETATM    1  N3  UNL     1      -1.021  50.179 -20.981  1.00  0.00    -0.295 N 
HETATM    2  C8  UNL     1      -1.904  50.791 -21.828  1.00  0.00     0.322 C 
HETATM    3  O3  UNL     1      -2.455  51.871 -21.650  1.00  0.00    -0.247 OA
HETATM    4  N4  UNL     1      -2.099  50.043 -22.964  1.00  0.00    -0.331 N 
HETATM    5  H10 UNL     1      -0.557  49.343 -21.295  1.00  0.00     0.172 HD
HETATM    6  H11 UNL     1      -1.943  49.048 -22.903  1.00  0.00     0.165 HD
ENDROOT
BRANCH   1   7
HETATM    7  C7  UNL     1      -0.522  50.639 -19.763  1.00  0.00     0.111 A 
HETATM    8  C6  UNL     1       0.184  51.829 -19.622  1.00  0.00     0.080 A 
HETATM    9  C5  UNL     1       0.640  52.097 -18.331  1.00  0.00     0.067 A 
HETATM   10  N2  UNL     1       1.377  53.127 -17.812  1.00  0.00    -0.298 N 
HETATM   11  C20 UNL     1       0.389  51.249 -17.259  1.00  0.00     0.060 A 
HETATM   12  N1  UNL     1       1.637  53.011 -16.495  1.00  0.00    -0.279 N 
HETATM   13  H8  UNL     1       1.740  53.935 -18.307  1.00  0.00     0.187 HD
HETATM   14  C4  UNL     1       1.012  51.877 -16.163  1.00  0.00     0.171 A 
ATOM     15  H1  UNL     1       2.178  53.636 -15.897  1.00  0.00     0.189 HD
HETATM   16  C19 UNL     1      -0.343  50.086 -17.483  1.00  0.00     0.108 A 
HETATM   17  N5  UNL     1      -0.790  49.797 -18.735  1.00  0.00    -0.351 N 
ATOM     18  H5  UNL     1      -1.327  48.946 -18.901  1.00  0.00     0.166 HD
BRANCH  14  19
HETATM   19  O2  UNL     1       1.030  51.402 -14.897  1.00  0.00    -0.332 OA
BRANCH  19  20
HETATM   20  C3  UNL     1       0.207  52.110 -13.963  1.00  0.00     0.203 C 
BRANCH  20  21
HETATM   21  C2  UNL     1      -1.085  51.344 -13.667  1.00  0.00     0.193 C 
BRANCH  21  22
HETATM   22  O1  UNL     1      -1.857  52.081 -12.709  1.00  0.00    -0.394 OA
HETATM   23  C1  UNL     1      -3.181  52.309 -13.168  1.00  0.00     0.201 C 
ENDBRANCH  21  22
ENDBRANCH  20  21
ENDBRANCH  19  20
ENDBRANCH  14  19
ENDBRANCH   1   7
BRANCH   4  24
HETATM   24  C9  UNL     1      -3.023  50.446 -24.020  1.00  0.00     0.153 C 
BRANCH  24  25
HETATM   25  C10 UNL     1      -2.196  51.042 -25.159  1.00  0.00    -0.032 A 
HETATM   26  C11 UNL     1      -0.824  50.780 -25.302  1.00  0.00     0.011 A 
HETATM   27  C12 UNL     1      -0.090  51.357 -26.341  1.00  0.00     0.024 A 
HETATM   28  C13 UNL     1      -0.719  52.211 -27.241  1.00  0.00     0.034 A 
HETATM   29 CL1  UNL     1       0.191  52.926 -28.516  1.00  0.00    -0.084 Cl
HETATM   30  C14 UNL     1      -2.074  52.496 -27.110  1.00  0.00     0.024 A 
HETATM   31  C15 UNL     1      -2.809  51.916 -26.073  1.00  0.00     0.011 A 
ENDBRANCH  24  25
BRANCH  24  32
HETATM   32  C16 UNL     1      -3.967  49.256 -24.429  1.00  0.00     0.075 C 
HETATM   33  C17 UNL     1      -3.390  48.482 -25.623  1.00  0.00     0.048 C 
HETATM   34  C18 UNL     1      -4.188  48.275 -23.267  1.00  0.00     0.048 C 
BRANCH  32  35
HETATM   35  O4  UNL     1      -5.244  49.770 -24.854  1.00  0.00    -0.388 OA
HETATM   36  H23 UNL     1      -5.864  49.026 -24.905  1.00  0.00     0.210 HD
ENDBRANCH  32  35
ENDBRANCH  24  32
ENDBRANCH   4  24
TORSDOF 9
ENDMDL
MODEL 6
REMARK minimizedAffinity -7.68097115
REMARK  9 active torsions:
REMARK  status: ('A' for Active; 'I' for Inactive)
REMARK    1  A    between atoms: O1_2  and  C2_3 
REMARK    2  A    between atoms: C2_3  and  C3_4 
REMARK    3  A    between atoms: C3_4  and  O2_5 
REMARK    4  A    between atoms: O2_5  and  C4_6 
REMARK    5  A    between atoms: C7_12  and  N3_13 
REMARK       I    between atoms: N3_13  and  C8_14 
REMARK       I    between atoms: C8_14  and  N4_16 
REMARK    6  A    between atoms: N4_16  and  C9_17 
REMARK    7  A    between atoms: C9_17  and  C10_18 
REMARK    8  A    between atoms: C9_17  and  C16_25 
REMARK    9  A    between atoms: C16_25  and  O4_28 
ROOT
HETATM    1  N3  UNL     1      -1.228  52.251 -20.389  1.00  0.00    -0.295 N 
HETATM    2  C8  UNL     1      -1.319  51.449 -21.494  1.00  0.00     0.322 C 
HETATM    3  O3  UNL     1      -0.711  50.402 -21.686  1.00  0.00    -0.247 OA
HETATM    4  N4  UNL     1      -2.223  51.951 -22.397  1.00  0.00    -0.331 N 
HETATM    5  H10 UNL     1      -1.863  53.028 -20.308  1.00  0.00     0.172 HD
HETATM    6  H11 UNL     1      -2.400  52.945 -22.381  1.00  0.00     0.165 HD
ENDROOT
BRANCH   1   7
HETATM    7  C7  UNL     1      -0.472  52.059 -19.233  1.00  0.00     0.111 A 
HETATM    8  C6  UNL     1       0.437  52.991 -18.745  1.00  0.00     0.080 A 
HETATM    9  C5  UNL     1       1.130  52.599 -17.600  1.00  0.00     0.067 A 
HETATM   10  N2  UNL     1       2.101  53.215 -16.859  1.00  0.00    -0.298 N 
HETATM   11  C20 UNL     1       0.915  51.375 -16.979  1.00  0.00     0.060 A 
HETATM   12  N1  UNL     1       2.545  52.486 -15.815  1.00  0.00    -0.279 N 
HETATM   13  H8  UNL     1       2.511  54.130 -17.018  1.00  0.00     0.187 HD
HETATM   14  C4  UNL     1       1.800  51.378 -15.884  1.00  0.00     0.171 A 
ATOM     15  H1  UNL     1       3.271  52.722 -15.139  1.00  0.00     0.189 HD
HETATM   16  C19 UNL     1      -0.027  50.505 -17.523  1.00  0.00     0.108 A 
HETATM   17  N5  UNL     1      -0.709  50.860 -18.645  1.00  0.00    -0.351 N 
ATOM     18  H5  UNL     1      -1.400  50.225 -19.044  1.00  0.00     0.166 HD
BRANCH  14  19
HETATM   19  O2  UNL     1       1.940  50.374 -14.989  1.00  0.00    -0.332 OA
BRANCH  19  20
HETATM   20  C3  UNL     1       2.885  50.612 -13.940  1.00  0.00     0.203 C 
BRANCH  20  21
HETATM   21  C2  UNL     1       3.763  49.384 -13.692  1.00  0.00     0.193 C 
BRANCH  21  22
HETATM   22  O1  UNL     1       4.914  49.777 -12.931  1.00  0.00    -0.394 OA
HETATM   23  C1  UNL     1       4.595  49.965 -11.560  1.00  0.00     0.201 C 
ENDBRANCH  21  22
ENDBRANCH  20  21
ENDBRANCH  19  20
ENDBRANCH  14  19
ENDBRANCH   1   7
BRANCH   4  24
HETATM   24  C9  UNL     1      -2.486  51.312 -23.683  1.00  0.00     0.153 C 
BRANCH  24  25
HETATM   25  C10 UNL     1      -1.203  51.385 -24.509  1.00  0.00    -0.032 A 
HETATM   26  C11 UNL     1      -0.995  50.578 -25.640  1.00  0.00     0.011 A 
HETATM   27  C12 UNL     1       0.199  50.653 -26.362  1.00  0.00     0.024 A 
HETATM   28  C13 UNL     1       1.201  51.526 -25.954  1.00  0.00     0.034 A 
HETATM   29 CL1  UNL     1       2.674  51.610 -26.842  1.00  0.00    -0.084 Cl
HETATM   30  C14 UNL     1       1.023  52.324 -24.829  1.00  0.00     0.024 A 
HETATM   31  C15 UNL     1      -0.172  52.253 -24.108  1.00  0.00     0.011 A 
ENDBRANCH  24  25
BRANCH  24  32
HETATM   32  C16 UNL     1      -3.074  49.866 -23.485  1.00  0.00     0.075 C 
HETATM   33  C17 UNL     1      -4.053  49.828 -22.303  1.00  0.00     0.048 C 
HETATM   34  C18 UNL     1      -3.800  49.365 -24.742  1.00  0.00     0.048 C 
BRANCH  32  35
HETATM   35  O4  UNL     1      -2.011  48.948 -23.163  1.00  0.00    -0.388 OA
HETATM   36  H23 UNL     1      -2.359  48.047 -23.246  1.00  0.00     0.210 HD
ENDBRANCH  32  35
ENDBRANCH  24  32
ENDBRANCH   4  24
TORSDOF 9
ENDMDL
MODEL 7
REMARK minimizedAffinity -7.64796162
REMARK  9 active torsions:
REMARK  status: ('A' for Active; 'I' for Inactive)
REMARK    1  A    between atoms: O1_2  and  C2_3 
REMARK    2  A    between atoms: C2_3  and  C3_4 
REMARK    3  A    between atoms: C3_4  and  O2_5 
REMARK    4  A    between atoms: O2_5  and  C4_6 
REMARK    5  A    between atoms: C7_12  and  N3_13 
REMARK       I    between atoms: N3_13  and  C8_14 
REMARK       I    between atoms: C8_14  and  N4_16 
REMARK    6  A    between atoms: N4_16  and  C9_17 
REMARK    7  A    between atoms: C9_17  and  C10_18 
REMARK    8  A    between atoms: C9_17  and  C16_25 
REMARK    9  A    between atoms: C16_25  and  O4_28 
ROOT
HETATM    1  N3  UNL     1      -5.983  48.391 -28.265  1.00  0.00    -0.295 N 
HETATM    2  C8  UNL     1      -4.714  48.378 -27.753  1.00  0.00     0.322 C 
HETATM    3  O3  UNL     1      -3.698  48.018 -28.336  1.00  0.00    -0.247 OA
HETATM    4  N4  UNL     1      -4.695  48.854 -26.465  1.00  0.00    -0.331 N 
HETATM    5  H10 UNL     1      -6.715  48.812 -27.716  1.00  0.00     0.172 HD
HETATM    6  H11 UNL     1      -5.543  48.777 -25.923  1.00  0.00     0.165 HD
ENDROOT
BRANCH   1   7
HETATM    7  C7  UNL     1      -6.409  48.044 -29.546  1.00  0.00     0.111 A 
HETATM    8  C6  UNL     1      -5.880  46.982 -30.270  1.00  0.00     0.080 A 
HETATM    9  C5  UNL     1      -6.406  46.820 -31.553  1.00  0.00     0.067 A 
HETATM   10  N2  UNL     1      -6.128  45.929 -32.553  1.00  0.00    -0.298 N 
HETATM   11  C20 UNL     1      -7.400  47.645 -32.062  1.00  0.00     0.060 A 
HETATM   12  N1  UNL     1      -6.850  46.117 -33.676  1.00  0.00    -0.279 N 
HETATM   13  H8  UNL     1      -5.450  45.174 -32.535  1.00  0.00     0.187 HD
HETATM   14  C4  UNL     1      -7.637  47.149 -33.358  1.00  0.00     0.171 A 
ATOM     15  H1  UNL     1      -6.806  45.598 -34.553  1.00  0.00     0.189 HD
HETATM   16  C19 UNL     1      -7.888  48.676 -31.263  1.00  0.00     0.108 A 
HETATM   17  N5  UNL     1      -7.385  48.862 -30.013  1.00  0.00    -0.351 N 
ATOM     18  H5  UNL     1      -7.742  49.616 -29.426  1.00  0.00     0.166 HD
BRANCH  14  19
HETATM   19  O2  UNL     1      -8.534  47.653 -34.237  1.00  0.00    -0.332 OA
BRANCH  19  20
HETATM   20  C3  UNL     1      -8.746  46.869 -35.416  1.00  0.00     0.203 C 
BRANCH  20  21
HETATM   21  C2  UNL     1      -8.853  47.753 -36.661  1.00  0.00     0.193 C 
BRANCH  21  22
HETATM   22  O1  UNL     1      -7.609  47.709 -37.374  1.00  0.00    -0.394 OA
HETATM   23  C1  UNL     1      -7.810  47.752 -38.778  1.00  0.00     0.201 C 
ENDBRANCH  21  22
ENDBRANCH  20  21
ENDBRANCH  19  20
ENDBRANCH  14  19
ENDBRANCH   1   7
BRANCH   4  24
HETATM   24  C9  UNL     1      -3.472  48.912 -25.668  1.00  0.00     0.153 C 
BRANCH  24  25
HETATM   25  C10 UNL     1      -2.623  50.063 -26.204  1.00  0.00    -0.032 A 
HETATM   26  C11 UNL     1      -1.220  50.004 -26.239  1.00  0.00     0.011 A 
HETATM   27  C12 UNL     1      -0.470  51.081 -26.715  1.00  0.00     0.024 A 
HETATM   28  C13 UNL     1      -1.114  52.235 -27.150  1.00  0.00     0.034 A 
HETATM   29 CL1  UNL     1      -0.186  53.564 -27.729  1.00  0.00    -0.084 Cl
HETATM   30  C14 UNL     1      -2.502  52.321 -27.111  1.00  0.00     0.024 A 
HETATM   31  C15 UNL     1      -3.253  51.243 -26.638  1.00  0.00     0.011 A 
ENDBRANCH  24  25
BRANCH  24  32
HETATM   32  C16 UNL     1      -3.803  48.982 -24.131  1.00  0.00     0.075 C 
HETATM   33  C17 UNL     1      -5.121  48.259 -23.820  1.00  0.00     0.048 C 
HETATM   34  C18 UNL     1      -2.687  48.363 -23.276  1.00  0.00     0.048 C 
BRANCH  32  35
HETATM   35  O4  UNL     1      -3.988  50.355 -23.735  1.00  0.00    -0.388 OA
HETATM   36  H23 UNL     1      -3.987  50.388 -22.766  1.00  0.00     0.210 HD
ENDBRANCH  32  35
ENDBRANCH  24  32
ENDBRANCH   4  24
TORSDOF 9
ENDMDL
MODEL 8
REMARK minimizedAffinity -7.60255814
REMARK  9 active torsions:
REMARK  status: ('A' for Active; 'I' for Inactive)
REMARK    1  A    between atoms: O1_2  and  C2_3 
REMARK    2  A    between atoms: C2_3  and  C3_4 
REMARK    3  A    between atoms: C3_4  and  O2_5 
REMARK    4  A    between atoms: O2_5  and  C4_6 
REMARK    5  A    between atoms: C7_12  and  N3_13 
REMARK       I    between atoms: N3_13  and  C8_14 
REMARK       I    between atoms: C8_14  and  N4_16 
REMARK    6  A    between atoms: N4_16  and  C9_17 
REMARK    7  A    between atoms: C9_17  and  C10_18 
REMARK    8  A    between atoms: C9_17  and  C16_25 
REMARK    9  A    between atoms: C16_25  and  O4_28 
ROOT
HETATM    1  N3  UNL     1      -2.997  49.429 -25.640  1.00  0.00    -0.295 N 
HETATM    2  C8  UNL     1      -2.799  50.766 -25.426  1.00  0.00     0.322 C 
HETATM    3  O3  UNL     1      -3.454  51.685 -25.905  1.00  0.00    -0.247 OA
HETATM    4  N4  UNL     1      -1.755  50.980 -24.560  1.00  0.00    -0.331 N 
HETATM    5  H10 UNL     1      -2.455  48.774 -25.101  1.00  0.00     0.172 HD
HETATM    6  H11 UNL     1      -1.042  50.268 -24.499  1.00  0.00     0.165 HD
ENDROOT
BRANCH   1   7
HETATM    7  C7  UNL     1      -3.985  48.806 -26.401  1.00  0.00     0.111 A 
HETATM    8  C6  UNL     1      -3.862  48.557 -27.763  1.00  0.00     0.080 A 
HETATM    9  C5  UNL     1      -4.975  47.963 -28.359  1.00  0.00     0.067 A 
HETATM   10  N2  UNL     1      -5.240  47.598 -29.651  1.00  0.00    -0.298 N 
HETATM   11  C20 UNL     1      -6.115  47.624 -27.641  1.00  0.00     0.060 A 
HETATM   12  N1  UNL     1      -6.464  47.063 -29.833  1.00  0.00    -0.279 N 
HETATM   13  H8  UNL     1      -4.630  47.695 -30.457  1.00  0.00     0.187 HD
HETATM   14  C4  UNL     1      -6.979  47.063 -28.601  1.00  0.00     0.171 A 
ATOM     15  H1  UNL     1      -6.891  46.739 -30.701  1.00  0.00     0.189 HD
HETATM   16  C19 UNL     1      -6.149  47.892 -26.275  1.00  0.00     0.108 A 
HETATM   17  N5  UNL     1      -5.080  48.480 -25.672  1.00  0.00    -0.351 N 
ATOM     18  H5  UNL     1      -5.103  48.676 -24.672  1.00  0.00     0.166 HD
BRANCH  14  19
HETATM   19  O2  UNL     1      -8.222  46.590 -28.352  1.00  0.00    -0.332 OA
BRANCH  19  20
HETATM   20  C3  UNL     1      -9.254  47.580 -28.289  1.00  0.00     0.203 C 
BRANCH  20  21
HETATM   21  C2  UNL     1      -9.152  48.566 -29.455  1.00  0.00     0.193 C 
BRANCH  21  22
HETATM   22  O1  UNL     1     -10.285  48.392 -30.317  1.00  0.00    -0.394 OA
HETATM   23  C1  UNL     1     -10.067  47.358 -31.264  1.00  0.00     0.201 C 
ENDBRANCH  21  22
ENDBRANCH  20  21
ENDBRANCH  19  20
ENDBRANCH  14  19
ENDBRANCH   1   7
BRANCH   4  24
HETATM   24  C9  UNL     1      -1.304  52.319 -24.190  1.00  0.00     0.153 C 
BRANCH  24  25
HETATM   25  C10 UNL     1      -0.829  52.264 -22.738  1.00  0.00    -0.032 A 
HETATM   26  C11 UNL     1      -1.614  51.707 -21.716  1.00  0.00     0.011 A 
HETATM   27  C12 UNL     1      -1.161  51.691 -20.394  1.00  0.00     0.024 A 
HETATM   28  C13 UNL     1       0.077  52.241 -20.080  1.00  0.00     0.034 A 
HETATM   29 CL1  UNL     1       0.629  52.226 -18.450  1.00  0.00    -0.084 Cl
HETATM   30  C14 UNL     1       0.865  52.810 -21.075  1.00  0.00     0.024 A 
HETATM   31  C15 UNL     1       0.415  52.824 -22.397  1.00  0.00     0.011 A 
ENDBRANCH  24  25
BRANCH  24  32
HETATM   32  C16 UNL     1      -0.249  52.865 -25.220  1.00  0.00     0.075 C 
HETATM   33  C17 UNL     1       0.406  54.154 -24.706  1.00  0.00     0.048 C 
HETATM   34  C18 UNL     1       0.853  51.835 -25.512  1.00  0.00     0.048 C 
BRANCH  32  35
HETATM   35  O4  UNL     1      -0.906  53.207 -26.456  1.00  0.00    -0.388 OA
HETATM   36  H23 UNL     1      -0.223  53.344 -27.130  1.00  0.00     0.210 HD
ENDBRANCH  32  35
ENDBRANCH  24  32
ENDBRANCH   4  24
TORSDOF 9
ENDMDL
MODEL 9
REMARK minimizedAffinity -7.5991478
REMARK  9 active torsions:
REMARK  status: ('A' for Active; 'I' for Inactive)
REMARK    1  A    between atoms: O1_2  and  C2_3 
REMARK    2  A    between atoms: C2_3  and  C3_4 
REMARK    3  A    between atoms: C3_4  and  O2_5 
REMARK    4  A    between atoms: O2_5  and  C4_6 
REMARK    5  A    between atoms: C7_12  and  N3_13 
REMARK       I    between atoms: N3_13  and  C8_14 
REMARK       I    between atoms: C8_14  and  N4_16 
REMARK    6  A    between atoms: N4_16  and  C9_17 
REMARK    7  A    between atoms: C9_17  and  C10_18 
REMARK    8  A    between atoms: C9_17  and  C16_25 
REMARK    9  A    between atoms: C16_25  and  O4_28 
ROOT
HETATM    1  N3  UNL     1      -4.942  48.433 -27.284  1.00  0.00    -0.295 N 
HETATM    2  C8  UNL     1      -4.966  48.564 -28.646  1.00  0.00     0.322 C 
HETATM    3  O3  UNL     1      -4.228  49.271 -29.322  1.00  0.00    -0.247 OA
HETATM    4  N4  UNL     1      -5.934  47.765 -29.203  1.00  0.00    -0.331 N 
HETATM    5  H10 UNL     1      -5.533  47.737 -26.860  1.00  0.00     0.172 HD
HETATM    6  H11 UNL     1      -6.724  47.514 -28.628  1.00  0.00     0.165 HD
ENDROOT
BRANCH   1   7
HETATM    7  C7  UNL     1      -4.075  49.026 -26.367  1.00  0.00     0.111 A 
HETATM    8  C6  UNL     1      -3.692  48.426 -25.173  1.00  0.00     0.080 A 
HETATM    9  C5  UNL     1      -2.853  49.195 -24.366  1.00  0.00     0.067 A 
HETATM   10  N2  UNL     1      -2.300  48.967 -23.136  1.00  0.00    -0.298 N 
HETATM   11  C20 UNL     1      -2.414  50.460 -24.738  1.00  0.00     0.060 A 
HETATM   12  N1  UNL     1      -1.548  49.985 -22.672  1.00  0.00    -0.279 N 
HETATM   13  H8  UNL     1      -2.403  48.139 -22.558  1.00  0.00     0.187 HD
HETATM   14  C4  UNL     1      -1.605  50.878 -23.664  1.00  0.00     0.171 A 
ATOM     15  H1  UNL     1      -1.056  50.055 -21.781  1.00  0.00     0.189 HD
HETATM   16  C19 UNL     1      -2.830  50.981 -25.960  1.00  0.00     0.108 A 
HETATM   17  N5  UNL     1      -3.657  50.254 -26.760  1.00  0.00    -0.351 N 
ATOM     18  H5  UNL     1      -3.962  50.634 -27.656  1.00  0.00     0.166 HD
BRANCH  14  19
HETATM   19  O2  UNL     1      -0.962  52.066 -23.586  1.00  0.00    -0.332 OA
BRANCH  19  20
HETATM   20  C3  UNL     1       0.117  52.242 -24.510  1.00  0.00     0.203 C 
BRANCH  20  21
HETATM   21  C2  UNL     1       0.085  53.633 -25.147  1.00  0.00     0.193 C 
BRANCH  21  22
HETATM   22  O1  UNL     1       0.746  53.582 -26.419  1.00  0.00    -0.394 OA
HETATM   23  C1  UNL     1      -0.179  53.427 -27.484  1.00  0.00     0.201 C 
ENDBRANCH  21  22
ENDBRANCH  20  21
ENDBRANCH  19  20
ENDBRANCH  14  19
ENDBRANCH   1   7
BRANCH   4  24
HETATM   24  C9  UNL     1      -6.200  47.740 -30.639  1.00  0.00     0.153 C 
BRANCH  24  25
HETATM   25  C10 UNL     1      -5.895  46.330 -31.143  1.00  0.00    -0.032 A 
HETATM   26  C11 UNL     1      -4.875  46.074 -32.074  1.00  0.00     0.011 A 
HETATM   27  C12 UNL     1      -4.634  44.776 -32.532  1.00  0.00     0.024 A 
HETATM   28  C13 UNL     1      -5.420  43.724 -32.075  1.00  0.00     0.034 A 
HETATM   29 CL1  UNL     1      -5.125  42.127 -32.648  1.00  0.00    -0.084 Cl
HETATM   30  C14 UNL     1      -6.445  43.957 -31.164  1.00  0.00     0.024 A 
HETATM   31  C15 UNL     1      -6.684  45.253 -30.703  1.00  0.00     0.011 A 
ENDBRANCH  24  25
BRANCH  24  32
HETATM   32  C16 UNL     1      -7.649  48.266 -30.953  1.00  0.00     0.075 C 
HETATM   33  C17 UNL     1      -8.012  48.029 -32.426  1.00  0.00     0.048 C 
HETATM   34  C18 UNL     1      -8.708  47.590 -30.070  1.00  0.00     0.048 C 
BRANCH  32  35
HETATM   35  O4  UNL     1      -7.707  49.690 -30.743  1.00  0.00    -0.388 OA
HETATM   36  H23 UNL     1      -8.640  49.955 -30.745  1.00  0.00     0.210 HD
ENDBRANCH  32  35
ENDBRANCH  24  32
ENDBRANCH   4  24
TORSDOF 9
ENDMDL
