MODEL 1
REMARK minimizedAffinity -7.96302271
REMARK CNNscore 0.553050399
REMARK CNNaffinity 6.03718424
REMARK  7 active torsions:
REMARK  status: ('A' for Active; 'I' for Inactive)
REMARK       I    between atoms: C1_2  and  N1_3 
REMARK    1  A    between atoms: C1_2  and  C8_12 
REMARK    2  A    between atoms: N1_3  and  C2_4 
REMARK    3  A    between atoms: C5_7  and  O2_8 
REMARK    4  A    between atoms: N2_15  and  C11_16 
REMARK    5  A    between atoms: C11_16  and  C12_17 
REMARK       I    between atoms: C12_17  and  N3_19 
REMARK    6  A    between atoms: N4_22  and  C15_23 
REMARK    7  A    between atoms: C18_26  and  C19_27 
ROOT
HETATM    1  C11 UNL     1      -8.563  48.105 -24.385  1.00  0.00     0.374 C 
ENDROOT
BRANCH   1   2
HETATM    2  N2  UNL     1      -9.230  46.974 -25.065  1.00  0.00     0.098 N 
HETATM    3  C10 UNL     1      -8.805  46.848 -26.463  1.00  0.00     0.274 C 
HETATM    4  C9  UNL     1      -9.712  47.767 -27.271  1.00  0.00     0.046 C 
HETATM    5  C8  UNL     1     -10.934  48.012 -26.384  1.00  0.00     0.108 C 
HETATM    6  C27 UNL     1     -10.695  47.134 -25.158  1.00  0.00     0.287 C 
BRANCH   5   7
HETATM    7  C1  UNL     1     -12.258  47.719 -27.082  1.00  0.00     0.228 C 
HETATM    8  O1  UNL     1     -12.682  48.418 -27.996  1.00  0.00    -0.273 OA
HETATM    9  N1  UNL     1     -12.864  46.573 -26.588  1.00  0.00    -0.327 N 
HETATM   10  H1  UNL     1     -12.367  46.073 -25.861  1.00  0.00     0.169 HD
BRANCH   9  11
HETATM   11  C2  UNL     1     -14.086  46.000 -27.001  1.00  0.00     0.036 A 
HETATM   12  C3  UNL     1     -14.285  45.388 -28.242  1.00  0.00     0.032 A 
HETATM   13  C4  UNL     1     -15.527  44.839 -28.578  1.00  0.00     0.040 A 
HETATM   14  C5  UNL     1     -16.583  44.901 -27.672  1.00  0.00     0.087 A 
HETATM   15  C6  UNL     1     -16.398  45.513 -26.431  1.00  0.00     0.069 A 
HETATM   16 CL1  UNL     1     -17.678  45.614 -25.278  1.00  0.00    -0.081 Cl
HETATM   17  C7  UNL     1     -15.156  46.061 -26.098  1.00  0.00     0.056 A 
BRANCH  14  18
HETATM   18  O2  UNL     1     -17.794  44.364 -28.000  1.00  0.00    -0.359 OA
HETATM   19  H4  UNL     1     -17.744  43.978 -28.890  1.00  0.00     0.217 HD
ENDBRANCH  14  18
ENDBRANCH   9  11
ENDBRANCH   5   7
ENDBRANCH   1   2
BRANCH   1  20
HETATM   20  C12 UNL     1      -7.643  47.657 -23.227  1.00  0.00     0.248 C 
HETATM   21  O3  UNL     1      -7.714  46.541 -22.707  1.00  0.00    -0.271 OA
HETATM   22  N3  UNL     1      -6.723  48.607 -22.769  1.00  0.00    -0.348 N 
HETATM   23  C13 UNL     1      -6.181  49.677 -23.621  1.00  0.00     0.145 C 
HETATM   24  C26 UNL     1      -5.773  48.182 -21.731  1.00  0.00     0.145 C 
HETATM   25  C14 UNL     1      -4.866  49.217 -24.294  1.00  0.00     0.143 C 
HETATM   26  N4  UNL     1      -3.890  48.752 -23.274  1.00  0.00    -0.378 N 
HETATM   27  C25 UNL     1      -4.448  47.712 -22.368  1.00  0.00     0.143 C 
BRANCH  26  28
HETATM   28  C15 UNL     1      -2.976  49.693 -22.802  1.00  0.00     0.030 A 
HETATM   29  C16 UNL     1      -2.018  50.241 -23.671  1.00  0.00     0.030 A 
HETATM   30  C17 UNL     1      -1.067  51.179 -23.241  1.00  0.00     0.014 A 
HETATM   31  C18 UNL     1      -1.037  51.601 -21.913  1.00  0.00    -0.024 A 
HETATM   32  C23 UNL     1      -1.967  51.052 -21.027  1.00  0.00     0.014 A 
HETATM   33  C24 UNL     1      -2.912  50.110 -21.466  1.00  0.00     0.030 A 
BRANCH  31  34
HETATM   34  C19 UNL     1      -0.044  52.567 -21.473  1.00  0.00    -0.002 A 
HETATM   35  C20 UNL     1       0.260  53.041 -20.165  1.00  0.00     0.038 A 
HETATM   36  C21 UNL     1       1.291  53.939 -20.301  1.00  0.00     0.142 A 
HETATM   37  O4  UNL     1       1.656  54.046 -21.603  1.00  0.00    -0.334 OA
HETATM   38  C22 UNL     1       0.846  53.213 -22.307  1.00  0.00     0.153 A 
ENDBRANCH  31  34
ENDBRANCH  26  28
ENDBRANCH   1  20
TORSDOF 7
ENDMDL
MODEL 2
REMARK minimizedAffinity -7.95478439
REMARK CNNscore 0.39695707
REMARK CNNaffinity 6.23335981
REMARK  7 active torsions:
REMARK  status: ('A' for Active; 'I' for Inactive)
REMARK       I    between atoms: C1_2  and  N1_3 
REMARK    1  A    between atoms: C1_2  and  C8_12 
REMARK    2  A    between atoms: N1_3  and  C2_4 
REMARK    3  A    between atoms: C5_7  and  O2_8 
REMARK    4  A    between atoms: N2_15  and  C11_16 
REMARK    5  A    between atoms: C11_16  and  C12_17 
REMARK       I    between atoms: C12_17  and  N3_19 
REMARK    6  A    between atoms: N4_22  and  C15_23 
REMARK    7  A    between atoms: C18_26  and  C19_27 
ROOT
HETATM    1  C11 UNL     1      -6.704  47.618 -26.870  1.00  0.00     0.374 C 
ENDROOT
BRANCH   1   2
HETATM    2  N2  UNL     1      -8.066  47.919 -27.361  1.00  0.00     0.098 N 
HETATM    3  C10 UNL     1      -8.941  46.744 -27.304  1.00  0.00     0.274 C 
HETATM    4  C9  UNL     1      -8.724  45.986 -28.608  1.00  0.00     0.046 C 
HETATM    5  C8  UNL     1      -8.105  47.002 -29.569  1.00  0.00     0.108 C 
HETATM    6  C27 UNL     1      -8.098  48.311 -28.784  1.00  0.00     0.287 C 
BRANCH   5   7
HETATM    7  C1  UNL     1      -8.842  47.106 -30.900  1.00  0.00     0.228 C 
HETATM    8  O1  UNL     1      -9.711  47.946 -31.100  1.00  0.00    -0.273 OA
HETATM    9  N1  UNL     1      -8.377  46.182 -31.826  1.00  0.00    -0.327 N 
HETATM   10  H1  UNL     1      -7.618  45.582 -31.526  1.00  0.00     0.169 HD
BRANCH   9  11
HETATM   11  C2  UNL     1      -8.819  45.998 -33.153  1.00  0.00     0.036 A 
HETATM   12  C3  UNL     1      -9.782  45.060 -33.535  1.00  0.00     0.032 A 
HETATM   13  C4  UNL     1     -10.173  44.939 -34.873  1.00  0.00     0.040 A 
HETATM   14  C5  UNL     1      -9.598  45.759 -35.841  1.00  0.00     0.087 A 
HETATM   15  C6  UNL     1      -8.632  46.696 -35.474  1.00  0.00     0.069 A 
HETATM   16 CL1  UNL     1      -7.892  47.732 -36.639  1.00  0.00    -0.081 Cl
HETATM   17  C7  UNL     1      -8.244  46.815 -34.136  1.00  0.00     0.056 A 
BRANCH  14  18
HETATM   18  O2  UNL     1      -9.980  45.641 -37.147  1.00  0.00    -0.359 OA
HETATM   19  H4  UNL     1     -10.658  44.950 -37.222  1.00  0.00     0.217 HD
ENDBRANCH  14  18
ENDBRANCH   9  11
ENDBRANCH   5   7
ENDBRANCH   1   2
BRANCH   1  20
HETATM   20  C12 UNL     1      -6.575  47.728 -25.334  1.00  0.00     0.248 C 
HETATM   21  O3  UNL     1      -7.188  46.994 -24.556  1.00  0.00    -0.271 OA
HETATM   22  N3  UNL     1      -5.733  48.739 -24.858  1.00  0.00    -0.348 N 
HETATM   23  C13 UNL     1      -4.586  49.254 -25.621  1.00  0.00     0.145 C 
HETATM   24  C26 UNL     1      -5.519  48.812 -23.406  1.00  0.00     0.145 C 
HETATM   25  C14 UNL     1      -3.301  48.473 -25.257  1.00  0.00     0.143 C 
HETATM   26  N4  UNL     1      -3.068  48.501 -23.789  1.00  0.00    -0.378 N 
HETATM   27  C25 UNL     1      -4.245  48.038 -23.006  1.00  0.00     0.143 C 
BRANCH  26  28
HETATM   28  C15 UNL     1      -2.239  49.511 -23.301  1.00  0.00     0.030 A 
HETATM   29  C16 UNL     1      -1.977  49.602 -21.925  1.00  0.00     0.030 A 
HETATM   30  C17 UNL     1      -1.163  50.608 -21.383  1.00  0.00     0.014 A 
HETATM   31  C18 UNL     1      -0.583  51.572 -22.207  1.00  0.00    -0.024 A 
HETATM   32  C23 UNL     1      -0.849  51.512 -23.576  1.00  0.00     0.014 A 
HETATM   33  C24 UNL     1      -1.669  50.504 -24.108  1.00  0.00     0.030 A 
BRANCH  31  34
HETATM   34  C19 UNL     1       0.251  52.617 -21.637  1.00  0.00    -0.002 A 
HETATM   35  C20 UNL     1       0.538  52.924 -20.276  1.00  0.00     0.038 A 
HETATM   36  C21 UNL     1       1.391  54.002 -20.287  1.00  0.00     0.142 A 
HETATM   37  O4  UNL     1       1.661  54.378 -21.562  1.00  0.00    -0.334 OA
HETATM   38  C22 UNL     1       0.971  53.536 -22.375  1.00  0.00     0.153 A 
ENDBRANCH  31  34
ENDBRANCH  26  28
ENDBRANCH   1  20
TORSDOF 7
ENDMDL
MODEL 3
REMARK minimizedAffinity -7.35186291
REMARK CNNscore 0.293862194
REMARK CNNaffinity 5.95870161
REMARK  7 active torsions:
REMARK  status: ('A' for Active; 'I' for Inactive)
REMARK       I    between atoms: C1_2  and  N1_3 
REMARK    1  A    between atoms: C1_2  and  C8_12 
REMARK    2  A    between atoms: N1_3  and  C2_4 
REMARK    3  A    between atoms: C5_7  and  O2_8 
REMARK    4  A    between atoms: N2_15  and  C11_16 
REMARK    5  A    between atoms: C11_16  and  C12_17 
REMARK       I    between atoms: C12_17  and  N3_19 
REMARK    6  A    between atoms: N4_22  and  C15_23 
REMARK    7  A    between atoms: C18_26  and  C19_27 
ROOT
HETATM    1  C11 UNL     1       0.779  52.756 -10.596  1.00  0.00     0.374 C 
ENDROOT
BRANCH   1   2
HETATM    2  N2  UNL     1       1.017  54.215 -10.581  1.00  0.00     0.098 N 
HETATM    3  C10 UNL     1       2.330  54.551 -10.023  1.00  0.00     0.274 C 
HETATM    4  C9  UNL     1       2.143  54.645  -8.514  1.00  0.00     0.046 C 
HETATM    5  C8  UNL     1       0.640  54.842  -8.304  1.00  0.00     0.108 C 
HETATM    6  C27 UNL     1       0.071  54.949  -9.716  1.00  0.00     0.287 C 
BRANCH   5   7
HETATM    7  C1  UNL     1       0.304  56.045  -7.429  1.00  0.00     0.228 C 
HETATM    8  O1  UNL     1      -0.463  56.926  -7.800  1.00  0.00    -0.273 OA
HETATM    9  N1  UNL     1       0.926  55.977  -6.190  1.00  0.00    -0.327 N 
HETATM   10  H1  UNL     1       1.495  55.158  -6.011  1.00  0.00     0.169 HD
BRANCH   9  11
HETATM   11  C2  UNL     1       0.835  56.905  -5.131  1.00  0.00     0.036 A 
HETATM   12  C3  UNL     1       1.923  57.618  -4.619  1.00  0.00     0.032 A 
HETATM   13  C4  UNL     1       1.753  58.527  -3.568  1.00  0.00     0.040 A 
HETATM   14  C5  UNL     1       0.488  58.726  -3.020  1.00  0.00     0.087 A 
HETATM   15  C6  UNL     1      -0.605  58.018  -3.519  1.00  0.00     0.069 A 
HETATM   16 CL1  UNL     1      -2.190  58.232  -2.870  1.00  0.00    -0.081 Cl
HETATM   17  C7  UNL     1      -0.432  57.111  -4.569  1.00  0.00     0.056 A 
BRANCH  14  18
HETATM   18  O2  UNL     1       0.323  59.613  -1.996  1.00  0.00    -0.359 OA
HETATM   19  H4  UNL     1       1.179  60.017  -1.779  1.00  0.00     0.217 HD
ENDBRANCH  14  18
ENDBRANCH   9  11
ENDBRANCH   5   7
ENDBRANCH   1   2
BRANCH   1  20
HETATM   20  C12 UNL     1       1.751  51.994 -11.525  1.00  0.00     0.248 C 
HETATM   21  O3  UNL     1       2.635  51.246 -11.103  1.00  0.00    -0.271 OA
HETATM   22  N3  UNL     1       1.592  52.219 -12.898  1.00  0.00    -0.348 N 
HETATM   23  C13 UNL     1       0.308  52.595 -13.508  1.00  0.00     0.145 C 
HETATM   24  C26 UNL     1       2.441  51.441 -13.812  1.00  0.00     0.145 C 
HETATM   25  C14 UNL     1      -0.463  51.333 -13.964  1.00  0.00     0.143 C 
HETATM   26  N4  UNL     1       0.377  50.505 -14.870  1.00  0.00    -0.378 N 
HETATM   27  C25 UNL     1       1.704  50.170 -14.286  1.00  0.00     0.143 C 
BRANCH  26  28
HETATM   28  C15 UNL     1       0.237  50.729 -16.239  1.00  0.00     0.030 A 
HETATM   29  C16 UNL     1      -0.439  49.793 -17.039  1.00  0.00     0.030 A 
HETATM   30  C17 UNL     1      -0.594  49.963 -18.423  1.00  0.00     0.014 A 
HETATM   31  C18 UNL     1      -0.068  51.085 -19.062  1.00  0.00    -0.024 A 
HETATM   32  C23 UNL     1       0.627  52.017 -18.289  1.00  0.00     0.014 A 
HETATM   33  C24 UNL     1       0.780  51.835 -16.905  1.00  0.00     0.030 A 
BRANCH  31  34
HETATM   34  C19 UNL     1      -0.224  51.251 -20.498  1.00  0.00    -0.002 A 
HETATM   35  C20 UNL     1       0.203  52.307 -21.352  1.00  0.00     0.038 A 
HETATM   36  C21 UNL     1      -0.189  51.967 -22.625  1.00  0.00     0.142 A 
HETATM   37  O4  UNL     1      -0.820  50.766 -22.620  1.00  0.00    -0.334 OA
HETATM   38  C22 UNL     1      -0.837  50.337 -21.331  1.00  0.00     0.153 A 
ENDBRANCH  31  34
ENDBRANCH  26  28
ENDBRANCH   1  20
TORSDOF 7
ENDMDL
MODEL 4
REMARK minimizedAffinity -8.67001534
REMARK CNNscore 0.25973922
REMARK CNNaffinity 6.04178572
REMARK  7 active torsions:
REMARK  status: ('A' for Active; 'I' for Inactive)
REMARK       I    between atoms: C1_2  and  N1_3 
REMARK    1  A    between atoms: C1_2  and  C8_12 
REMARK    2  A    between atoms: N1_3  and  C2_4 
REMARK    3  A    between atoms: C5_7  and  O2_8 
REMARK    4  A    between atoms: N2_15  and  C11_16 
REMARK    5  A    between atoms: C11_16  and  C12_17 
REMARK       I    between atoms: C12_17  and  N3_19 
REMARK    6  A    between atoms: N4_22  and  C15_23 
REMARK    7  A    between atoms: C18_26  and  C19_27 
ROOT
HETATM    1  C11 UNL     1      -7.493  47.127 -24.738  1.00  0.00     0.374 C 
ENDROOT
BRANCH   1   2
HETATM    2  N2  UNL     1      -7.895  47.770 -26.007  1.00  0.00     0.098 N 
HETATM    3  C10 UNL     1      -9.225  47.334 -26.445  1.00  0.00     0.274 C 
HETATM    4  C9  UNL     1      -9.013  46.057 -27.249  1.00  0.00     0.046 C 
HETATM    5  C8  UNL     1      -7.538  46.074 -27.656  1.00  0.00     0.108 C 
HETATM    6  C27 UNL     1      -7.019  47.414 -27.141  1.00  0.00     0.287 C 
BRANCH   5   7
HETATM    7  C1  UNL     1      -7.320  45.880 -29.152  1.00  0.00     0.228 C 
HETATM    8  O1  UNL     1      -7.252  44.768 -29.663  1.00  0.00    -0.273 OA
HETATM    9  N1  UNL     1      -7.260  47.090 -29.830  1.00  0.00    -0.327 N 
HETATM   10  H1  UNL     1      -7.381  47.929 -29.274  1.00  0.00     0.169 HD
BRANCH   9  11
HETATM   11  C2  UNL     1      -7.077  47.292 -31.215  1.00  0.00     0.036 A 
HETATM   12  C3  UNL     1      -8.123  47.465 -32.126  1.00  0.00     0.032 A 
HETATM   13  C4  UNL     1      -7.862  47.664 -33.486  1.00  0.00     0.040 A 
HETATM   14  C5  UNL     1      -6.547  47.689 -33.944  1.00  0.00     0.087 A 
HETATM   15  C6  UNL     1      -5.494  47.514 -33.045  1.00  0.00     0.069 A 
HETATM   16 CL1  UNL     1      -3.850  47.536 -33.569  1.00  0.00    -0.081 Cl
HETATM   17  C7  UNL     1      -5.758  47.315 -31.687  1.00  0.00     0.056 A 
BRANCH  14  18
HETATM   18  O2  UNL     1      -6.292  47.885 -35.271  1.00  0.00    -0.359 OA
HETATM   19  H4  UNL     1      -7.132  47.993 -35.747  1.00  0.00     0.217 HD
ENDBRANCH  14  18
ENDBRANCH   9  11
ENDBRANCH   5   7
ENDBRANCH   1   2
BRANCH   1  20
HETATM   20  C12 UNL     1      -7.578  48.080 -23.524  1.00  0.00     0.248 C 
HETATM   21  O3  UNL     1      -8.507  48.055 -22.715  1.00  0.00    -0.271 OA
HETATM   22  N3  UNL     1      -6.540  49.012 -23.400  1.00  0.00    -0.348 N 
HETATM   23  C13 UNL     1      -5.184  48.778 -23.919  1.00  0.00     0.145 C 
HETATM   24  C26 UNL     1      -6.544  49.872 -22.208  1.00  0.00     0.145 C 
HETATM   25  C14 UNL     1      -4.292  48.138 -22.829  1.00  0.00     0.143 C 
HETATM   26  N4  UNL     1      -4.294  48.968 -21.596  1.00  0.00    -0.378 N 
HETATM   27  C25 UNL     1      -5.664  49.261 -21.096  1.00  0.00     0.143 C 
BRANCH  26  28
HETATM   28  C15 UNL     1      -3.272  49.908 -21.466  1.00  0.00     0.030 A 
HETATM   29  C16 UNL     1      -2.362  50.106 -22.517  1.00  0.00     0.030 A 
HETATM   30  C17 UNL     1      -1.308  51.027 -22.431  1.00  0.00     0.014 A 
HETATM   31  C18 UNL     1      -1.122  51.787 -21.276  1.00  0.00    -0.024 A 
HETATM   32  C23 UNL     1      -2.003  51.590 -20.211  1.00  0.00     0.014 A 
HETATM   33  C24 UNL     1      -3.053  50.661 -20.306  1.00  0.00     0.030 A 
BRANCH  31  34
HETATM   34  C19 UNL     1      -0.022  52.733 -21.190  1.00  0.00    -0.002 A 
HETATM   35  C20 UNL     1       0.861  53.210 -22.201  1.00  0.00     0.038 A 
HETATM   36  C21 UNL     1       1.713  54.100 -21.592  1.00  0.00     0.142 A 
HETATM   37  O4  UNL     1       1.412  54.216 -20.275  1.00  0.00    -0.334 OA
HETATM   38  C22 UNL     1       0.361  53.389 -20.037  1.00  0.00     0.153 A 
ENDBRANCH  31  34
ENDBRANCH  26  28
ENDBRANCH   1  20
TORSDOF 7
ENDMDL
MODEL 5
REMARK minimizedAffinity -7.344491
REMARK CNNscore 0.25528276
REMARK CNNaffinity 5.8121171
REMARK  7 active torsions:
REMARK  status: ('A' for Active; 'I' for Inactive)
REMARK       I    between atoms: C1_2  and  N1_3 
REMARK    1  A    between atoms: C1_2  and  C8_12 
REMARK    2  A    between atoms: N1_3  and  C2_4 
REMARK    3  A    between atoms: C5_7  and  O2_8 
REMARK    4  A    between atoms: N2_15  and  C11_16 
REMARK    5  A    between atoms: C11_16  and  C12_17 
REMARK       I    between atoms: C12_17  and  N3_19 
REMARK    6  A    between atoms: N4_22  and  C15_23 
REMARK    7  A    between atoms: C18_26  and  C19_27 
ROOT
HETATM    1  C11 UNL     1      -7.289  46.478 -21.738  1.00  0.00     0.374 C 
ENDROOT
BRANCH   1   2
HETATM    2  N2  UNL     1      -7.236  46.250 -23.198  1.00  0.00     0.098 N 
HETATM    3  C10 UNL     1      -7.197  47.509 -23.948  1.00  0.00     0.274 C 
HETATM    4  C9  UNL     1      -8.647  47.934 -24.146  1.00  0.00     0.046 C 
HETATM    5  C8  UNL     1      -9.474  46.665 -23.933  1.00  0.00     0.108 C 
HETATM    6  C27 UNL     1      -8.435  45.566 -23.723  1.00  0.00     0.287 C 
BRANCH   5   7
HETATM    7  C1  UNL     1     -10.436  46.369 -25.078  1.00  0.00     0.228 C 
HETATM    8  O1  UNL     1     -11.652  46.449 -24.945  1.00  0.00    -0.273 OA
HETATM    9  N1  UNL     1      -9.766  46.057 -26.253  1.00  0.00    -0.327 N 
HETATM   10  H1  UNL     1      -8.754  46.078 -26.218  1.00  0.00     0.169 HD
BRANCH   9  11
HETATM   11  C2  UNL     1     -10.332  45.739 -27.506  1.00  0.00     0.036 A 
HETATM   12  C3  UNL     1     -11.055  44.571 -27.766  1.00  0.00     0.032 A 
HETATM   13  C4  UNL     1     -11.590  44.328 -29.036  1.00  0.00     0.040 A 
HETATM   14  C5  UNL     1     -11.401  45.254 -30.058  1.00  0.00     0.087 A 
HETATM   15  C6  UNL     1     -10.677  46.422 -29.813  1.00  0.00     0.069 A 
HETATM   16 CL1  UNL     1     -10.417  47.597 -31.050  1.00  0.00    -0.081 Cl
HETATM   17  C7  UNL     1     -10.144  46.662 -28.543  1.00  0.00     0.056 A 
BRANCH  14  18
HETATM   18  O2  UNL     1     -11.923  45.017 -31.297  1.00  0.00    -0.359 OA
HETATM   19  H4  UNL     1     -12.396  44.168 -31.289  1.00  0.00     0.217 HD
ENDBRANCH  14  18
ENDBRANCH   9  11
ENDBRANCH   5   7
ENDBRANCH   1   2
BRANCH   1  20
HETATM   20  C12 UNL     1      -5.932  46.239 -21.039  1.00  0.00     0.248 C 
HETATM   21  O3  UNL     1      -5.578  45.135 -20.620  1.00  0.00    -0.271 OA
HETATM   22  N3  UNL     1      -5.117  47.366 -20.875  1.00  0.00    -0.348 N 
HETATM   23  C13 UNL     1      -5.161  48.527 -21.778  1.00  0.00     0.145 C 
HETATM   24  C26 UNL     1      -3.783  47.157 -20.296  1.00  0.00     0.145 C 
HETATM   25  C14 UNL     1      -4.132  48.361 -22.921  1.00  0.00     0.143 C 
HETATM   26  N4  UNL     1      -2.772  48.118 -22.371  1.00  0.00    -0.378 N 
HETATM   27  C25 UNL     1      -2.729  46.984 -21.411  1.00  0.00     0.143 C 
BRANCH  26  28
HETATM   28  C15 UNL     1      -1.956  49.235 -22.193  1.00  0.00     0.030 A 
HETATM   29  C16 UNL     1      -1.177  49.358 -21.031  1.00  0.00     0.030 A 
HETATM   30  C17 UNL     1      -0.352  50.468 -20.797  1.00  0.00     0.014 A 
HETATM   31  C18 UNL     1      -0.281  51.507 -21.724  1.00  0.00    -0.024 A 
HETATM   32  C23 UNL     1      -1.064  51.414 -22.877  1.00  0.00     0.014 A 
HETATM   33  C24 UNL     1      -1.890  50.301 -23.100  1.00  0.00     0.030 A 
BRANCH  31  34
HETATM   34  C19 UNL     1       0.570  52.658 -21.472  1.00  0.00    -0.002 A 
HETATM   35  C20 UNL     1       1.186  53.098 -20.265  1.00  0.00     0.038 A 
HETATM   36  C21 UNL     1       1.891  54.236 -20.575  1.00  0.00     0.142 A 
HETATM   37  O4  UNL     1       1.765  54.526 -21.894  1.00  0.00    -0.334 OA
HETATM   38  C22 UNL     1       0.965  53.568 -22.432  1.00  0.00     0.153 A 
ENDBRANCH  31  34
ENDBRANCH  26  28
ENDBRANCH   1  20
TORSDOF 7
ENDMDL
MODEL 6
REMARK minimizedAffinity -8.92874241
REMARK CNNscore 0.242471367
REMARK CNNaffinity 6.20878649
REMARK  7 active torsions:
REMARK  status: ('A' for Active; 'I' for Inactive)
REMARK       I    between atoms: C1_2  and  N1_3 
REMARK    1  A    between atoms: C1_2  and  C8_12 
REMARK    2  A    between atoms: N1_3  and  C2_4 
REMARK    3  A    between atoms: C5_7  and  O2_8 
REMARK    4  A    between atoms: N2_15  and  C11_16 
REMARK    5  A    between atoms: C11_16  and  C12_17 
REMARK       I    between atoms: C12_17  and  N3_19 
REMARK    6  A    between atoms: N4_22  and  C15_23 
REMARK    7  A    between atoms: C18_26  and  C19_27 
ROOT
HETATM    1  C11 UNL     1      -5.030  47.653 -19.285  1.00  0.00     0.374 C 
ENDROOT
BRANCH   1   2
HETATM    2  N2  UNL     1      -3.595  47.624 -19.637  1.00  0.00     0.098 N 
HETATM    3  C10 UNL     1      -2.761  47.201 -18.507  1.00  0.00     0.274 C 
HETATM    4  C9  UNL     1      -2.458  48.460 -17.705  1.00  0.00     0.046 C 
HETATM    5  C8  UNL     1      -2.716  49.624 -18.664  1.00  0.00     0.108 C 
HETATM    6  C27 UNL     1      -3.056  48.952 -19.992  1.00  0.00     0.287 C 
BRANCH   5   7
HETATM    7  C1  UNL     1      -1.545  50.596 -18.767  1.00  0.00     0.228 C 
HETATM    8  O1  UNL     1      -0.733  50.736 -17.860  1.00  0.00    -0.273 OA
HETATM    9  N1  UNL     1      -1.506  51.235 -19.998  1.00  0.00    -0.327 N 
HETATM   10  H1  UNL     1      -2.223  50.978 -20.666  1.00  0.00     0.169 HD
BRANCH   9  11
HETATM   11  C2  UNL     1      -0.564  52.186 -20.443  1.00  0.00     0.036 A 
HETATM   12  C3  UNL     1       0.116  53.070 -19.600  1.00  0.00     0.032 A 
HETATM   13  C4  UNL     1       1.042  53.983 -20.116  1.00  0.00     0.040 A 
HETATM   14  C5  UNL     1       1.291  54.020 -21.486  1.00  0.00     0.087 A 
HETATM   15  C6  UNL     1       0.616  53.147 -22.339  1.00  0.00     0.069 A 
HETATM   16 CL1  UNL     1       0.893  53.158 -24.043  1.00  0.00    -0.081 Cl
HETATM   17  C7  UNL     1      -0.308  52.235 -21.820  1.00  0.00     0.056 A 
BRANCH  14  18
HETATM   18  O2  UNL     1       2.195  54.911 -21.989  1.00  0.00    -0.359 OA
HETATM   19  H4  UNL     1       2.571  55.433 -21.262  1.00  0.00     0.217 HD
ENDBRANCH  14  18
ENDBRANCH   9  11
ENDBRANCH   5   7
ENDBRANCH   1   2
BRANCH   1  20
HETATM   20  C12 UNL     1      -5.850  48.621 -20.166  1.00  0.00     0.248 C 
HETATM   21  O3  UNL     1      -6.259  49.713 -19.763  1.00  0.00    -0.271 OA
HETATM   22  N3  UNL     1      -6.136  48.180 -21.464  1.00  0.00    -0.348 N 
HETATM   23  C13 UNL     1      -5.279  47.237 -22.199  1.00  0.00     0.145 C 
HETATM   24  C26 UNL     1      -6.836  49.115 -22.356  1.00  0.00     0.145 C 
HETATM   25  C14 UNL     1      -4.237  48.004 -23.048  1.00  0.00     0.143 C 
HETATM   26  N4  UNL     1      -4.909  48.982 -23.944  1.00  0.00    -0.378 N 
HETATM   27  C25 UNL     1      -5.825  49.901 -23.217  1.00  0.00     0.143 C 
BRANCH  26  28
HETATM   28  C15 UNL     1      -5.209  48.549 -25.236  1.00  0.00     0.030 A 
HETATM   29  C16 UNL     1      -6.445  47.938 -25.502  1.00  0.00     0.030 A 
HETATM   30  C17 UNL     1      -6.789  47.472 -26.780  1.00  0.00     0.014 A 
HETATM   31  C18 UNL     1      -5.898  47.597 -27.845  1.00  0.00    -0.024 A 
HETATM   32  C23 UNL     1      -4.655  48.184 -27.596  1.00  0.00     0.014 A 
HETATM   33  C24 UNL     1      -4.318  48.643 -26.312  1.00  0.00     0.030 A 
BRANCH  31  34
HETATM   34  C19 UNL     1      -6.258  47.104 -29.164  1.00  0.00    -0.002 A 
HETATM   35  C20 UNL     1      -5.948  47.622 -30.454  1.00  0.00     0.038 A 
HETATM   36  C21 UNL     1      -6.522  46.771 -31.368  1.00  0.00     0.142 A 
HETATM   37  O4  UNL     1      -7.157  45.755 -30.733  1.00  0.00    -0.334 OA
HETATM   38  C22 UNL     1      -6.993  45.960 -29.401  1.00  0.00     0.153 A 
ENDBRANCH  31  34
ENDBRANCH  26  28
ENDBRANCH   1  20
TORSDOF 7
ENDMDL
MODEL 7
REMARK minimizedAffinity -8.50295067
REMARK CNNscore 0.229995415
REMARK CNNaffinity 6.04879522
REMARK  7 active torsions:
REMARK  status: ('A' for Active; 'I' for Inactive)
REMARK       I    between atoms: C1_2  and  N1_3 
REMARK    1  A    between atoms: C1_2  and  C8_12 
REMARK    2  A    between atoms: N1_3  and  C2_4 
REMARK    3  A    between atoms: C5_7  and  O2_8 
REMARK    4  A    between atoms: N2_15  and  C11_16 
REMARK    5  A    between atoms: C11_16  and  C12_17 
REMARK       I    between atoms: C12_17  and  N3_19 
REMARK    6  A    between atoms: N4_22  and  C15_23 
REMARK    7  A    between atoms: C18_26  and  C19_27 
ROOT
HETATM    1  C11 UNL     1      -6.002  47.688 -27.289  1.00  0.00     0.374 C 
ENDROOT
BRANCH   1   2
HETATM    2  N2  UNL     1      -6.637  47.132 -28.503  1.00  0.00     0.098 N 
HETATM    3  C10 UNL     1      -7.291  48.171 -29.304  1.00  0.00     0.274 C 
HETATM    4  C9  UNL     1      -8.696  48.329 -28.736  1.00  0.00     0.046 C 
HETATM    5  C8  UNL     1      -8.963  47.042 -27.953  1.00  0.00     0.108 C 
HETATM    6  C27 UNL     1      -7.727  46.181 -28.205  1.00  0.00     0.287 C 
BRANCH   5   7
HETATM    7  C1  UNL     1     -10.265  46.351 -28.346  1.00  0.00     0.228 C 
HETATM    8  O1  UNL     1     -10.311  45.501 -29.227  1.00  0.00    -0.273 OA
HETATM    9  N1  UNL     1     -11.333  46.773 -27.567  1.00  0.00    -0.327 N 
HETATM   10  H1  UNL     1     -11.128  47.451 -26.843  1.00  0.00     0.169 HD
BRANCH   9  11
HETATM   11  C2  UNL     1     -12.675  46.345 -27.645  1.00  0.00     0.036 A 
HETATM   12  C3  UNL     1     -13.231  45.708 -28.758  1.00  0.00     0.032 A 
HETATM   13  C4  UNL     1     -14.572  45.308 -28.759  1.00  0.00     0.040 A 
HETATM   14  C5  UNL     1     -15.368  45.546 -27.642  1.00  0.00     0.087 A 
HETATM   15  C6  UNL     1     -14.827  46.185 -26.525  1.00  0.00     0.069 A 
HETATM   16 CL1  UNL     1     -15.777  46.502 -25.120  1.00  0.00    -0.081 Cl
HETATM   17  C7  UNL     1     -13.487  46.583 -26.528  1.00  0.00     0.056 A 
BRANCH  14  18
HETATM   18  O2  UNL     1     -16.676  45.155 -27.642  1.00  0.00    -0.359 OA
HETATM   19  H4  UNL     1     -16.883  44.726 -28.489  1.00  0.00     0.217 HD
ENDBRANCH  14  18
ENDBRANCH   9  11
ENDBRANCH   5   7
ENDBRANCH   1   2
BRANCH   1  20
HETATM   20  C12 UNL     1      -4.601  48.282 -27.557  1.00  0.00     0.248 C 
HETATM   21  O3  UNL     1      -4.161  48.478 -28.692  1.00  0.00    -0.271 OA
HETATM   22  N3  UNL     1      -3.827  48.569 -26.426  1.00  0.00    -0.348 N 
HETATM   23  C13 UNL     1      -4.410  48.905 -25.118  1.00  0.00     0.145 C 
HETATM   24  C26 UNL     1      -2.527  49.218 -26.645  1.00  0.00     0.145 C 
HETATM   25  C14 UNL     1      -4.578  50.437 -24.980  1.00  0.00     0.143 C 
HETATM   26  N4  UNL     1      -3.286  51.130 -25.223  1.00  0.00    -0.378 N 
HETATM   27  C25 UNL     1      -2.658  50.751 -26.517  1.00  0.00     0.143 C 
BRANCH  26  28
HETATM   28  C15 UNL     1      -2.501  51.411 -24.105  1.00  0.00     0.030 A 
HETATM   29  C16 UNL     1      -3.037  51.264 -22.816  1.00  0.00     0.030 A 
HETATM   30  C17 UNL     1      -2.294  51.548 -21.660  1.00  0.00     0.014 A 
HETATM   31  C18 UNL     1      -0.978  51.998 -21.755  1.00  0.00    -0.024 A 
HETATM   32  C23 UNL     1      -0.432  52.171 -23.029  1.00  0.00     0.014 A 
HETATM   33  C24 UNL     1      -1.186  51.888 -24.180  1.00  0.00     0.030 A 
BRANCH  31  34
HETATM   34  C19 UNL     1      -0.217  52.298 -20.554  1.00  0.00    -0.002 A 
HETATM   35  C20 UNL     1       0.868  53.199 -20.355  1.00  0.00     0.038 A 
HETATM   36  C21 UNL     1       1.217  53.109 -19.029  1.00  0.00     0.142 A 
HETATM   37  O4  UNL     1       0.415  52.222 -18.389  1.00  0.00    -0.334 OA
HETATM   38  C22 UNL     1      -0.451  51.736 -19.315  1.00  0.00     0.153 A 
ENDBRANCH  31  34
ENDBRANCH  26  28
ENDBRANCH   1  20
TORSDOF 7
ENDMDL
MODEL 8
REMARK minimizedAffinity -8.40490818
REMARK CNNscore 0.2223095
REMARK CNNaffinity 5.01018667
REMARK  7 active torsions:
REMARK  status: ('A' for Active; 'I' for Inactive)
REMARK       I    between atoms: C1_2  and  N1_3 
REMARK    1  A    between atoms: C1_2  and  C8_12 
REMARK    2  A    between atoms: N1_3  and  C2_4 
REMARK    3  A    between atoms: C5_7  and  O2_8 
REMARK    4  A    between atoms: N2_15  and  C11_16 
REMARK    5  A    between atoms: C11_16  and  C12_17 
REMARK       I    between atoms: C12_17  and  N3_19 
REMARK    6  A    between atoms: N4_22  and  C15_23 
REMARK    7  A    between atoms: C18_26  and  C19_27 
ROOT
HETATM    1  C11 UNL     1     -11.328  46.005 -29.129  1.00  0.00     0.374 C 
ENDROOT
BRANCH   1   2
HETATM    2  N2  UNL     1     -12.108  45.694 -27.912  1.00  0.00     0.098 N 
HETATM    3  C10 UNL     1     -12.188  44.251 -27.666  1.00  0.00     0.274 C 
HETATM    4  C9  UNL     1     -13.383  43.746 -28.466  1.00  0.00     0.046 C 
HETATM    5  C8  UNL     1     -14.234  44.986 -28.748  1.00  0.00     0.108 C 
HETATM    6  C27 UNL     1     -13.521  46.112 -28.004  1.00  0.00     0.287 C 
BRANCH   5   7
HETATM    7  C1  UNL     1     -15.693  44.826 -28.338  1.00  0.00     0.228 C 
HETATM    8  O1  UNL     1     -16.518  44.281 -29.062  1.00  0.00    -0.273 OA
HETATM    9  N1  UNL     1     -15.932  45.321 -27.063  1.00  0.00    -0.327 N 
HETATM   10  H1  UNL     1     -15.135  45.701 -26.566  1.00  0.00     0.169 HD
BRANCH   9  11
HETATM   11  C2  UNL     1     -17.156  45.332 -26.361  1.00  0.00     0.036 A 
HETATM   12  C3  UNL     1     -18.368  44.879 -26.891  1.00  0.00     0.032 A 
HETATM   13  C4  UNL     1     -19.541  44.918 -26.130  1.00  0.00     0.040 A 
HETATM   14  C5  UNL     1     -19.510  45.416 -24.830  1.00  0.00     0.087 A 
HETATM   15  C6  UNL     1     -18.308  45.875 -24.290  1.00  0.00     0.069 A 
HETATM   16 CL1  UNL     1     -18.222  46.501 -22.684  1.00  0.00    -0.081 Cl
HETATM   17  C7  UNL     1     -17.137  45.835 -25.053  1.00  0.00     0.056 A 
BRANCH  14  18
HETATM   18  O2  UNL     1     -20.655  45.453 -24.088  1.00  0.00    -0.359 OA
HETATM   19  H4  UNL     1     -21.389  45.094 -24.612  1.00  0.00     0.217 HD
ENDBRANCH  14  18
ENDBRANCH   9  11
ENDBRANCH   5   7
ENDBRANCH   1   2
BRANCH   1  20
HETATM   20  C12 UNL     1      -9.949  45.307 -29.159  1.00  0.00     0.248 C 
HETATM   21  O3  UNL     1      -9.662  44.422 -29.968  1.00  0.00    -0.271 OA
HETATM   22  N3  UNL     1      -9.030  45.718 -28.185  1.00  0.00    -0.348 N 
HETATM   23  C13 UNL     1      -9.039  47.062 -27.588  1.00  0.00     0.145 C 
HETATM   24  C26 UNL     1      -7.681  45.139 -28.243  1.00  0.00     0.145 C 
HETATM   25  C14 UNL     1      -8.114  48.012 -28.385  1.00  0.00     0.143 C 
HETATM   26  N4  UNL     1      -6.744  47.444 -28.489  1.00  0.00    -0.378 N 
HETATM   27  C25 UNL     1      -6.730  46.061 -29.035  1.00  0.00     0.143 C 
BRANCH  26  28
HETATM   28  C15 UNL     1      -5.823  47.837 -27.518  1.00  0.00     0.030 A 
HETATM   29  C16 UNL     1      -6.209  47.901 -26.169  1.00  0.00     0.030 A 
HETATM   30  C17 UNL     1      -5.326  48.305 -25.156  1.00  0.00     0.014 A 
HETATM   31  C18 UNL     1      -4.014  48.667 -25.461  1.00  0.00    -0.024 A 
HETATM   32  C23 UNL     1      -3.617  48.629 -26.800  1.00  0.00     0.014 A 
HETATM   33  C24 UNL     1      -4.510  48.229 -27.807  1.00  0.00     0.030 A 
BRANCH  31  34
HETATM   34  C19 UNL     1      -3.107  49.092 -24.409  1.00  0.00    -0.002 A 
HETATM   35  C20 UNL     1      -2.404  50.319 -24.242  1.00  0.00     0.038 A 
HETATM   36  C21 UNL     1      -1.690  50.209 -23.073  1.00  0.00     0.142 A 
HETATM   37  O4  UNL     1      -1.913  49.002 -22.496  1.00  0.00    -0.334 OA
HETATM   38  C22 UNL     1      -2.772  48.331 -23.307  1.00  0.00     0.153 A 
ENDBRANCH  31  34
ENDBRANCH  26  28
ENDBRANCH   1  20
TORSDOF 7
ENDMDL
MODEL 9
REMARK minimizedAffinity -7.89951038
REMARK CNNscore 0.198897585
REMARK CNNaffinity 6.24510193
REMARK  7 active torsions:
REMARK  status: ('A' for Active; 'I' for Inactive)
REMARK       I    between atoms: C1_2  and  N1_3 
REMARK    1  A    between atoms: C1_2  and  C8_12 
REMARK    2  A    between atoms: N1_3  and  C2_4 
REMARK    3  A    between atoms: C5_7  and  O2_8 
REMARK    4  A    between atoms: N2_15  and  C11_16 
REMARK    5  A    between atoms: C11_16  and  C12_17 
REMARK       I    between atoms: C12_17  and  N3_19 
REMARK    6  A    between atoms: N4_22  and  C15_23 
REMARK    7  A    between atoms: C18_26  and  C19_27 
ROOT
HETATM    1  C11 UNL     1      -5.887  48.168 -25.320  1.00  0.00     0.374 C 
ENDROOT
BRANCH   1   2
HETATM    2  N2  UNL     1      -5.537  48.545 -23.934  1.00  0.00     0.098 N 
HETATM    3  C10 UNL     1      -5.943  49.919 -23.621  1.00  0.00     0.274 C 
HETATM    4  C9  UNL     1      -4.798  50.817 -24.071  1.00  0.00     0.046 C 
HETATM    5  C8  UNL     1      -3.580  49.898 -24.176  1.00  0.00     0.108 C 
HETATM    6  C27 UNL     1      -4.083  48.544 -23.681  1.00  0.00     0.287 C 
BRANCH   5   7
HETATM    7  C1  UNL     1      -2.368  50.407 -23.402  1.00  0.00     0.228 C 
HETATM    8  O1  UNL     1      -1.236  50.374 -23.870  1.00  0.00    -0.273 OA
HETATM    9  N1  UNL     1      -2.723  50.931 -22.167  1.00  0.00    -0.327 N 
HETATM   10  H1  UNL     1      -3.710  50.931 -21.939  1.00  0.00     0.169 HD
BRANCH   9  11
HETATM   11  C2  UNL     1      -1.868  51.495 -21.195  1.00  0.00     0.036 A 
HETATM   12  C3  UNL     1      -2.020  51.313 -19.818  1.00  0.00     0.032 A 
HETATM   13  C4  UNL     1      -1.128  51.901 -18.915  1.00  0.00     0.040 A 
HETATM   14  C5  UNL     1      -0.076  52.682 -19.388  1.00  0.00     0.087 A 
HETATM   15  C6  UNL     1       0.085  52.875 -20.760  1.00  0.00     0.069 A 
HETATM   16 CL1  UNL     1       1.373  53.835 -21.391  1.00  0.00    -0.081 Cl
HETATM   17  C7  UNL     1      -0.809  52.285 -21.660  1.00  0.00     0.056 A 
BRANCH  14  18
HETATM   18  O2  UNL     1       0.795  53.256 -18.507  1.00  0.00    -0.359 OA
HETATM   19  H4  UNL     1       0.540  53.016 -17.601  1.00  0.00     0.217 HD
ENDBRANCH  14  18
ENDBRANCH   9  11
ENDBRANCH   5   7
ENDBRANCH   1   2
BRANCH   1  20
HETATM   20  C12 UNL     1      -7.185  47.333 -25.410  1.00  0.00     0.248 C 
HETATM   21  O3  UNL     1      -7.907  47.109 -24.437  1.00  0.00    -0.271 OA
HETATM   22  N3  UNL     1      -7.494  46.811 -26.672  1.00  0.00    -0.348 N 
HETATM   23  C13 UNL     1      -7.067  47.443 -27.930  1.00  0.00     0.145 C 
HETATM   24  C26 UNL     1      -8.767  46.089 -26.811  1.00  0.00     0.145 C 
HETATM   25  C14 UNL     1      -8.152  48.422 -28.437  1.00  0.00     0.143 C 
HETATM   26  N4  UNL     1      -9.463  47.732 -28.563  1.00  0.00    -0.378 N 
HETATM   27  C25 UNL     1      -9.875  47.038 -27.314  1.00  0.00     0.143 C 
BRANCH  26  28
HETATM   28  C15 UNL     1      -9.777  47.197 -29.812  1.00  0.00     0.030 A 
HETATM   29  C16 UNL     1      -9.204  47.741 -30.974  1.00  0.00     0.030 A 
HETATM   30  C17 UNL     1      -9.499  47.249 -32.254  1.00  0.00     0.014 A 
HETATM   31  C18 UNL     1     -10.390  46.190 -32.420  1.00  0.00    -0.024 A 
HETATM   32  C23 UNL     1     -10.987  45.648 -31.279  1.00  0.00     0.014 A 
HETATM   33  C24 UNL     1     -10.689  46.151 -30.002  1.00  0.00     0.030 A 
BRANCH  31  34
HETATM   34  C19 UNL     1     -10.697  45.691 -33.750  1.00  0.00    -0.002 A 
HETATM   35  C20 UNL     1     -11.951  45.363 -34.341  1.00  0.00     0.038 A 
HETATM   36  C21 UNL     1     -11.685  44.946 -35.623  1.00  0.00     0.142 A 
HETATM   37  O4  UNL     1     -10.353  45.005 -35.872  1.00  0.00    -0.334 OA
HETATM   38  C22 UNL     1      -9.761  45.458 -34.736  1.00  0.00     0.153 A 
ENDBRANCH  31  34
ENDBRANCH  26  28
ENDBRANCH   1  20
TORSDOF 7
ENDMDL
