MODEL 1
REMARK minimizedAffinity -9.3931036
REMARK  7 active torsions:
REMARK  status: ('A' for Active; 'I' for Inactive)
REMARK    1  A    between atoms: C2_2  and  N1_3 
REMARK    2  A    between atoms: C2_2  and  C19_30 
REMARK       I    between atoms: N1_3  and  C3_4 
REMARK       I    between atoms: C3_4  and  N2_6 
REMARK    3  A    between atoms: N2_6  and  C4_7 
REMARK    4  A    between atoms: C7_13  and  C8_14 
REMARK       I    between atoms: C8_14  and  N5_16 
REMARK    5  A    between atoms: N5_16  and  C9_17 
REMARK    6  A    between atoms: C9_17  and  C10_18 
REMARK    7  A    between atoms: N6_21  and  C13_22 
ROOT
HETATM    1  C4  UNL     1       0.659  52.741 -19.900  1.00  0.00     0.111 A 
HETATM    2  C5  UNL     1       1.342  53.871 -20.331  1.00  0.00     0.080 A 
HETATM    3  C6  UNL     1       1.301  54.101 -21.707  1.00  0.00     0.065 A 
HETATM    4  N3  UNL     1       1.840  55.086 -22.485  1.00  0.00    -0.299 N 
HETATM    5  N4  UNL     1       1.575  54.959 -23.799  1.00  0.00    -0.294 N 
ATOM      6  H4  UNL     1       1.871  55.568 -24.562  1.00  0.00     0.187 HD
HETATM    7  C7  UNL     1       0.826  53.836 -23.870  1.00  0.00     0.130 A 
HETATM    8  C17 UNL     1       0.629  53.261 -22.585  1.00  0.00     0.041 A 
HETATM    9  C18 UNL     1      -0.025  52.143 -22.067  1.00  0.00     0.106 A 
HETATM   10  N7  UNL     1       0.003  51.897 -20.731  1.00  0.00    -0.351 N 
ATOM     11  H7  UNL     1      -0.471  51.076 -20.355  1.00  0.00     0.166 HD
HETATM   12  H8  UNL     1       2.401  55.873 -22.178  1.00  0.00     0.187 HD
ENDROOT
BRANCH   1  13
HETATM   13  N2  UNL     1       0.587  52.348 -18.564  1.00  0.00    -0.295 N 
HETATM   14  C3  UNL     1       0.033  51.214 -18.038  1.00  0.00     0.322 C 
HETATM   15  N1  UNL     1       0.143  51.194 -16.667  1.00  0.00    -0.335 N 
HETATM   16  O1  UNL     1      -0.489  50.302 -18.668  1.00  0.00    -0.247 OA
HETATM   17  H5  UNL     1       0.300  52.071 -16.193  1.00  0.00     0.165 HD
HETATM   18  H6  UNL     1       1.123  52.950 -17.958  1.00  0.00     0.172 HD
BRANCH  15  19
HETATM   19  C2  UNL     1      -0.392  50.103 -15.867  1.00  0.00     0.115 C 
HETATM   20  C1  UNL     1      -1.570  50.573 -15.008  1.00  0.00     0.037 C 
BRANCH  19  21
HETATM   21  C19 UNL     1       0.748  49.475 -15.080  1.00  0.00    -0.036 A 
HETATM   22  C20 UNL     1       0.922  48.080 -15.136  1.00  0.00     0.009 A 
HETATM   23  C21 UNL     1       1.971  47.460 -14.456  1.00  0.00     0.001 A 
HETATM   24  C22 UNL     1       2.866  48.224 -13.713  1.00  0.00     0.000 A 
HETATM   25  C23 UNL     1       2.718  49.609 -13.657  1.00  0.00     0.001 A 
HETATM   26  C24 UNL     1       1.670  50.232 -14.341  1.00  0.00     0.009 A 
ENDBRANCH  19  21
ENDBRANCH  15  19
ENDBRANCH   1  13
BRANCH   7  27
HETATM   27  C8  UNL     1       0.316  53.327 -25.152  1.00  0.00     0.270 C 
HETATM   28  O2  UNL     1      -0.509  53.933 -25.829  1.00  0.00    -0.266 OA
HETATM   29  N5  UNL     1       0.853  52.108 -25.502  1.00  0.00    -0.355 N 
HETATM   30  H9  UNL     1       1.539  51.737 -24.847  1.00  0.00     0.162 HD
BRANCH  29  31
HETATM   31  C9  UNL     1       0.517  51.394 -26.712  1.00  0.00     0.129 C 
BRANCH  31  32
HETATM   32  C10 UNL     1      -0.734  50.520 -26.598  1.00  0.00     0.033 C 
HETATM   33  C11 UNL     1      -1.924  50.957 -27.456  1.00  0.00     0.038 C 
HETATM   34  C12 UNL     1      -3.074  51.113 -26.473  1.00  0.00     0.273 C 
HETATM   35  N6  UNL     1      -2.744  50.230 -25.339  1.00  0.00     0.093 N 
HETATM   36  C16 UNL     1      -1.296  50.429 -25.177  1.00  0.00     0.279 C 
BRANCH  35  37
HETATM   37  C13 UNL     1      -3.218  48.844 -25.552  1.00  0.00     0.223 A 
HETATM   38  C14 UNL     1      -3.822  48.496 -26.890  1.00  0.00     0.038 A 
HETATM   39  C15 UNL     1      -4.657  48.417 -25.648  1.00  0.00     0.038 A 
ENDBRANCH  35  37
ENDBRANCH  31  32
ENDBRANCH  29  31
ENDBRANCH   7  27
TORSDOF 7
ENDMDL
MODEL 2
REMARK minimizedAffinity -9.32127094
REMARK  7 active torsions:
REMARK  status: ('A' for Active; 'I' for Inactive)
REMARK    1  A    between atoms: C2_2  and  N1_3 
REMARK    2  A    between atoms: C2_2  and  C19_30 
REMARK       I    between atoms: N1_3  and  C3_4 
REMARK       I    between atoms: C3_4  and  N2_6 
REMARK    3  A    between atoms: N2_6  and  C4_7 
REMARK    4  A    between atoms: C7_13  and  C8_14 
REMARK       I    between atoms: C8_14  and  N5_16 
REMARK    5  A    between atoms: N5_16  and  C9_17 
REMARK    6  A    between atoms: C9_17  and  C10_18 
REMARK    7  A    between atoms: N6_21  and  C13_22 
ROOT
HETATM    1  C4  UNL     1       0.286  52.538 -19.837  1.00  0.00     0.111 A 
HETATM    2  C5  UNL     1       0.994  53.697 -20.128  1.00  0.00     0.080 A 
HETATM    3  C6  UNL     1       1.148  53.973 -21.487  1.00  0.00     0.065 A 
HETATM    4  N3  UNL     1       1.769  54.996 -22.146  1.00  0.00    -0.299 N 
HETATM    5  N4  UNL     1       1.702  54.910 -23.488  1.00  0.00    -0.294 N 
ATOM      6  H4  UNL     1       2.089  55.551 -24.181  1.00  0.00     0.187 HD
HETATM    7  C7  UNL     1       1.000  53.774 -23.704  1.00  0.00     0.130 A 
HETATM    8  C17 UNL     1       0.634  53.151 -22.480  1.00  0.00     0.041 A 
HETATM    9  C18 UNL     1      -0.060  52.002 -22.099  1.00  0.00     0.106 A 
HETATM   10  N7  UNL     1      -0.220  51.710 -20.782  1.00  0.00    -0.351 N 
ATOM     11  H7  UNL     1      -0.722  50.866 -20.504  1.00  0.00     0.166 HD
HETATM   12  H8  UNL     1       2.258  55.784 -21.736  1.00  0.00     0.187 HD
ENDROOT
BRANCH   1  13
HETATM   13  N2  UNL     1       0.030  52.097 -18.539  1.00  0.00    -0.295 N 
HETATM   14  C3  UNL     1       0.854  52.140 -17.447  1.00  0.00     0.322 C 
HETATM   15  N1  UNL     1       0.247  51.590 -16.343  1.00  0.00    -0.335 N 
HETATM   16  O1  UNL     1       1.983  52.613 -17.409  1.00  0.00    -0.247 OA
HETATM   17  H5  UNL     1      -0.532  50.966 -16.493  1.00  0.00     0.165 HD
HETATM   18  H6  UNL     1      -0.932  51.826 -18.409  1.00  0.00     0.172 HD
BRANCH  15  19
HETATM   19  C2  UNL     1       0.925  51.493 -15.060  1.00  0.00     0.115 C 
HETATM   20  C1  UNL     1       1.604  50.130 -14.894  1.00  0.00     0.037 C 
BRANCH  19  21
HETATM   21  C19 UNL     1      -0.067  51.837 -13.960  1.00  0.00    -0.036 A 
HETATM   22  C20 UNL     1       0.385  52.560 -12.840  1.00  0.00     0.009 A 
HETATM   23  C21 UNL     1      -0.492  52.925 -11.819  1.00  0.00     0.001 A 
HETATM   24  C22 UNL     1      -1.838  52.581 -11.903  1.00  0.00     0.000 A 
HETATM   25  C23 UNL     1      -2.308  51.879 -13.011  1.00  0.00     0.001 A 
HETATM   26  C24 UNL     1      -1.431  51.515 -14.036  1.00  0.00     0.009 A 
ENDBRANCH  19  21
ENDBRANCH  15  19
ENDBRANCH   1  13
BRANCH   7  27
HETATM   27  C8  UNL     1       0.696  53.300 -25.062  1.00  0.00     0.270 C 
HETATM   28  O2  UNL     1       0.374  54.053 -25.975  1.00  0.00    -0.266 OA
HETATM   29  N5  UNL     1       0.802  51.933 -25.193  1.00  0.00    -0.355 N 
HETATM   30  H9  UNL     1       1.096  51.441 -24.351  1.00  0.00     0.162 HD
BRANCH  29  31
HETATM   31  C9  UNL     1       0.556  51.217 -26.424  1.00  0.00     0.129 C 
BRANCH  31  32
HETATM   32  C10 UNL     1      -0.895  50.765 -26.606  1.00  0.00     0.033 C 
HETATM   33  C11 UNL     1      -1.801  51.745 -27.355  1.00  0.00     0.038 C 
HETATM   34  C12 UNL     1      -2.971  51.987 -26.413  1.00  0.00     0.273 C 
HETATM   35  N6  UNL     1      -3.041  50.789 -25.557  1.00  0.00     0.093 N 
HETATM   36  C16 UNL     1      -1.626  50.491 -25.290  1.00  0.00     0.279 C 
BRANCH  35  37
HETATM   37  C13 UNL     1      -3.857  49.714 -26.165  1.00  0.00     0.223 A 
HETATM   38  C14 UNL     1      -4.352  48.603 -25.271  1.00  0.00     0.038 A 
HETATM   39  C15 UNL     1      -3.407  48.297 -26.394  1.00  0.00     0.038 A 
ENDBRANCH  35  37
ENDBRANCH  31  32
ENDBRANCH  29  31
ENDBRANCH   7  27
TORSDOF 7
ENDMDL
MODEL 3
REMARK minimizedAffinity -9.13094711
REMARK  7 active torsions:
REMARK  status: ('A' for Active; 'I' for Inactive)
REMARK    1  A    between atoms: C2_2  and  N1_3 
REMARK    2  A    between atoms: C2_2  and  C19_30 
REMARK       I    between atoms: N1_3  and  C3_4 
REMARK       I    between atoms: C3_4  and  N2_6 
REMARK    3  A    between atoms: N2_6  and  C4_7 
REMARK    4  A    between atoms: C7_13  and  C8_14 
REMARK       I    between atoms: C8_14  and  N5_16 
REMARK    5  A    between atoms: N5_16  and  C9_17 
REMARK    6  A    between atoms: C9_17  and  C10_18 
REMARK    7  A    between atoms: N6_21  and  C13_22 
ROOT
HETATM    1  C4  UNL     1      -2.707  51.019 -27.211  1.00  0.00     0.111 A 
HETATM    2  C5  UNL     1      -1.436  50.993 -27.771  1.00  0.00     0.080 A 
HETATM    3  C6  UNL     1      -0.455  51.673 -27.051  1.00  0.00     0.065 A 
HETATM    4  N3  UNL     1       0.879  51.864 -27.279  1.00  0.00    -0.299 N 
HETATM    5  N4  UNL     1       1.502  52.594 -26.335  1.00  0.00    -0.294 N 
ATOM      6  H4  UNL     1       2.485  52.863 -26.295  1.00  0.00     0.187 HD
HETATM    7  C7  UNL     1       0.521  52.886 -25.453  1.00  0.00     0.130 A 
HETATM    8  C17 UNL     1      -0.724  52.333 -25.860  1.00  0.00     0.041 A 
HETATM    9  C18 UNL     1      -2.030  52.316 -25.371  1.00  0.00     0.106 A 
HETATM   10  N7  UNL     1      -3.004  51.662 -26.056  1.00  0.00    -0.351 N 
ATOM     11  H7  UNL     1      -3.961  51.655 -25.701  1.00  0.00     0.166 HD
HETATM   12  H8  UNL     1       1.423  51.522 -28.064  1.00  0.00     0.187 HD
ENDROOT
BRANCH   1  13
HETATM   13  N2  UNL     1      -3.815  50.397 -27.784  1.00  0.00    -0.295 N 
HETATM   14  C3  UNL     1      -4.012  49.066 -28.030  1.00  0.00     0.322 C 
HETATM   15  N1  UNL     1      -5.231  48.843 -28.628  1.00  0.00    -0.335 N 
HETATM   16  O1  UNL     1      -3.239  48.155 -27.756  1.00  0.00    -0.247 OA
HETATM   17  H5  UNL     1      -5.679  49.621 -29.090  1.00  0.00     0.165 HD
HETATM   18  H6  UNL     1      -4.587  51.032 -27.913  1.00  0.00     0.172 HD
BRANCH  15  19
HETATM   19  C2  UNL     1      -5.667  47.511 -29.013  1.00  0.00     0.115 C 
HETATM   20  C1  UNL     1      -6.171  47.492 -30.461  1.00  0.00     0.037 C 
BRANCH  19  21
HETATM   21  C19 UNL     1      -6.678  47.017 -27.990  1.00  0.00    -0.036 A 
HETATM   22  C20 UNL     1      -7.485  45.910 -28.314  1.00  0.00     0.009 A 
HETATM   23  C21 UNL     1      -8.405  45.401 -27.398  1.00  0.00     0.001 A 
HETATM   24  C22 UNL     1      -8.532  45.984 -26.141  1.00  0.00     0.000 A 
HETATM   25  C23 UNL     1      -7.731  47.072 -25.797  1.00  0.00     0.001 A 
HETATM   26  C24 UNL     1      -6.806  47.582 -26.712  1.00  0.00     0.009 A 
ENDBRANCH  19  21
ENDBRANCH  15  19
ENDBRANCH   1  13
BRANCH   7  27
HETATM   27  C8  UNL     1       0.778  53.686 -24.246  1.00  0.00     0.270 C 
HETATM   28  O2  UNL     1       1.062  54.880 -24.285  1.00  0.00    -0.266 OA
HETATM   29  N5  UNL     1       0.676  52.957 -23.082  1.00  0.00    -0.355 N 
HETATM   30  H9  UNL     1       0.416  51.981 -23.208  1.00  0.00     0.162 HD
BRANCH  29  31
HETATM   31  C9  UNL     1       0.882  53.508 -21.762  1.00  0.00     0.129 C 
BRANCH  31  32
HETATM   32  C10 UNL     1       0.711  52.496 -20.628  1.00  0.00     0.033 C 
HETATM   33  C11 UNL     1      -0.295  51.373 -20.892  1.00  0.00     0.038 C 
HETATM   34  C12 UNL     1      -1.271  51.445 -19.726  1.00  0.00     0.273 C 
HETATM   35  N6  UNL     1      -0.519  52.073 -18.624  1.00  0.00     0.093 N 
HETATM   36  C16 UNL     1       0.256  53.120 -19.306  1.00  0.00     0.279 C 
BRANCH  35  37
HETATM   37  C13 UNL     1       0.237  51.081 -17.826  1.00  0.00     0.223 A 
HETATM   38  C14 UNL     1      -0.280  50.729 -16.453  1.00  0.00     0.038 A 
HETATM   39  C15 UNL     1       1.059  51.385 -16.604  1.00  0.00     0.038 A 
ENDBRANCH  35  37
ENDBRANCH  31  32
ENDBRANCH  29  31
ENDBRANCH   7  27
TORSDOF 7
ENDMDL
MODEL 4
REMARK minimizedAffinity -9.12231255
REMARK  7 active torsions:
REMARK  status: ('A' for Active; 'I' for Inactive)
REMARK    1  A    between atoms: C2_2  and  N1_3 
REMARK    2  A    between atoms: C2_2  and  C19_30 
REMARK       I    between atoms: N1_3  and  C3_4 
REMARK       I    between atoms: C3_4  and  N2_6 
REMARK    3  A    between atoms: N2_6  and  C4_7 
REMARK    4  A    between atoms: C7_13  and  C8_14 
REMARK       I    between atoms: C8_14  and  N5_16 
REMARK    5  A    between atoms: N5_16  and  C9_17 
REMARK    6  A    between atoms: C9_17  and  C10_18 
REMARK    7  A    between atoms: N6_21  and  C13_22 
ROOT
HETATM    1  C4  UNL     1      -0.167  52.371 -20.602  1.00  0.00     0.111 A 
HETATM    2  C5  UNL     1       0.784  53.080 -19.878  1.00  0.00     0.080 A 
HETATM    3  C6  UNL     1       0.966  52.655 -18.562  1.00  0.00     0.065 A 
HETATM    4  N3  UNL     1       1.791  53.095 -17.566  1.00  0.00    -0.299 N 
HETATM    5  N4  UNL     1       1.673  52.415 -16.410  1.00  0.00    -0.294 N 
ATOM      6  H4  UNL     1       2.181  52.563 -15.538  1.00  0.00     0.187 HD
HETATM    7  C7  UNL     1       0.725  51.488 -16.676  1.00  0.00     0.130 A 
HETATM    8  C17 UNL     1       0.250  51.601 -18.011  1.00  0.00     0.041 A 
HETATM    9  C18 UNL     1      -0.691  50.948 -18.807  1.00  0.00     0.106 A 
HETATM   10  N7  UNL     1      -0.888  51.346 -20.091  1.00  0.00    -0.351 N 
ATOM     11  H7  UNL     1      -1.582  50.872 -20.671  1.00  0.00     0.166 HD
HETATM   12  H8  UNL     1       2.458  53.857 -17.613  1.00  0.00     0.187 HD
ENDROOT
BRANCH   1  13
HETATM   13  N2  UNL     1      -0.488  52.650 -21.931  1.00  0.00    -0.295 N 
HETATM   14  C3  UNL     1      -0.750  51.771 -22.946  1.00  0.00     0.322 C 
HETATM   15  N1  UNL     1      -1.008  52.433 -24.123  1.00  0.00    -0.335 N 
HETATM   16  O1  UNL     1      -0.779  50.550 -22.859  1.00  0.00    -0.247 OA
HETATM   17  H5  UNL     1      -0.687  53.385 -24.211  1.00  0.00     0.165 HD
HETATM   18  H6  UNL     1      -0.646  53.633 -22.088  1.00  0.00     0.172 HD
BRANCH  15  19
HETATM   19  C2  UNL     1      -1.293  51.721 -25.359  1.00  0.00     0.115 C 
HETATM   20  C1  UNL     1      -1.920  50.351 -25.077  1.00  0.00     0.037 C 
BRANCH  19  21
HETATM   21  C19 UNL     1      -0.023  51.670 -26.193  1.00  0.00    -0.036 A 
HETATM   22  C20 UNL     1      -0.120  51.835 -27.588  1.00  0.00     0.009 A 
HETATM   23  C21 UNL     1       1.020  51.827 -28.392  1.00  0.00     0.001 A 
HETATM   24  C22 UNL     1       2.276  51.660 -27.817  1.00  0.00     0.000 A 
HETATM   25  C23 UNL     1       2.394  51.509 -26.437  1.00  0.00     0.001 A 
HETATM   26  C24 UNL     1       1.253  51.521 -25.629  1.00  0.00     0.009 A 
ENDBRANCH  19  21
ENDBRANCH  15  19
ENDBRANCH   1  13
BRANCH   7  27
HETATM   27  C8  UNL     1       0.285  50.519 -15.661  1.00  0.00     0.270 C 
HETATM   28  O2  UNL     1       0.450  49.309 -15.779  1.00  0.00    -0.266 OA
HETATM   29  N5  UNL     1      -0.331  51.110 -14.581  1.00  0.00    -0.355 N 
HETATM   30  H9  UNL     1      -0.379  52.127 -14.616  1.00  0.00     0.162 HD
BRANCH  29  31
HETATM   31  C9  UNL     1      -0.854  50.380 -13.449  1.00  0.00     0.129 C 
BRANCH  31  32
HETATM   32  C10 UNL     1      -1.792  51.195 -12.556  1.00  0.00     0.033 C 
HETATM   33  C11 UNL     1      -1.191  51.674 -11.232  1.00  0.00     0.038 C 
HETATM   34  C12 UNL     1      -2.140  51.150 -10.164  1.00  0.00     0.273 C 
HETATM   35  N6  UNL     1      -3.441  50.990 -10.840  1.00  0.00     0.093 N 
HETATM   36  C16 UNL     1      -3.067  50.449 -12.155  1.00  0.00     0.279 C 
BRANCH  35  37
HETATM   37  C13 UNL     1      -4.238  52.238 -10.822  1.00  0.00     0.223 A 
HETATM   38  C14 UNL     1      -3.968  53.270 -11.890  1.00  0.00     0.038 A 
HETATM   39  C15 UNL     1      -3.722  53.601 -10.448  1.00  0.00     0.038 A 
ENDBRANCH  35  37
ENDBRANCH  31  32
ENDBRANCH  29  31
ENDBRANCH   7  27
TORSDOF 7
ENDMDL
MODEL 5
REMARK minimizedAffinity -8.96463394
REMARK  7 active torsions:
REMARK  status: ('A' for Active; 'I' for Inactive)
REMARK    1  A    between atoms: C2_2  and  N1_3 
REMARK    2  A    between atoms: C2_2  and  C19_30 
REMARK       I    between atoms: N1_3  and  C3_4 
REMARK       I    between atoms: C3_4  and  N2_6 
REMARK    3  A    between atoms: N2_6  and  C4_7 
REMARK    4  A    between atoms: C7_13  and  C8_14 
REMARK       I    between atoms: C8_14  and  N5_16 
REMARK    5  A    between atoms: N5_16  and  C9_17 
REMARK    6  A    between atoms: C9_17  and  C10_18 
REMARK    7  A    between atoms: N6_21  and  C13_22 
ROOT
HETATM    1  C4  UNL     1      -0.426  50.871 -20.952  1.00  0.00     0.111 A 
HETATM    2  C5  UNL     1       0.389  51.975 -20.728  1.00  0.00     0.080 A 
HETATM    3  C6  UNL     1       0.717  52.208 -19.392  1.00  0.00     0.065 A 
HETATM    4  N3  UNL     1       1.478  53.173 -18.795  1.00  0.00    -0.299 N 
HETATM    5  N4  UNL     1       1.560  53.061 -17.456  1.00  0.00    -0.294 N 
ATOM      6  H4  UNL     1       2.065  53.661 -16.803  1.00  0.00     0.187 HD
HETATM    7  C7  UNL     1       0.814  51.968 -17.177  1.00  0.00     0.130 A 
HETATM    8  C17 UNL     1       0.264  51.401 -18.359  1.00  0.00     0.041 A 
HETATM    9  C18 UNL     1      -0.556  50.317 -18.672  1.00  0.00     0.106 A 
HETATM   10  N7  UNL     1      -0.893  50.071 -19.965  1.00  0.00    -0.351 N 
ATOM     11  H7  UNL     1      -1.498  49.281 -20.193  1.00  0.00     0.166 HD
HETATM   12  H8  UNL     1       1.969  53.937 -19.247  1.00  0.00     0.187 HD
ENDROOT
BRANCH   1  13
HETATM   13  N2  UNL     1      -0.860  50.479 -22.218  1.00  0.00    -0.295 N 
HETATM   14  C3  UNL     1      -1.210  51.267 -23.281  1.00  0.00     0.322 C 
HETATM   15  N1  UNL     1      -1.603  50.506 -24.357  1.00  0.00    -0.335 N 
HETATM   16  O1  UNL     1      -1.175  52.490 -23.319  1.00  0.00    -0.247 OA
HETATM   17  H5  UNL     1      -1.893  49.555 -24.182  1.00  0.00     0.165 HD
HETATM   18  H6  UNL     1      -0.782  49.484 -22.358  1.00  0.00     0.172 HD
BRANCH  15  19
HETATM   19  C2  UNL     1      -2.047  51.108 -25.604  1.00  0.00     0.115 C 
HETATM   20  C1  UNL     1      -3.084  50.225 -26.307  1.00  0.00     0.037 C 
BRANCH  19  21
HETATM   21  C19 UNL     1      -0.825  51.434 -26.447  1.00  0.00    -0.036 A 
HETATM   22  C20 UNL     1       0.442  51.020 -25.994  1.00  0.00     0.009 A 
HETATM   23  C21 UNL     1       1.590  51.268 -26.746  1.00  0.00     0.001 A 
HETATM   24  C22 UNL     1       1.492  51.929 -27.967  1.00  0.00     0.000 A 
HETATM   25  C23 UNL     1       0.245  52.334 -28.440  1.00  0.00     0.001 A 
HETATM   26  C24 UNL     1      -0.907  52.083 -27.689  1.00  0.00     0.009 A 
ENDBRANCH  19  21
ENDBRANCH  15  19
ENDBRANCH   1  13
BRANCH   7  27
HETATM   27  C8  UNL     1       0.634  51.486 -15.800  1.00  0.00     0.270 C 
HETATM   28  O2  UNL     1       0.051  50.440 -15.530  1.00  0.00    -0.266 OA
HETATM   29  N5  UNL     1       1.178  52.329 -14.856  1.00  0.00    -0.355 N 
HETATM   30  H9  UNL     1       1.646  53.151 -15.233  1.00  0.00     0.162 HD
BRANCH  29  31
HETATM   31  C9  UNL     1       1.136  52.084 -13.433  1.00  0.00     0.129 C 
BRANCH  31  32
HETATM   32  C10 UNL     1      -0.087  52.678 -12.730  1.00  0.00     0.033 C 
HETATM   33  C11 UNL     1       0.212  53.522 -11.489  1.00  0.00     0.038 C 
HETATM   34  C12 UNL     1      -0.618  52.889 -10.381  1.00  0.00     0.273 C 
HETATM   35  N6  UNL     1      -1.736  52.215 -11.065  1.00  0.00     0.093 N 
HETATM   36  C16 UNL     1      -1.094  51.629 -12.251  1.00  0.00     0.279 C 
BRANCH  35  37
HETATM   37  C13 UNL     1      -2.882  53.124 -11.294  1.00  0.00     0.223 A 
HETATM   38  C14 UNL     1      -3.436  53.882 -10.113  1.00  0.00     0.038 A 
HETATM   39  C15 UNL     1      -4.294  52.886 -10.833  1.00  0.00     0.038 A 
ENDBRANCH  35  37
ENDBRANCH  31  32
ENDBRANCH  29  31
ENDBRANCH   7  27
TORSDOF 7
ENDMDL
MODEL 6
REMARK minimizedAffinity -8.93949986
REMARK  7 active torsions:
REMARK  status: ('A' for Active; 'I' for Inactive)
REMARK    1  A    between atoms: C2_2  and  N1_3 
REMARK    2  A    between atoms: C2_2  and  C19_30 
REMARK       I    between atoms: N1_3  and  C3_4 
REMARK       I    between atoms: C3_4  and  N2_6 
REMARK    3  A    between atoms: N2_6  and  C4_7 
REMARK    4  A    between atoms: C7_13  and  C8_14 
REMARK       I    between atoms: C8_14  and  N5_16 
REMARK    5  A    between atoms: N5_16  and  C9_17 
REMARK    6  A    between atoms: C9_17  and  C10_18 
REMARK    7  A    between atoms: N6_21  and  C13_22 
ROOT
HETATM    1  C4  UNL     1      -3.301  49.515 -27.395  1.00  0.00     0.111 A 
HETATM    2  C5  UNL     1      -3.267  50.773 -27.984  1.00  0.00     0.080 A 
HETATM    3  C6  UNL     1      -2.322  51.652 -27.454  1.00  0.00     0.065 A 
HETATM    4  N3  UNL     1      -2.000  52.943 -27.765  1.00  0.00    -0.299 N 
HETATM    5  N4  UNL     1      -1.012  53.462 -27.011  1.00  0.00    -0.294 N 
ATOM      6  H4  UNL     1      -0.609  54.398 -27.061  1.00  0.00     0.187 HD
HETATM    7  C7  UNL     1      -0.680  52.454 -26.174  1.00  0.00     0.130 A 
HETATM    8  C17 UNL     1      -1.476  51.299 -26.412  1.00  0.00     0.041 A 
HETATM    9  C18 UNL     1      -1.581  50.017 -25.874  1.00  0.00     0.106 A 
HETATM   10  N7  UNL     1      -2.496  49.144 -26.371  1.00  0.00    -0.351 N 
ATOM     11  H7  UNL     1      -2.577  48.208 -25.973  1.00  0.00     0.166 HD
HETATM   12  H8  UNL     1      -2.419  53.525 -28.481  1.00  0.00     0.187 HD
ENDROOT
BRANCH   1  13
HETATM   13  N2  UNL     1      -4.177  48.504 -27.789  1.00  0.00    -0.295 N 
HETATM   14  C3  UNL     1      -4.927  48.423 -28.930  1.00  0.00     0.322 C 
HETATM   15  N1  UNL     1      -5.684  47.275 -28.949  1.00  0.00    -0.335 N 
HETATM   16  O1  UNL     1      -4.941  49.234 -29.847  1.00  0.00    -0.247 OA
HETATM   17  H5  UNL     1      -5.861  46.811 -28.070  1.00  0.00     0.165 HD
HETATM   18  H6  UNL     1      -4.133  47.701 -27.181  1.00  0.00     0.172 HD
BRANCH  15  19
HETATM   19  C2  UNL     1      -6.588  46.967 -30.046  1.00  0.00     0.115 C 
HETATM   20  C1  UNL     1      -7.323  45.645 -29.802  1.00  0.00     0.037 C 
BRANCH  19  21
HETATM   21  C19 UNL     1      -5.805  47.019 -31.348  1.00  0.00    -0.036 A 
HETATM   22  C20 UNL     1      -4.642  46.234 -31.472  1.00  0.00     0.009 A 
HETATM   23  C21 UNL     1      -3.906  46.224 -32.657  1.00  0.00     0.001 A 
HETATM   24  C22 UNL     1      -4.322  46.992 -33.741  1.00  0.00     0.000 A 
HETATM   25  C23 UNL     1      -5.479  47.764 -33.642  1.00  0.00     0.001 A 
HETATM   26  C24 UNL     1      -6.219  47.773 -32.457  1.00  0.00     0.009 A 
ENDBRANCH  19  21
ENDBRANCH  15  19
ENDBRANCH   1  13
BRANCH   7  27
HETATM   27  C8  UNL     1       0.378  52.603 -25.164  1.00  0.00     0.270 C 
HETATM   28  O2  UNL     1       1.570  52.657 -25.450  1.00  0.00    -0.266 OA
HETATM   29  N5  UNL     1      -0.109  52.670 -23.877  1.00  0.00    -0.355 N 
HETATM   30  H9  UNL     1      -1.123  52.630 -23.799  1.00  0.00     0.162 HD
BRANCH  29  31
HETATM   31  C9  UNL     1       0.723  52.817 -22.705  1.00  0.00     0.129 C 
BRANCH  31  32
HETATM   32  C10 UNL     1      -0.050  52.815 -21.384  1.00  0.00     0.033 C 
HETATM   33  C11 UNL     1       0.545  53.681 -20.271  1.00  0.00     0.038 C 
HETATM   34  C12 UNL     1       0.724  52.732 -19.096  1.00  0.00     0.273 C 
HETATM   35  N6  UNL     1      -0.263  51.657 -19.305  1.00  0.00     0.093 N 
HETATM   36  C16 UNL     1      -0.198  51.427 -20.756  1.00  0.00     0.279 C 
BRANCH  35  37
HETATM   37  C13 UNL     1      -1.586  51.992 -18.731  1.00  0.00     0.223 A 
HETATM   38  C14 UNL     1      -2.254  50.973 -17.841  1.00  0.00     0.038 A 
HETATM   39  C15 UNL     1      -2.897  51.374 -19.134  1.00  0.00     0.038 A 
ENDBRANCH  35  37
ENDBRANCH  31  32
ENDBRANCH  29  31
ENDBRANCH   7  27
TORSDOF 7
ENDMDL
MODEL 7
REMARK minimizedAffinity -8.8904829
REMARK  7 active torsions:
REMARK  status: ('A' for Active; 'I' for Inactive)
REMARK    1  A    between atoms: C2_2  and  N1_3 
REMARK    2  A    between atoms: C2_2  and  C19_30 
REMARK       I    between atoms: N1_3  and  C3_4 
REMARK       I    between atoms: C3_4  and  N2_6 
REMARK    3  A    between atoms: N2_6  and  C4_7 
REMARK    4  A    between atoms: C7_13  and  C8_14 
REMARK       I    between atoms: C8_14  and  N5_16 
REMARK    5  A    between atoms: N5_16  and  C9_17 
REMARK    6  A    between atoms: C9_17  and  C10_18 
REMARK    7  A    between atoms: N6_21  and  C13_22 
ROOT
HETATM    1  C4  UNL     1      -0.800  50.243 -19.611  1.00  0.00     0.111 A 
HETATM    2  C5  UNL     1      -0.138  51.464 -19.648  1.00  0.00     0.080 A 
HETATM    3  C6  UNL     1       0.404  51.883 -18.432  1.00  0.00     0.065 A 
HETATM    4  N3  UNL     1       1.108  53.001 -18.084  1.00  0.00    -0.299 N 
HETATM    5  N4  UNL     1       1.464  53.046 -16.786  1.00  0.00    -0.294 N 
ATOM      6  H4  UNL     1       1.987  53.776 -16.302  1.00  0.00     0.187 HD
HETATM    7  C7  UNL     1       0.965  51.899 -16.274  1.00  0.00     0.130 A 
HETATM    8  C17 UNL     1       0.290  51.138 -17.267  1.00  0.00     0.041 A 
HETATM    9  C18 UNL     1      -0.397  49.925 -17.317  1.00  0.00     0.106 A 
HETATM   10  N7  UNL     1      -0.936  49.497 -18.489  1.00  0.00    -0.351 N 
ATOM     11  H7  UNL     1      -1.444  48.613 -18.523  1.00  0.00     0.166 HD
HETATM   12  H8  UNL     1       1.377  53.771 -18.686  1.00  0.00     0.187 HD
ENDROOT
BRANCH   1  13
HETATM   13  N2  UNL     1      -1.405  49.661 -20.724  1.00  0.00    -0.295 N 
HETATM   14  C3  UNL     1      -2.738  49.551 -21.009  1.00  0.00     0.322 C 
HETATM   15  N1  UNL     1      -2.941  48.893 -22.200  1.00  0.00    -0.335 N 
HETATM   16  O1  UNL     1      -3.663  49.982 -20.331  1.00  0.00    -0.247 OA
HETATM   17  H5  UNL     1      -2.193  48.314 -22.553  1.00  0.00     0.165 HD
HETATM   18  H6  UNL     1      -0.736  49.405 -21.434  1.00  0.00     0.172 HD
BRANCH  15  19
HETATM   19  C2  UNL     1      -4.275  48.626 -22.714  1.00  0.00     0.115 C 
HETATM   20  C1  UNL     1      -4.887  47.388 -22.051  1.00  0.00     0.037 C 
BRANCH  19  21
HETATM   21  C19 UNL     1      -4.204  48.555 -24.232  1.00  0.00    -0.036 A 
HETATM   22  C20 UNL     1      -2.949  48.677 -24.858  1.00  0.00     0.009 A 
HETATM   23  C21 UNL     1      -2.828  48.588 -26.245  1.00  0.00     0.001 A 
HETATM   24  C22 UNL     1      -3.957  48.370 -27.029  1.00  0.00     0.000 A 
HETATM   25  C23 UNL     1      -5.206  48.232 -26.426  1.00  0.00     0.001 A 
HETATM   26  C24 UNL     1      -5.329  48.317 -25.036  1.00  0.00     0.009 A 
ENDBRANCH  19  21
ENDBRANCH  15  19
ENDBRANCH   1  13
BRANCH   7  27
HETATM   27  C8  UNL     1       1.132  51.548 -14.856  1.00  0.00     0.270 C 
HETATM   28  O2  UNL     1       1.630  50.490 -14.485  1.00  0.00    -0.266 OA
HETATM   29  N5  UNL     1       0.668  52.522 -14.000  1.00  0.00    -0.355 N 
HETATM   30  H9  UNL     1       0.297  53.354 -14.455  1.00  0.00     0.162 HD
BRANCH  29  31
HETATM   31  C9  UNL     1       0.716  52.422 -12.559  1.00  0.00     0.129 C 
BRANCH  31  32
HETATM   32  C10 UNL     1      -0.599  52.775 -11.862  1.00  0.00     0.033 C 
HETATM   33  C11 UNL     1      -0.512  53.890 -10.817  1.00  0.00     0.038 C 
HETATM   34  C12 UNL     1      -1.081  53.275  -9.546  1.00  0.00     0.273 C 
HETATM   35  N6  UNL     1      -1.981  52.199 -10.000  1.00  0.00     0.093 N 
HETATM   36  C16 UNL     1      -1.241  51.600 -11.121  1.00  0.00     0.279 C 
BRANCH  35  37
HETATM   37  C13 UNL     1      -3.349  52.693 -10.278  1.00  0.00     0.223 A 
HETATM   38  C14 UNL     1      -3.877  52.571 -11.686  1.00  0.00     0.038 A 
HETATM   39  C15 UNL     1      -3.690  53.925 -11.070  1.00  0.00     0.038 A 
ENDBRANCH  35  37
ENDBRANCH  31  32
ENDBRANCH  29  31
ENDBRANCH   7  27
TORSDOF 7
ENDMDL
MODEL 8
REMARK minimizedAffinity -8.87088585
REMARK  7 active torsions:
REMARK  status: ('A' for Active; 'I' for Inactive)
REMARK    1  A    between atoms: C2_2  and  N1_3 
REMARK    2  A    between atoms: C2_2  and  C19_30 
REMARK       I    between atoms: N1_3  and  C3_4 
REMARK       I    between atoms: C3_4  and  N2_6 
REMARK    3  A    between atoms: N2_6  and  C4_7 
REMARK    4  A    between atoms: C7_13  and  C8_14 
REMARK       I    between atoms: C8_14  and  N5_16 
REMARK    5  A    between atoms: N5_16  and  C9_17 
REMARK    6  A    between atoms: C9_17  and  C10_18 
REMARK    7  A    between atoms: N6_21  and  C13_22 
ROOT
HETATM    1  C4  UNL     1      -0.520  51.718 -19.371  1.00  0.00     0.111 A 
HETATM    2  C5  UNL     1       0.627  52.487 -19.208  1.00  0.00     0.080 A 
HETATM    3  C6  UNL     1       1.127  52.539 -17.907  1.00  0.00     0.065 A 
HETATM    4  N3  UNL     1       2.209  53.177 -17.370  1.00  0.00    -0.299 N 
HETATM    5  N4  UNL     1       2.364  52.982 -16.047  1.00  0.00    -0.294 N 
ATOM      6  H4  UNL     1       3.092  53.355 -15.436  1.00  0.00     0.187 HD
HETATM    7  C7  UNL     1       1.329  52.178 -15.715  1.00  0.00     0.130 A 
HETATM    8  C17 UNL     1       0.525  51.874 -16.848  1.00  0.00     0.041 A 
HETATM    9  C18 UNL     1      -0.628  51.130 -17.098  1.00  0.00     0.106 A 
HETATM   10  N7  UNL     1      -1.136  51.066 -18.357  1.00  0.00    -0.351 N 
ATOM     11  H7  UNL     1      -1.983  50.527 -18.537  1.00  0.00     0.166 HD
HETATM   12  H8  UNL     1       2.881  53.761 -17.855  1.00  0.00     0.187 HD
ENDROOT
BRANCH   1  13
HETATM   13  N2  UNL     1      -1.164  51.547 -20.596  1.00  0.00    -0.295 N 
HETATM   14  C3  UNL     1      -0.619  51.529 -21.850  1.00  0.00     0.322 C 
HETATM   15  N1  UNL     1      -1.586  51.353 -22.812  1.00  0.00    -0.335 N 
HETATM   16  O1  UNL     1       0.569  51.635 -22.126  1.00  0.00    -0.247 OA
HETATM   17  H5  UNL     1      -2.542  51.567 -22.566  1.00  0.00     0.165 HD
HETATM   18  H6  UNL     1      -2.134  51.295 -20.486  1.00  0.00     0.172 HD
BRANCH  15  19
HETATM   19  C2  UNL     1      -1.266  51.323 -24.230  1.00  0.00     0.115 C 
HETATM   20  C1  UNL     1      -1.383  52.718 -24.853  1.00  0.00     0.037 C 
BRANCH  19  21
HETATM   21  C19 UNL     1      -2.126  50.262 -24.899  1.00  0.00    -0.036 A 
HETATM   22  C20 UNL     1      -2.994  49.492 -24.103  1.00  0.00     0.009 A 
HETATM   23  C21 UNL     1      -3.825  48.528 -24.674  1.00  0.00     0.001 A 
HETATM   24  C22 UNL     1      -3.808  48.321 -26.050  1.00  0.00     0.000 A 
HETATM   25  C23 UNL     1      -2.964  49.084 -26.856  1.00  0.00     0.001 A 
HETATM   26  C24 UNL     1      -2.133  50.052 -26.286  1.00  0.00     0.009 A 
ENDBRANCH  19  21
ENDBRANCH  15  19
ENDBRANCH   1  13
BRANCH   7  27
HETATM   27  C8  UNL     1       1.120  51.716 -14.335  1.00  0.00     0.270 C 
HETATM   28  O2  UNL     1       1.042  50.529 -14.033  1.00  0.00    -0.266 OA
HETATM   29  N5  UNL     1       1.015  52.749 -13.430  1.00  0.00    -0.355 N 
HETATM   30  H9  UNL     1       1.118  53.681 -13.827  1.00  0.00     0.162 HD
BRANCH  29  31
HETATM   31  C9  UNL     1       0.807  52.563 -12.012  1.00  0.00     0.129 C 
BRANCH  31  32
HETATM   32  C10 UNL     1      -0.537  53.087 -11.502  1.00  0.00     0.033 C 
HETATM   33  C11 UNL     1      -0.469  54.357 -10.650  1.00  0.00     0.038 C 
HETATM   34  C12 UNL     1      -1.173  53.990  -9.351  1.00  0.00     0.273 C 
HETATM   35  N6  UNL     1      -2.095  52.894  -9.701  1.00  0.00     0.093 N 
HETATM   36  C16 UNL     1      -1.304  52.082 -10.638  1.00  0.00     0.279 C 
BRANCH  35  37
HETATM   37  C13 UNL     1      -3.405  53.394 -10.176  1.00  0.00     0.223 A 
HETATM   38  C14 UNL     1      -4.417  52.387 -10.664  1.00  0.00     0.038 A 
HETATM   39  C15 UNL     1      -3.867  53.415 -11.607  1.00  0.00     0.038 A 
ENDBRANCH  35  37
ENDBRANCH  31  32
ENDBRANCH  29  31
ENDBRANCH   7  27
TORSDOF 7
ENDMDL
MODEL 9
REMARK minimizedAffinity -8.6999321
REMARK  7 active torsions:
REMARK  status: ('A' for Active; 'I' for Inactive)
REMARK    1  A    between atoms: C2_2  and  N1_3 
REMARK    2  A    between atoms: C2_2  and  C19_30 
REMARK       I    between atoms: N1_3  and  C3_4 
REMARK       I    between atoms: C3_4  and  N2_6 
REMARK    3  A    between atoms: N2_6  and  C4_7 
REMARK    4  A    between atoms: C7_13  and  C8_14 
REMARK       I    between atoms: C8_14  and  N5_16 
REMARK    5  A    between atoms: N5_16  and  C9_17 
REMARK    6  A    between atoms: C9_17  and  C10_18 
REMARK    7  A    between atoms: N6_21  and  C13_22 
ROOT
HETATM    1  C4  UNL     1      -1.849  50.236 -24.575  1.00  0.00     0.111 A 
HETATM    2  C5  UNL     1      -1.773  51.073 -25.681  1.00  0.00     0.080 A 
HETATM    3  C6  UNL     1      -2.522  50.668 -26.786  1.00  0.00     0.065 A 
HETATM    4  N3  UNL     1      -2.694  51.219 -28.025  1.00  0.00    -0.299 N 
HETATM    5  N4  UNL     1      -3.510  50.517 -28.833  1.00  0.00    -0.294 N 
ATOM      6  H4  UNL     1      -3.783  50.732 -29.792  1.00  0.00     0.187 HD
HETATM    7  C7  UNL     1      -3.885  49.462 -28.076  1.00  0.00     0.130 A 
HETATM    8  C17 UNL     1      -3.289  49.512 -26.785  1.00  0.00     0.041 A 
HETATM    9  C18 UNL     1      -3.304  48.724 -25.634  1.00  0.00     0.106 A 
HETATM   10  N7  UNL     1      -2.580  49.096 -24.547  1.00  0.00    -0.351 N 
ATOM     11  H7  UNL     1      -2.587  48.516 -23.707  1.00  0.00     0.166 HD
HETATM   12  H8  UNL     1      -2.279  52.074 -28.380  1.00  0.00     0.187 HD
ENDROOT
BRANCH   1  13
HETATM   13  N2  UNL     1      -1.171  50.474 -23.380  1.00  0.00    -0.295 N 
HETATM   14  C3  UNL     1      -1.247  51.567 -22.561  1.00  0.00     0.322 C 
HETATM   15  N1  UNL     1      -0.408  51.439 -21.479  1.00  0.00    -0.335 N 
HETATM   16  O1  UNL     1      -1.967  52.545 -22.722  1.00  0.00    -0.247 OA
HETATM   17  H5  UNL     1       0.356  50.782 -21.549  1.00  0.00     0.165 HD
HETATM   18  H6  UNL     1      -0.659  49.666 -23.062  1.00  0.00     0.172 HD
BRANCH  15  19
HETATM   19  C2  UNL     1      -0.287  52.480 -20.471  1.00  0.00     0.115 C 
HETATM   20  C1  UNL     1       0.716  53.555 -20.904  1.00  0.00     0.037 C 
BRANCH  19  21
HETATM   21  C19 UNL     1       0.031  51.827 -19.135  1.00  0.00    -0.036 A 
HETATM   22  C20 UNL     1       0.767  52.555 -18.183  1.00  0.00     0.009 A 
HETATM   23  C21 UNL     1       1.058  52.011 -16.931  1.00  0.00     0.001 A 
HETATM   24  C22 UNL     1       0.613  50.733 -16.608  1.00  0.00     0.000 A 
HETATM   25  C23 UNL     1      -0.130  50.002 -17.533  1.00  0.00     0.001 A 
HETATM   26  C24 UNL     1      -0.425  50.547 -18.786  1.00  0.00     0.009 A 
ENDBRANCH  19  21
ENDBRANCH  15  19
ENDBRANCH   1  13
BRANCH   7  27
HETATM   27  C8  UNL     1      -4.794  48.426 -28.588  1.00  0.00     0.270 C 
HETATM   28  O2  UNL     1      -4.496  47.673 -29.510  1.00  0.00    -0.266 OA
HETATM   29  N5  UNL     1      -6.005  48.398 -27.933  1.00  0.00    -0.355 N 
HETATM   30  H9  UNL     1      -6.101  49.073 -27.176  1.00  0.00     0.162 HD
BRANCH  29  31
HETATM   31  C9  UNL     1      -7.072  47.474 -28.245  1.00  0.00     0.129 C 
BRANCH  31  32
HETATM   32  C10 UNL     1      -7.687  47.674 -29.632  1.00  0.00     0.033 C 
HETATM   33  C11 UNL     1      -8.794  48.728 -29.716  1.00  0.00     0.038 C 
HETATM   34  C12 UNL     1      -9.984  47.992 -30.315  1.00  0.00     0.273 C 
HETATM   35  N6  UNL     1      -9.409  46.873 -31.083  1.00  0.00     0.093 N 
HETATM   36  C16 UNL     1      -8.315  46.406 -30.217  1.00  0.00     0.279 C 
BRANCH  35  37
HETATM   37  C13 UNL     1      -9.057  47.266 -32.466  1.00  0.00     0.223 A 
HETATM   38  C14 UNL     1      -9.446  46.338 -33.590  1.00  0.00     0.038 A 
HETATM   39  C15 UNL     1      -7.999  46.619 -33.317  1.00  0.00     0.038 A 
ENDBRANCH  35  37
ENDBRANCH  31  32
ENDBRANCH  29  31
ENDBRANCH   7  27
TORSDOF 7
ENDMDL
