MODEL 1
REMARK minimizedAffinity -8.97961807
REMARK  7 active torsions:
REMARK  status: ('A' for Active; 'I' for Inactive)
REMARK    1  A    between atoms: O1_2  and  C2_3 
REMARK    2  A    between atoms: C2_3  and  C3_4 
REMARK    3  A    between atoms: C3_4  and  N1_5 
REMARK    4  A    between atoms: C3_4  and  C18_29 
REMARK       I    between atoms: N1_5  and  C4_6 
REMARK       I    between atoms: C4_6  and  N2_8 
REMARK    5  A    between atoms: N2_8  and  C5_9 
REMARK    6  A    between atoms: C8_15  and  O3_16 
REMARK    7  A    between atoms: O3_16  and  C9_17 
ROOT
HETATM    1  C9  UNL     1       0.247  52.416 -22.283  1.00  0.00     0.130 C 
HETATM    2  C10 UNL     1       0.317  53.236 -20.988  1.00  0.00     0.034 C 
HETATM    3  C11 UNL     1       0.672  52.373 -19.777  1.00  0.00     0.021 C 
HETATM    4  C12 UNL     1      -0.258  51.164 -19.609  1.00  0.00     0.093 C 
HETATM    5  C13 UNL     1      -1.585  51.580 -19.113  1.00  0.00     0.064 C 
HETATM    6  N5  UNL     1      -2.629  51.905 -18.724  1.00  0.00    -0.197 NA
HETATM    7  C14 UNL     1      -0.381  50.373 -20.917  1.00  0.00     0.021 C 
HETATM    8  C15 UNL     1      -0.741  51.253 -22.113  1.00  0.00     0.034 C 
ENDROOT
BRANCH   1   9
HETATM    9  O3  UNL     1      -0.202  53.305 -23.310  1.00  0.00    -0.329 OA
BRANCH   9  10
HETATM   10  C8  UNL     1      -0.087  52.854 -24.579  1.00  0.00     0.171 A 
HETATM   11  N4  UNL     1       1.076  52.887 -25.232  1.00  0.00    -0.279 N 
HETATM   12  N3  UNL     1       0.770  52.355 -26.431  1.00  0.00    -0.298 N 
ATOM     13  H4  UNL     1       1.978  53.232 -24.904  1.00  0.00     0.189 HD
HETATM   14  C7  UNL     1      -0.542  51.984 -26.558  1.00  0.00     0.067 A 
HETATM   15  H10 UNL     1       1.506  52.271 -27.124  1.00  0.00     0.187 HD
HETATM   16  C6  UNL     1      -1.252  51.401 -27.608  1.00  0.00     0.080 A 
HETATM   17  C16 UNL     1      -1.136  52.309 -25.347  1.00  0.00     0.060 A 
HETATM   18  C5  UNL     1      -2.600  51.170 -27.354  1.00  0.00     0.111 A 
HETATM   19  N6  UNL     1      -3.207  51.479 -26.184  1.00  0.00    -0.351 N 
HETATM   20  C17 UNL     1      -2.492  52.046 -25.175  1.00  0.00     0.108 A 
ATOM     21  H6  UNL     1      -4.201  51.286 -26.059  1.00  0.00     0.166 HD
BRANCH  18  22
HETATM   22  N2  UNL     1      -3.466  50.580 -28.274  1.00  0.00    -0.295 N 
HETATM   23  C4  UNL     1      -3.872  49.276 -28.346  1.00  0.00     0.322 C 
HETATM   24  N1  UNL     1      -4.774  49.088 -29.368  1.00  0.00    -0.332 N 
HETATM   25  O2  UNL     1      -3.502  48.357 -27.625  1.00  0.00    -0.247 OA
HETATM   26  H7  UNL     1      -5.324  49.893 -29.630  1.00  0.00     0.165 HD
HETATM   27  H8  UNL     1      -3.745  51.216 -29.003  1.00  0.00     0.172 HD
BRANCH  24  28
HETATM   28  C3  UNL     1      -5.412  47.787 -29.568  1.00  0.00     0.143 C 
BRANCH  28  29
HETATM   29  C2  UNL     1      -5.521  47.427 -31.075  1.00  0.00     0.197 C 
BRANCH  29  30
HETATM   30  O1  UNL     1      -4.276  47.057 -31.678  1.00  0.00    -0.394 OA
HETATM   31  C1  UNL     1      -4.289  45.743 -32.222  1.00  0.00     0.201 C 
ENDBRANCH  29  30
ENDBRANCH  28  29
BRANCH  28  32
HETATM   32  C18 UNL     1      -6.738  47.780 -28.817  1.00  0.00    -0.033 A 
HETATM   33  C19 UNL     1      -7.911  48.329 -29.357  1.00  0.00     0.009 A 
HETATM   34  C20 UNL     1      -9.098  48.340 -28.619  1.00  0.00     0.001 A 
HETATM   35  C21 UNL     1      -9.126  47.815 -27.329  1.00  0.00     0.000 A 
HETATM   36  C22 UNL     1      -7.966  47.282 -26.771  1.00  0.00     0.001 A 
HETATM   37  C23 UNL     1      -6.780  47.268 -27.507  1.00  0.00     0.009 A 
ENDBRANCH  28  32
ENDBRANCH  24  28
ENDBRANCH  18  22
ENDBRANCH   9  10
ENDBRANCH   1   9
TORSDOF 7
ENDMDL
MODEL 2
REMARK minimizedAffinity -8.92534447
REMARK  7 active torsions:
REMARK  status: ('A' for Active; 'I' for Inactive)
REMARK    1  A    between atoms: O1_2  and  C2_3 
REMARK    2  A    between atoms: C2_3  and  C3_4 
REMARK    3  A    between atoms: C3_4  and  N1_5 
REMARK    4  A    between atoms: C3_4  and  C18_29 
REMARK       I    between atoms: N1_5  and  C4_6 
REMARK       I    between atoms: C4_6  and  N2_8 
REMARK    5  A    between atoms: N2_8  and  C5_9 
REMARK    6  A    between atoms: C8_15  and  O3_16 
REMARK    7  A    between atoms: O3_16  and  C9_17 
ROOT
HETATM    1  C9  UNL     1      -0.822  51.098 -25.207  1.00  0.00     0.130 C 
HETATM    2  C10 UNL     1      -1.885  52.150 -25.549  1.00  0.00     0.034 C 
HETATM    3  C11 UNL     1      -1.923  52.467 -27.044  1.00  0.00     0.021 C 
HETATM    4  C12 UNL     1      -0.554  52.870 -27.607  1.00  0.00     0.093 C 
HETATM    5  C13 UNL     1      -0.182  54.232 -27.174  1.00  0.00     0.064 C 
HETATM    6  N5  UNL     1       0.112  55.302 -26.835  1.00  0.00    -0.197 NA
HETATM    7  C14 UNL     1       0.527  51.853 -27.218  1.00  0.00     0.021 C 
HETATM    8  C15 UNL     1       0.551  51.555 -25.719  1.00  0.00     0.034 C 
ENDROOT
BRANCH   1   9
HETATM    9  O3  UNL     1      -0.807  50.976 -23.782  1.00  0.00    -0.329 OA
BRANCH   9  10
HETATM   10  C8  UNL     1      -0.133  51.936 -23.110  1.00  0.00     0.171 A 
HETATM   11  N4  UNL     1       0.434  52.966 -23.741  1.00  0.00    -0.279 N 
HETATM   12  N3  UNL     1       0.982  53.676 -22.737  1.00  0.00    -0.298 N 
ATOM     13  H4  UNL     1       0.449  53.167 -24.741  1.00  0.00     0.189 HD
HETATM   14  C7  UNL     1       0.780  53.136 -21.495  1.00  0.00     0.067 A 
HETATM   15  H10 UNL     1       1.485  54.528 -22.965  1.00  0.00     0.187 HD
HETATM   16  C6  UNL     1       1.165  53.550 -20.220  1.00  0.00     0.080 A 
HETATM   17  C16 UNL     1       0.048  51.977 -21.713  1.00  0.00     0.060 A 
HETATM   18  C5  UNL     1       0.764  52.716 -19.181  1.00  0.00     0.111 A 
HETATM   19  N6  UNL     1       0.051  51.579 -19.363  1.00  0.00    -0.351 N 
HETATM   20  C17 UNL     1      -0.313  51.198 -20.617  1.00  0.00     0.108 A 
ATOM     21  H6  UNL     1      -0.213  51.009 -18.559  1.00  0.00     0.166 HD
BRANCH  18  22
HETATM   22  N2  UNL     1       1.039  52.973 -17.838  1.00  0.00    -0.295 N 
HETATM   23  C4  UNL     1       1.047  52.098 -16.788  1.00  0.00     0.322 C 
HETATM   24  N1  UNL     1       1.416  52.721 -15.618  1.00  0.00    -0.332 N 
HETATM   25  O2  UNL     1       0.761  50.907 -16.830  1.00  0.00    -0.247 OA
HETATM   26  H7  UNL     1       2.008  53.534 -15.714  1.00  0.00     0.165 HD
HETATM   27  H8  UNL     1       1.171  53.954 -17.653  1.00  0.00     0.172 HD
BRANCH  24  28
HETATM   28  C3  UNL     1       1.582  51.953 -14.385  1.00  0.00     0.143 C 
BRANCH  28  29
HETATM   29  C2  UNL     1       2.097  50.516 -14.670  1.00  0.00     0.197 C 
BRANCH  29  30
HETATM   30  O1  UNL     1       2.920  49.973 -13.631  1.00  0.00    -0.394 OA
HETATM   31  C1  UNL     1       4.301  49.947 -13.969  1.00  0.00     0.201 C 
ENDBRANCH  29  30
ENDBRANCH  28  29
BRANCH  28  32
HETATM   32  C18 UNL     1       0.278  52.013 -13.600  1.00  0.00    -0.033 A 
HETATM   33  C19 UNL     1       0.112  52.840 -12.478  1.00  0.00     0.009 A 
HETATM   34  C20 UNL     1      -1.087  52.835 -11.759  1.00  0.00     0.001 A 
HETATM   35  C21 UNL     1      -2.131  51.998 -12.144  1.00  0.00     0.000 A 
HETATM   36  C22 UNL     1      -1.977  51.158 -13.245  1.00  0.00     0.001 A 
HETATM   37  C23 UNL     1      -0.782  51.162 -13.965  1.00  0.00     0.009 A 
ENDBRANCH  28  32
ENDBRANCH  24  28
ENDBRANCH  18  22
ENDBRANCH   9  10
ENDBRANCH   1   9
TORSDOF 7
ENDMDL
MODEL 3
REMARK minimizedAffinity -8.71351814
REMARK  7 active torsions:
REMARK  status: ('A' for Active; 'I' for Inactive)
REMARK    1  A    between atoms: O1_2  and  C2_3 
REMARK    2  A    between atoms: C2_3  and  C3_4 
REMARK    3  A    between atoms: C3_4  and  N1_5 
REMARK    4  A    between atoms: C3_4  and  C18_29 
REMARK       I    between atoms: N1_5  and  C4_6 
REMARK       I    between atoms: C4_6  and  N2_8 
REMARK    5  A    between atoms: N2_8  and  C5_9 
REMARK    6  A    between atoms: C8_15  and  O3_16 
REMARK    7  A    between atoms: O3_16  and  C9_17 
ROOT
HETATM    1  C9  UNL     1       0.392  52.258 -22.169  1.00  0.00     0.130 C 
HETATM    2  C10 UNL     1       0.291  53.213 -20.973  1.00  0.00     0.034 C 
HETATM    3  C11 UNL     1       0.626  52.521 -19.652  1.00  0.00     0.021 C 
HETATM    4  C12 UNL     1      -0.204  51.254 -19.410  1.00  0.00     0.093 C 
HETATM    5  C13 UNL     1      -1.597  51.591 -19.054  1.00  0.00     0.064 C 
HETATM    6  N5  UNL     1      -2.692  51.855 -18.774  1.00  0.00    -0.197 NA
HETATM    7  C14 UNL     1      -0.157  50.320 -20.627  1.00  0.00     0.021 C 
HETATM    8  C15 UNL     1      -0.500  51.031 -21.936  1.00  0.00     0.034 C 
ENDROOT
BRANCH   1   9
HETATM    9  O3  UNL     1      -0.053  52.986 -23.317  1.00  0.00    -0.329 OA
BRANCH   9  10
HETATM   10  C8  UNL     1      -0.091  52.298 -24.481  1.00  0.00     0.171 A 
HETATM   11  N4  UNL     1       1.025  51.949 -25.124  1.00  0.00    -0.279 N 
HETATM   12  N3  UNL     1       0.562  51.291 -26.204  1.00  0.00    -0.298 N 
ATOM     13  H4  UNL     1       1.993  52.135 -24.862  1.00  0.00     0.189 HD
HETATM   14  C7  UNL     1      -0.803  51.209 -26.265  1.00  0.00     0.067 A 
HETATM   15  H10 UNL     1       1.233  50.918 -26.867  1.00  0.00     0.187 HD
HETATM   16  C6  UNL     1      -1.665  50.620 -27.191  1.00  0.00     0.080 A 
HETATM   17  C16 UNL     1      -1.263  51.873 -25.137  1.00  0.00     0.060 A 
HETATM   18  C5  UNL     1      -3.020  50.749 -26.903  1.00  0.00     0.111 A 
HETATM   19  N6  UNL     1      -3.498  51.395 -25.813  1.00  0.00    -0.351 N 
HETATM   20  C17 UNL     1      -2.636  51.959 -24.924  1.00  0.00     0.108 A 
ATOM     21  H6  UNL     1      -4.504  51.457 -25.657  1.00  0.00     0.166 HD
BRANCH  18  22
HETATM   22  N2  UNL     1      -4.031  50.213 -27.701  1.00  0.00    -0.295 N 
HETATM   23  C4  UNL     1      -4.153  48.937 -28.177  1.00  0.00     0.322 C 
HETATM   24  N1  UNL     1      -5.318  48.778 -28.891  1.00  0.00    -0.332 N 
HETATM   25  O2  UNL     1      -3.352  48.023 -28.024  1.00  0.00    -0.247 OA
HETATM   26  H7  UNL     1      -6.081  49.390 -28.640  1.00  0.00     0.165 HD
HETATM   27  H8  UNL     1      -4.695  50.908 -28.000  1.00  0.00     0.172 HD
BRANCH  24  28
HETATM   28  C3  UNL     1      -5.698  47.465 -29.412  1.00  0.00     0.143 C 
BRANCH  28  29
HETATM   29  C2  UNL     1      -6.250  47.562 -30.861  1.00  0.00     0.197 C 
BRANCH  29  30
HETATM   30  O1  UNL     1      -7.005  48.751 -31.120  1.00  0.00    -0.394 OA
HETATM   31  C1  UNL     1      -8.365  48.648 -30.719  1.00  0.00     0.201 C 
ENDBRANCH  29  30
ENDBRANCH  28  29
BRANCH  28  32
HETATM   32  C18 UNL     1      -6.645  46.807 -28.417  1.00  0.00    -0.033 A 
HETATM   33  C19 UNL     1      -7.178  45.524 -28.619  1.00  0.00     0.009 A 
HETATM   34  C20 UNL     1      -8.077  44.973 -27.702  1.00  0.00     0.001 A 
HETATM   35  C21 UNL     1      -8.464  45.698 -26.577  1.00  0.00     0.000 A 
HETATM   36  C22 UNL     1      -7.959  46.979 -26.370  1.00  0.00     0.001 A 
HETATM   37  C23 UNL     1      -7.060  47.532 -27.284  1.00  0.00     0.009 A 
ENDBRANCH  28  32
ENDBRANCH  24  28
ENDBRANCH  18  22
ENDBRANCH   9  10
ENDBRANCH   1   9
TORSDOF 7
ENDMDL
MODEL 4
REMARK minimizedAffinity -8.66827965
REMARK  7 active torsions:
REMARK  status: ('A' for Active; 'I' for Inactive)
REMARK    1  A    between atoms: O1_2  and  C2_3 
REMARK    2  A    between atoms: C2_3  and  C3_4 
REMARK    3  A    between atoms: C3_4  and  N1_5 
REMARK    4  A    between atoms: C3_4  and  C18_29 
REMARK       I    between atoms: N1_5  and  C4_6 
REMARK       I    between atoms: C4_6  and  N2_8 
REMARK    5  A    between atoms: N2_8  and  C5_9 
REMARK    6  A    between atoms: C8_15  and  O3_16 
REMARK    7  A    between atoms: O3_16  and  C9_17 
ROOT
HETATM    1  C9  UNL     1      -0.746  52.660 -25.399  1.00  0.00     0.130 C 
HETATM    2  C10 UNL     1      -0.561  52.246 -26.865  1.00  0.00     0.034 C 
HETATM    3  C11 UNL     1      -1.834  52.451 -27.687  1.00  0.00     0.021 C 
HETATM    4  C12 UNL     1      -3.060  51.763 -27.075  1.00  0.00     0.093 C 
HETATM    5  C13 UNL     1      -2.996  50.299 -27.260  1.00  0.00     0.064 C 
HETATM    6  N5  UNL     1      -2.946  49.148 -27.405  1.00  0.00    -0.197 NA
HETATM    7  C14 UNL     1      -3.218  52.124 -25.592  1.00  0.00     0.021 C 
HETATM    8  C15 UNL     1      -1.936  51.908 -24.788  1.00  0.00     0.034 C 
ENDROOT
BRANCH   1   9
HETATM    9  O3  UNL     1       0.464  52.316 -24.718  1.00  0.00    -0.329 OA
BRANCH   9  10
HETATM   10  C8  UNL     1       0.837  53.140 -23.713  1.00  0.00     0.171 A 
HETATM   11  N4  UNL     1       1.337  54.354 -23.951  1.00  0.00    -0.279 N 
HETATM   12  N3  UNL     1       1.567  54.838 -22.716  1.00  0.00    -0.298 N 
ATOM     13  H4  UNL     1       1.504  54.806 -24.851  1.00  0.00     0.189 HD
HETATM   14  C7  UNL     1       1.229  53.978 -21.707  1.00  0.00     0.067 A 
HETATM   15  H10 UNL     1       1.958  55.770 -22.628  1.00  0.00     0.187 HD
HETATM   16  C6  UNL     1       1.298  54.090 -20.318  1.00  0.00     0.080 A 
HETATM   17  C16 UNL     1       0.746  52.840 -22.339  1.00  0.00     0.060 A 
HETATM   18  C5  UNL     1       0.851  52.978 -19.611  1.00  0.00     0.111 A 
HETATM   19  N6  UNL     1       0.378  51.854 -20.200  1.00  0.00    -0.351 N 
HETATM   20  C17 UNL     1       0.320  51.770 -21.557  1.00  0.00     0.108 A 
ATOM     21  H6  UNL     1       0.066  51.071 -19.627  1.00  0.00     0.166 HD
BRANCH  18  22
HETATM   22  N2  UNL     1       0.827  52.910 -18.218  1.00  0.00    -0.295 N 
HETATM   23  C4  UNL     1       0.544  51.834 -17.423  1.00  0.00     0.322 C 
HETATM   24  N1  UNL     1       0.672  52.149 -16.090  1.00  0.00    -0.332 N 
HETATM   25  O2  UNL     1       0.207  50.719 -17.801  1.00  0.00    -0.247 OA
HETATM   26  H7  UNL     1       1.317  52.895 -15.868  1.00  0.00     0.165 HD
HETATM   27  H8  UNL     1       0.970  53.809 -17.787  1.00  0.00     0.172 HD
BRANCH  24  28
HETATM   28  C3  UNL     1       0.508  51.121 -15.063  1.00  0.00     0.143 C 
BRANCH  28  29
HETATM   29  C2  UNL     1      -0.442  51.591 -13.928  1.00  0.00     0.197 C 
BRANCH  29  30
HETATM   30  O1  UNL     1      -0.102  52.866 -13.372  1.00  0.00    -0.394 OA
HETATM   31  C1  UNL     1       0.506  52.772 -12.090  1.00  0.00     0.201 C 
ENDBRANCH  29  30
ENDBRANCH  28  29
BRANCH  28  32
HETATM   32  C18 UNL     1       1.890  50.685 -14.592  1.00  0.00    -0.033 A 
HETATM   33  C19 UNL     1       3.053  51.409 -14.897  1.00  0.00     0.009 A 
HETATM   34  C20 UNL     1       4.307  50.953 -14.483  1.00  0.00     0.001 A 
HETATM   35  C21 UNL     1       4.418  49.762 -13.768  1.00  0.00     0.000 A 
HETATM   36  C22 UNL     1       3.276  49.021 -13.472  1.00  0.00     0.001 A 
HETATM   37  C23 UNL     1       2.022  49.476 -13.884  1.00  0.00     0.009 A 
ENDBRANCH  28  32
ENDBRANCH  24  28
ENDBRANCH  18  22
ENDBRANCH   9  10
ENDBRANCH   1   9
TORSDOF 7
ENDMDL
MODEL 5
REMARK minimizedAffinity -8.57976151
REMARK  7 active torsions:
REMARK  status: ('A' for Active; 'I' for Inactive)
REMARK    1  A    between atoms: O1_2  and  C2_3 
REMARK    2  A    between atoms: C2_3  and  C3_4 
REMARK    3  A    between atoms: C3_4  and  N1_5 
REMARK    4  A    between atoms: C3_4  and  C18_29 
REMARK       I    between atoms: N1_5  and  C4_6 
REMARK       I    between atoms: C4_6  and  N2_8 
REMARK    5  A    between atoms: N2_8  and  C5_9 
REMARK    6  A    between atoms: C8_15  and  O3_16 
REMARK    7  A    between atoms: O3_16  and  C9_17 
ROOT
HETATM    1  C9  UNL     1      -0.851  51.118 -25.068  1.00  0.00     0.130 C 
HETATM    2  C10 UNL     1      -1.904  52.107 -25.587  1.00  0.00     0.034 C 
HETATM    3  C11 UNL     1      -1.777  52.348 -27.092  1.00  0.00     0.021 C 
HETATM    4  C12 UNL     1      -0.367  52.779 -27.513  1.00  0.00     0.093 C 
HETATM    5  C13 UNL     1      -0.097  54.175 -27.115  1.00  0.00     0.064 C 
HETATM    6  N5  UNL     1       0.117  55.272 -26.802  1.00  0.00    -0.197 NA
HETATM    7  C14 UNL     1       0.696  51.829 -26.948  1.00  0.00     0.021 C 
HETATM    8  C15 UNL     1       0.555  51.606 -25.443  1.00  0.00     0.034 C 
ENDROOT
BRANCH   1   9
HETATM    9  O3  UNL     1      -0.999  51.068 -23.646  1.00  0.00    -0.329 OA
BRANCH   9  10
HETATM   10  C8  UNL     1      -0.273  51.964 -22.940  1.00  0.00     0.171 A 
HETATM   11  N4  UNL     1       0.310  53.011 -23.527  1.00  0.00    -0.279 N 
HETATM   12  N3  UNL     1       0.912  53.641 -22.501  1.00  0.00    -0.298 N 
ATOM     13  H4  UNL     1       0.301  53.271 -24.514  1.00  0.00     0.189 HD
HETATM   14  C7  UNL     1       0.729  53.034 -21.288  1.00  0.00     0.067 A 
HETATM   15  H10 UNL     1       1.436  54.488 -22.695  1.00  0.00     0.187 HD
HETATM   16  C6  UNL     1       1.166  53.358 -20.003  1.00  0.00     0.080 A 
HETATM   17  C16 UNL     1      -0.050  51.915 -21.550  1.00  0.00     0.060 A 
HETATM   18  C5  UNL     1       0.767  52.477 -19.003  1.00  0.00     0.111 A 
HETATM   19  N6  UNL     1       0.011  51.376 -19.229  1.00  0.00    -0.351 N 
HETATM   20  C17 UNL     1      -0.403  51.083 -20.491  1.00  0.00     0.108 A 
ATOM     21  H6  UNL     1      -0.248  50.767 -18.453  1.00  0.00     0.166 HD
BRANCH  18  22
HETATM   22  N2  UNL     1       1.090  52.644 -17.657  1.00  0.00    -0.295 N 
HETATM   23  C4  UNL     1       0.589  51.979 -16.572  1.00  0.00     0.322 C 
HETATM   24  N1  UNL     1       1.196  52.391 -15.407  1.00  0.00    -0.332 N 
HETATM   25  O2  UNL     1      -0.291  51.127 -16.582  1.00  0.00    -0.247 OA
HETATM   26  H7  UNL     1       2.135  52.751 -15.498  1.00  0.00     0.165 HD
HETATM   27  H8  UNL     1       1.724  53.412 -17.505  1.00  0.00     0.172 HD
BRANCH  24  28
HETATM   28  C3  UNL     1       0.879  51.745 -14.134  1.00  0.00     0.143 C 
BRANCH  28  29
HETATM   29  C2  UNL     1       0.113  52.702 -13.180  1.00  0.00     0.197 C 
BRANCH  29  30
HETATM   30  O1  UNL     1      -1.272  52.378 -13.017  1.00  0.00    -0.394 OA
HETATM   31  C1  UNL     1      -1.483  51.200 -12.250  1.00  0.00     0.201 C 
ENDBRANCH  29  30
ENDBRANCH  28  29
BRANCH  28  32
HETATM   32  C18 UNL     1       2.165  51.169 -13.554  1.00  0.00    -0.033 A 
HETATM   33  C19 UNL     1       3.146  50.563 -14.353  1.00  0.00     0.009 A 
HETATM   34  C20 UNL     1       4.292  50.009 -13.778  1.00  0.00     0.001 A 
HETATM   35  C21 UNL     1       4.468  50.040 -12.396  1.00  0.00     0.000 A 
HETATM   36  C22 UNL     1       3.495  50.621 -11.586  1.00  0.00     0.001 A 
HETATM   37  C23 UNL     1       2.351  51.178 -12.159  1.00  0.00     0.009 A 
ENDBRANCH  28  32
ENDBRANCH  24  28
ENDBRANCH  18  22
ENDBRANCH   9  10
ENDBRANCH   1   9
TORSDOF 7
ENDMDL
MODEL 6
REMARK minimizedAffinity -8.5721035
REMARK  7 active torsions:
REMARK  status: ('A' for Active; 'I' for Inactive)
REMARK    1  A    between atoms: O1_2  and  C2_3 
REMARK    2  A    between atoms: C2_3  and  C3_4 
REMARK    3  A    between atoms: C3_4  and  N1_5 
REMARK    4  A    between atoms: C3_4  and  C18_29 
REMARK       I    between atoms: N1_5  and  C4_6 
REMARK       I    between atoms: C4_6  and  N2_8 
REMARK    5  A    between atoms: N2_8  and  C5_9 
REMARK    6  A    between atoms: C8_15  and  O3_16 
REMARK    7  A    between atoms: O3_16  and  C9_17 
ROOT
HETATM    1  C9  UNL     1       1.055  53.297 -25.841  1.00  0.00     0.130 C 
HETATM    2  C10 UNL     1       0.916  51.798 -25.546  1.00  0.00     0.034 C 
HETATM    3  C11 UNL     1       0.962  50.953 -26.819  1.00  0.00     0.021 C 
HETATM    4  C12 UNL     1      -0.059  51.399 -27.873  1.00  0.00     0.093 C 
HETATM    5  C13 UNL     1      -1.430  51.010 -27.484  1.00  0.00     0.064 C 
HETATM    6  N5  UNL     1      -2.507  50.705 -27.179  1.00  0.00    -0.197 NA
HETATM    7  C14 UNL     1       0.033  52.909 -28.131  1.00  0.00     0.021 C 
HETATM    8  C15 UNL     1      -0.020  53.735 -26.846  1.00  0.00     0.034 C 
ENDROOT
BRANCH   1   9
HETATM    9  O3  UNL     1       0.881  53.980 -24.597  1.00  0.00    -0.329 OA
BRANCH   9  10
HETATM   10  C8  UNL     1       0.268  53.281 -23.615  1.00  0.00     0.171 A 
HETATM   11  N4  UNL     1      -0.743  52.449 -23.874  1.00  0.00    -0.279 N 
HETATM   12  N3  UNL     1      -1.057  51.961 -22.659  1.00  0.00    -0.298 N 
ATOM     13  H4  UNL     1      -1.172  52.234 -24.774  1.00  0.00     0.189 HD
HETATM   14  C7  UNL     1      -0.282  52.452 -21.643  1.00  0.00     0.067 A 
HETATM   15  H10 UNL     1      -1.816  51.291 -22.589  1.00  0.00     0.187 HD
HETATM   16  C6  UNL     1      -0.273  52.205 -20.270  1.00  0.00     0.080 A 
HETATM   17  C16 UNL     1       0.603  53.334 -22.247  1.00  0.00     0.060 A 
HETATM   18  C5  UNL     1       0.685  52.910 -19.549  1.00  0.00     0.111 A 
HETATM   19  N6  UNL     1       1.559  53.779 -20.110  1.00  0.00    -0.351 N 
HETATM   20  C17 UNL     1       1.530  54.001 -21.452  1.00  0.00     0.108 A 
ATOM     21  H6  UNL     1       2.238  54.268 -19.527  1.00  0.00     0.166 HD
BRANCH  18  22
HETATM   22  N2  UNL     1       0.859  52.783 -18.171  1.00  0.00    -0.295 N 
HETATM   23  C4  UNL     1       0.405  51.793 -17.343  1.00  0.00     0.322 C 
HETATM   24  N1  UNL     1       0.824  51.993 -16.047  1.00  0.00    -0.332 N 
HETATM   25  O2  UNL     1      -0.293  50.839 -17.663  1.00  0.00    -0.247 OA
HETATM   26  H7  UNL     1       1.681  52.513 -15.931  1.00  0.00     0.165 HD
HETATM   27  H8  UNL     1       1.319  53.582 -17.765  1.00  0.00     0.172 HD
BRANCH  24  28
HETATM   28  C3  UNL     1       0.532  51.004 -15.010  1.00  0.00     0.143 C 
BRANCH  28  29
HETATM   29  C2  UNL     1      -0.390  51.587 -13.905  1.00  0.00     0.197 C 
BRANCH  29  30
HETATM   30  O1  UNL     1      -0.013  52.895 -13.460  1.00  0.00    -0.394 OA
HETATM   31  C1  UNL     1       0.090  52.995 -12.046  1.00  0.00     0.201 C 
ENDBRANCH  29  30
ENDBRANCH  28  29
BRANCH  28  32
HETATM   32  C18 UNL     1       1.851  50.437 -14.500  1.00  0.00    -0.033 A 
HETATM   33  C19 UNL     1       1.932  49.212 -13.821  1.00  0.00     0.009 A 
HETATM   34  C20 UNL     1       3.156  48.747 -13.332  1.00  0.00     0.001 A 
HETATM   35  C21 UNL     1       4.312  49.504 -13.504  1.00  0.00     0.000 A 
HETATM   36  C22 UNL     1       4.247  50.731 -14.160  1.00  0.00     0.001 A 
HETATM   37  C23 UNL     1       3.026  51.196 -14.651  1.00  0.00     0.009 A 
ENDBRANCH  28  32
ENDBRANCH  24  28
ENDBRANCH  18  22
ENDBRANCH   9  10
ENDBRANCH   1   9
TORSDOF 7
ENDMDL
MODEL 7
REMARK minimizedAffinity -8.57204437
REMARK  7 active torsions:
REMARK  status: ('A' for Active; 'I' for Inactive)
REMARK    1  A    between atoms: O1_2  and  C2_3 
REMARK    2  A    between atoms: C2_3  and  C3_4 
REMARK    3  A    between atoms: C3_4  and  N1_5 
REMARK    4  A    between atoms: C3_4  and  C18_29 
REMARK       I    between atoms: N1_5  and  C4_6 
REMARK       I    between atoms: C4_6  and  N2_8 
REMARK    5  A    between atoms: N2_8  and  C5_9 
REMARK    6  A    between atoms: C8_15  and  O3_16 
REMARK    7  A    between atoms: O3_16  and  C9_17 
ROOT
HETATM    1  C9  UNL     1      -1.195  51.707 -24.933  1.00  0.00     0.130 C 
HETATM    2  C10 UNL     1      -0.540  50.885 -26.052  1.00  0.00     0.034 C 
HETATM    3  C11 UNL     1      -1.137  51.199 -27.424  1.00  0.00     0.021 C 
HETATM    4  C12 UNL     1      -2.663  51.053 -27.461  1.00  0.00     0.093 C 
HETATM    5  C13 UNL     1      -3.062  49.631 -27.445  1.00  0.00     0.064 C 
HETATM    6  N5  UNL     1      -3.377  48.514 -27.432  1.00  0.00    -0.197 NA
HETATM    7  C14 UNL     1      -3.323  51.823 -26.310  1.00  0.00     0.021 C 
HETATM    8  C15 UNL     1      -2.714  51.492 -24.947  1.00  0.00     0.034 C 
ENDROOT
BRANCH   1   9
HETATM    9  O3  UNL     1      -0.637  51.244 -23.701  1.00  0.00    -0.329 OA
BRANCH   9  10
HETATM   10  C8  UNL     1       0.049  52.158 -22.977  1.00  0.00     0.171 A 
HETATM   11  N4  UNL     1       0.669  53.187 -23.556  1.00  0.00    -0.279 N 
HETATM   12  N3  UNL     1       1.212  53.844 -22.514  1.00  0.00    -0.298 N 
ATOM     13  H4  UNL     1       0.721  53.421 -24.549  1.00  0.00     0.189 HD
HETATM   14  C7  UNL     1       0.954  53.271 -21.297  1.00  0.00     0.067 A 
HETATM   15  H10 UNL     1       1.749  54.685 -22.699  1.00  0.00     0.187 HD
HETATM   16  C6  UNL     1       1.315  53.629 -19.998  1.00  0.00     0.080 A 
HETATM   17  C16 UNL     1       0.189  52.146 -21.575  1.00  0.00     0.060 A 
HETATM   18  C5  UNL     1       0.854  52.776 -19.000  1.00  0.00     0.111 A 
HETATM   19  N6  UNL     1       0.109  51.671 -19.241  1.00  0.00    -0.351 N 
HETATM   20  C17 UNL     1      -0.230  51.345 -20.517  1.00  0.00     0.108 A 
ATOM     21  H6  UNL     1      -0.198  51.084 -18.465  1.00  0.00     0.166 HD
BRANCH  18  22
HETATM   22  N2  UNL     1       1.098  52.979 -17.642  1.00  0.00    -0.295 N 
HETATM   23  C4  UNL     1       1.054  52.068 -16.623  1.00  0.00     0.322 C 
HETATM   24  N1  UNL     1       1.406  52.640 -15.423  1.00  0.00    -0.332 N 
HETATM   25  O2  UNL     1       0.739  50.888 -16.716  1.00  0.00    -0.247 OA
HETATM   26  H7  UNL     1       2.021  53.440 -15.474  1.00  0.00     0.165 HD
HETATM   27  H8  UNL     1       1.250  53.949 -17.419  1.00  0.00     0.172 HD
BRANCH  24  28
HETATM   28  C3  UNL     1       1.517  51.825 -14.214  1.00  0.00     0.143 C 
BRANCH  28  29
HETATM   29  C2  UNL     1       1.815  50.339 -14.550  1.00  0.00     0.197 C 
BRANCH  29  30
HETATM   30  O1  UNL     1       2.703  49.697 -13.628  1.00  0.00    -0.394 OA
HETATM   31  C1  UNL     1       4.063  50.067 -13.814  1.00  0.00     0.201 C 
ENDBRANCH  29  30
ENDBRANCH  28  29
BRANCH  28  32
HETATM   32  C18 UNL     1       0.270  52.046 -13.367  1.00  0.00    -0.033 A 
HETATM   33  C19 UNL     1      -0.982  51.518 -13.719  1.00  0.00     0.009 A 
HETATM   34  C20 UNL     1      -2.111  51.779 -12.938  1.00  0.00     0.001 A 
HETATM   35  C21 UNL     1      -2.008  52.579 -11.802  1.00  0.00     0.000 A 
HETATM   36  C22 UNL     1      -0.777  53.125 -11.448  1.00  0.00     0.001 A 
HETATM   37  C23 UNL     1       0.353  52.864 -12.225  1.00  0.00     0.009 A 
ENDBRANCH  28  32
ENDBRANCH  24  28
ENDBRANCH  18  22
ENDBRANCH   9  10
ENDBRANCH   1   9
TORSDOF 7
ENDMDL
MODEL 8
REMARK minimizedAffinity -8.45402813
REMARK  7 active torsions:
REMARK  status: ('A' for Active; 'I' for Inactive)
REMARK    1  A    between atoms: O1_2  and  C2_3 
REMARK    2  A    between atoms: C2_3  and  C3_4 
REMARK    3  A    between atoms: C3_4  and  N1_5 
REMARK    4  A    between atoms: C3_4  and  C18_29 
REMARK       I    between atoms: N1_5  and  C4_6 
REMARK       I    between atoms: C4_6  and  N2_8 
REMARK    5  A    between atoms: N2_8  and  C5_9 
REMARK    6  A    between atoms: C8_15  and  O3_16 
REMARK    7  A    between atoms: O3_16  and  C9_17 
ROOT
HETATM    1  C9  UNL     1       0.135  52.133 -22.238  1.00  0.00     0.130 C 
HETATM    2  C10 UNL     1       0.169  53.098 -21.045  1.00  0.00     0.034 C 
HETATM    3  C11 UNL     1       0.593  52.402 -19.752  1.00  0.00     0.021 C 
HETATM    4  C12 UNL     1      -0.256  51.165 -19.430  1.00  0.00     0.093 C 
HETATM    5  C13 UNL     1      -1.601  51.552 -18.959  1.00  0.00     0.064 C 
HETATM    6  N5  UNL     1      -2.659  51.854 -18.589  1.00  0.00    -0.197 NA
HETATM    7  C14 UNL     1      -0.345  50.224 -20.638  1.00  0.00     0.021 C 
HETATM    8  C15 UNL     1      -0.775  50.938 -21.919  1.00  0.00     0.034 C 
ENDROOT
BRANCH   1   9
HETATM    9  O3  UNL     1      -0.382  52.870 -23.350  1.00  0.00    -0.329 OA
BRANCH   9  10
HETATM   10  C8  UNL     1      -0.277  52.274 -24.559  1.00  0.00     0.171 A 
HETATM   11  N4  UNL     1       0.908  52.064 -25.136  1.00  0.00    -0.279 N 
HETATM   12  N3  UNL     1       0.582  51.459 -26.293  1.00  0.00    -0.298 N 
ATOM     13  H4  UNL     1       1.836  52.302 -24.784  1.00  0.00     0.189 HD
HETATM   14  C7  UNL     1      -0.764  51.277 -26.469  1.00  0.00     0.067 A 
HETATM   15  H10 UNL     1       1.329  51.192 -26.926  1.00  0.00     0.187 HD
HETATM   16  C6  UNL     1      -1.504  50.698 -27.500  1.00  0.00     0.080 A 
HETATM   17  C16 UNL     1      -1.359  51.813 -25.336  1.00  0.00     0.060 A 
HETATM   18  C5  UNL     1      -2.882  50.699 -27.313  1.00  0.00     0.111 A 
HETATM   19  N6  UNL     1      -3.491  51.218 -26.220  1.00  0.00    -0.351 N 
HETATM   20  C17 UNL     1      -2.746  51.776 -25.227  1.00  0.00     0.108 A 
ATOM     21  H6  UNL     1      -4.507  51.190 -26.141  1.00  0.00     0.166 HD
BRANCH  18  22
HETATM   22  N2  UNL     1      -3.783  50.150 -28.225  1.00  0.00    -0.295 N 
HETATM   23  C4  UNL     1      -4.543  49.021 -28.096  1.00  0.00     0.322 C 
HETATM   24  N1  UNL     1      -5.351  48.832 -29.194  1.00  0.00    -0.332 N 
HETATM   25  O2  UNL     1      -4.535  48.241 -27.151  1.00  0.00    -0.247 OA
HETATM   26  H7  UNL     1      -5.611  49.665 -29.704  1.00  0.00     0.165 HD
HETATM   27  H8  UNL     1      -3.787  50.641 -29.104  1.00  0.00     0.172 HD
BRANCH  24  28
HETATM   28  C3  UNL     1      -6.317  47.735 -29.228  1.00  0.00     0.143 C 
BRANCH  28  29
HETATM   29  C2  UNL     1      -6.565  47.146 -27.813  1.00  0.00     0.197 C 
BRANCH  29  30
HETATM   30  O1  UNL     1      -7.942  47.131 -27.420  1.00  0.00    -0.394 OA
HETATM   31  C1  UNL     1      -8.248  46.093 -26.497  1.00  0.00     0.201 C 
ENDBRANCH  29  30
ENDBRANCH  28  29
BRANCH  28  32
HETATM   32  C18 UNL     1      -5.855  46.718 -30.265  1.00  0.00    -0.033 A 
HETATM   33  C19 UNL     1      -4.779  46.963 -31.132  1.00  0.00     0.009 A 
HETATM   34  C20 UNL     1      -4.413  46.022 -32.098  1.00  0.00     0.001 A 
HETATM   35  C21 UNL     1      -5.123  44.830 -32.220  1.00  0.00     0.000 A 
HETATM   36  C22 UNL     1      -6.205  44.578 -31.379  1.00  0.00     0.001 A 
HETATM   37  C23 UNL     1      -6.571  45.516 -30.412  1.00  0.00     0.009 A 
ENDBRANCH  28  32
ENDBRANCH  24  28
ENDBRANCH  18  22
ENDBRANCH   9  10
ENDBRANCH   1   9
TORSDOF 7
ENDMDL
MODEL 9
REMARK minimizedAffinity -8.43335724
REMARK  7 active torsions:
REMARK  status: ('A' for Active; 'I' for Inactive)
REMARK    1  A    between atoms: O1_2  and  C2_3 
REMARK    2  A    between atoms: C2_3  and  C3_4 
REMARK    3  A    between atoms: C3_4  and  N1_5 
REMARK    4  A    between atoms: C3_4  and  C18_29 
REMARK       I    between atoms: N1_5  and  C4_6 
REMARK       I    between atoms: C4_6  and  N2_8 
REMARK    5  A    between atoms: N2_8  and  C5_9 
REMARK    6  A    between atoms: C8_15  and  O3_16 
REMARK    7  A    between atoms: O3_16  and  C9_17 
ROOT
HETATM    1  C9  UNL     1      -0.014  51.676 -24.362  1.00  0.00     0.130 C 
HETATM    2  C10 UNL     1      -1.167  51.512 -25.362  1.00  0.00     0.034 C 
HETATM    3  C11 UNL     1      -0.719  50.821 -26.650  1.00  0.00     0.021 C 
HETATM    4  C12 UNL     1       0.484  51.506 -27.311  1.00  0.00     0.093 C 
HETATM    5  C13 UNL     1       0.087  52.777 -27.951  1.00  0.00     0.064 C 
HETATM    6  N5  UNL     1      -0.223  53.775 -28.454  1.00  0.00    -0.197 NA
HETATM    7  C14 UNL     1       1.619  51.728 -26.303  1.00  0.00     0.021 C 
HETATM    8  C15 UNL     1       1.151  52.424 -25.025  1.00  0.00     0.034 C 
ENDROOT
BRANCH   1   9
HETATM    9  O3  UNL     1      -0.528  52.429 -23.261  1.00  0.00    -0.329 OA
BRANCH   9  10
HETATM   10  C8  UNL     1      -0.594  51.781 -22.075  1.00  0.00     0.171 A 
HETATM   11  N4  UNL     1      -1.187  50.592 -21.960  1.00  0.00    -0.279 N 
HETATM   12  N3  UNL     1      -1.034  50.299 -20.654  1.00  0.00    -0.298 N 
ATOM     13  H4  UNL     1      -1.646  50.038 -22.684  1.00  0.00     0.189 HD
HETATM   14  C7  UNL     1      -0.363  51.257 -19.942  1.00  0.00     0.067 A 
HETATM   15  H10 UNL     1      -1.411  49.423 -20.308  1.00  0.00     0.187 HD
HETATM   16  C6  UNL     1       0.005  51.338 -18.599  1.00  0.00     0.080 A 
HETATM   17  C16 UNL     1      -0.064  52.255 -20.858  1.00  0.00     0.060 A 
HETATM   18  C5  UNL     1       0.692  52.494 -18.243  1.00  0.00     0.111 A 
HETATM   19  N6  UNL     1       0.995  53.486 -19.114  1.00  0.00    -0.351 N 
HETATM   20  C17 UNL     1       0.626  53.381 -20.419  1.00  0.00     0.108 A 
ATOM     21  H6  UNL     1       1.501  54.311 -18.791  1.00  0.00     0.166 HD
BRANCH  18  22
HETATM   22  N2  UNL     1       1.156  52.747 -16.952  1.00  0.00    -0.295 N 
HETATM   23  C4  UNL     1       1.003  51.984 -15.827  1.00  0.00     0.322 C 
HETATM   24  N1  UNL     1       1.649  52.545 -14.750  1.00  0.00    -0.332 N 
HETATM   25  O2  UNL     1       0.373  50.937 -15.738  1.00  0.00    -0.247 OA
HETATM   26  H7  UNL     1       2.444  53.130 -14.963  1.00  0.00     0.165 HD
HETATM   27  H8  UNL     1       1.591  53.651 -16.870  1.00  0.00     0.172 HD
BRANCH  24  28
HETATM   28  C3  UNL     1       1.695  51.848 -13.465  1.00  0.00     0.143 C 
BRANCH  28  29
HETATM   29  C2  UNL     1       1.873  50.317 -13.649  1.00  0.00     0.197 C 
BRANCH  29  30
HETATM   30  O1  UNL     1       2.992  49.769 -12.942  1.00  0.00    -0.394 OA
HETATM   31  C1  UNL     1       4.160  49.661 -13.745  1.00  0.00     0.201 C 
ENDBRANCH  29  30
ENDBRANCH  28  29
BRANCH  28  32
HETATM   32  C18 UNL     1       0.469  52.251 -12.655  1.00  0.00    -0.033 A 
HETATM   33  C19 UNL     1      -0.797  51.687 -12.874  1.00  0.00     0.009 A 
HETATM   34  C20 UNL     1      -1.905  52.114 -12.138  1.00  0.00     0.001 A 
HETATM   35  C21 UNL     1      -1.767  53.117 -11.182  1.00  0.00     0.000 A 
HETATM   36  C22 UNL     1      -0.522  53.701 -10.964  1.00  0.00     0.001 A 
HETATM   37  C23 UNL     1       0.588  53.275 -11.696  1.00  0.00     0.009 A 
ENDBRANCH  28  32
ENDBRANCH  24  28
ENDBRANCH  18  22
ENDBRANCH   9  10
ENDBRANCH   1   9
TORSDOF 7
ENDMDL
