MODEL 1
REMARK minimizedAffinity -8.07399464
REMARK  7 active torsions:
REMARK  status: ('A' for Active; 'I' for Inactive)
REMARK    1  A    between atoms: O1_2  and  C2_3 
REMARK    2  A    between atoms: C2_3  and  C3_4 
REMARK    3  A    between atoms: C3_4  and  O2_5 
REMARK    4  A    between atoms: O2_5  and  C4_6 
REMARK    5  A    between atoms: C7_12  and  N3_13 
REMARK       I    between atoms: N3_13  and  C8_14 
REMARK       I    between atoms: C8_14  and  N4_16 
REMARK    6  A    between atoms: N4_16  and  C9_17 
REMARK    7  A    between atoms: C9_17  and  C10_18 
ROOT
HETATM    1  C4  UNL     1      -0.001  53.731 -25.494  1.00  0.00     0.171 A 
HETATM    2  N1  UNL     1       0.414  54.958 -25.812  1.00  0.00    -0.279 N 
ATOM      3  H1  UNL     1       0.320  55.448 -26.702  1.00  0.00     0.189 HD
HETATM    4  N2  UNL     1       0.989  55.392 -24.675  1.00  0.00    -0.298 N 
HETATM    5  C5  UNL     1       0.941  54.490 -23.645  1.00  0.00     0.067 A 
HETATM    6  C6  UNL     1       1.403  54.544 -22.330  1.00  0.00     0.080 A 
HETATM    7  C7  UNL     1       1.166  53.402 -21.574  1.00  0.00     0.111 A 
HETATM    8  N5  UNL     1       0.528  52.305 -22.047  1.00  0.00    -0.351 N 
ATOM      9  H5  UNL     1       0.377  51.500 -21.439  1.00  0.00     0.166 HD
HETATM   10  C16 UNL     1       0.089  52.276 -23.334  1.00  0.00     0.108 A 
HETATM   11  C17 UNL     1       0.289  53.378 -24.162  1.00  0.00     0.060 A 
HETATM   12  H8  UNL     1       1.397  56.321 -24.665  1.00  0.00     0.187 HD
ENDROOT
BRANCH   7  13
HETATM   13  N3  UNL     1       1.548  53.271 -20.238  1.00  0.00    -0.295 N 
HETATM   14  C8  UNL     1       0.785  52.895 -19.168  1.00  0.00     0.322 C 
HETATM   15  O3  UNL     1      -0.411  52.635 -19.179  1.00  0.00    -0.247 OA
HETATM   16  N4  UNL     1       1.536  52.850 -18.013  1.00  0.00    -0.339 N 
HETATM   17  H11 UNL     1       2.512  52.624 -18.134  1.00  0.00     0.164 HD
HETATM   18  H10 UNL     1       2.479  53.618 -20.068  1.00  0.00     0.172 HD
BRANCH  16  19
HETATM   19  C9  UNL     1       0.925  52.394 -16.786  1.00  0.00     0.162 C 
BRANCH  19  20
HETATM   20  C10 UNL     1       1.956  51.787 -15.872  1.00  0.00    -0.040 A 
HETATM   21  C11 UNL     1       1.599  50.789 -14.952  1.00  0.00     0.012 A 
HETATM   22  C12 UNL     1       2.565  50.216 -14.123  1.00  0.00     0.043 A 
HETATM   23  C13 UNL     1       3.888  50.635 -14.219  1.00  0.00     0.116 A 
HETATM   24  F1  UNL     1       4.814  50.082 -13.425  1.00  0.00    -0.206 F 
HETATM   25  C14 UNL     1       4.264  51.615 -15.129  1.00  0.00     0.043 A 
HETATM   26  C15 UNL     1       3.300  52.189 -15.959  1.00  0.00     0.012 A 
ENDBRANCH  19  20
ENDBRANCH  16  19
ENDBRANCH   7  13
BRANCH   1  27
HETATM   27  O2  UNL     1      -0.648  52.951 -26.389  1.00  0.00    -0.332 OA
BRANCH  27  28
HETATM   28  C3  UNL     1      -0.214  53.074 -27.745  1.00  0.00     0.203 C 
BRANCH  28  29
HETATM   29  C2  UNL     1       0.951  52.129 -28.054  1.00  0.00     0.193 C 
BRANCH  29  30
HETATM   30  O1  UNL     1       1.188  51.198 -26.995  1.00  0.00    -0.394 OA
HETATM   31  C1  UNL     1       2.510  51.268 -26.479  1.00  0.00     0.201 C 
ENDBRANCH  29  30
ENDBRANCH  28  29
ENDBRANCH  27  28
ENDBRANCH   1  27
TORSDOF 7
ENDMDL
MODEL 2
REMARK minimizedAffinity -7.87392139
REMARK  7 active torsions:
REMARK  status: ('A' for Active; 'I' for Inactive)
REMARK    1  A    between atoms: O1_2  and  C2_3 
REMARK    2  A    between atoms: C2_3  and  C3_4 
REMARK    3  A    between atoms: C3_4  and  O2_5 
REMARK    4  A    between atoms: O2_5  and  C4_6 
REMARK    5  A    between atoms: C7_12  and  N3_13 
REMARK       I    between atoms: N3_13  and  C8_14 
REMARK       I    between atoms: C8_14  and  N4_16 
REMARK    6  A    between atoms: N4_16  and  C9_17 
REMARK    7  A    between atoms: C9_17  and  C10_18 
ROOT
HETATM    1  C4  UNL     1       0.066  53.705 -26.047  1.00  0.00     0.171 A 
HETATM    2  N1  UNL     1       0.254  54.995 -26.329  1.00  0.00    -0.279 N 
ATOM      3  H1  UNL     1       0.103  55.479 -27.214  1.00  0.00     0.189 HD
HETATM    4  N2  UNL     1       0.693  55.504 -25.162  1.00  0.00    -0.298 N 
HETATM    5  C5  UNL     1       0.776  54.585 -24.149  1.00  0.00     0.067 A 
HETATM    6  C6  UNL     1       1.168  54.695 -22.815  1.00  0.00     0.080 A 
HETATM    7  C7  UNL     1       1.122  53.512 -22.087  1.00  0.00     0.111 A 
HETATM    8  N5  UNL     1       0.721  52.325 -22.603  1.00  0.00    -0.351 N 
ATOM      9  H5  UNL     1       0.701  51.493 -22.014  1.00  0.00     0.166 HD
HETATM   10  C16 UNL     1       0.345  52.244 -23.907  1.00  0.00     0.108 A 
HETATM   11  C17 UNL     1       0.366  53.382 -24.709  1.00  0.00     0.060 A 
HETATM   12  H8  UNL     1       0.918  56.492 -25.120  1.00  0.00     0.187 HD
ENDROOT
BRANCH   7  13
HETATM   13  N3  UNL     1       1.471  53.424 -20.739  1.00  0.00    -0.295 N 
HETATM   14  C8  UNL     1       0.698  53.021 -19.684  1.00  0.00     0.322 C 
HETATM   15  O3  UNL     1      -0.480  52.693 -19.726  1.00  0.00    -0.247 OA
HETATM   16  N4  UNL     1       1.415  53.039 -18.507  1.00  0.00    -0.339 N 
HETATM   17  H11 UNL     1       2.406  52.867 -18.596  1.00  0.00     0.164 HD
HETATM   18  H10 UNL     1       2.374  53.827 -20.547  1.00  0.00     0.172 HD
BRANCH  16  19
HETATM   19  C9  UNL     1       0.794  52.567 -17.291  1.00  0.00     0.162 C 
BRANCH  19  20
HETATM   20  C10 UNL     1       1.831  52.032 -16.339  1.00  0.00    -0.040 A 
HETATM   21  C11 UNL     1       1.485  51.084 -15.363  1.00  0.00     0.012 A 
HETATM   22  C12 UNL     1       2.456  50.577 -14.498  1.00  0.00     0.043 A 
HETATM   23  C13 UNL     1       3.772  51.011 -14.612  1.00  0.00     0.116 A 
HETATM   24  F1  UNL     1       4.703  50.522 -13.782  1.00  0.00    -0.206 F 
HETATM   25  C14 UNL     1       4.137  51.942 -15.576  1.00  0.00     0.043 A 
HETATM   26  C15 UNL     1       3.168  52.451 -16.442  1.00  0.00     0.012 A 
ENDBRANCH  19  20
ENDBRANCH  16  19
ENDBRANCH   7  13
BRANCH   1  27
HETATM   27  O2  UNL     1      -0.389  52.839 -26.980  1.00  0.00    -0.332 OA
BRANCH  27  28
HETATM   28  C3  UNL     1      -1.216  51.781 -26.489  1.00  0.00     0.203 C 
BRANCH  28  29
HETATM   29  C2  UNL     1      -2.695  52.177 -26.478  1.00  0.00     0.193 C 
BRANCH  29  30
HETATM   30  O1  UNL     1      -3.124  52.632 -25.193  1.00  0.00    -0.394 OA
HETATM   31  C1  UNL     1      -4.265  51.937 -24.709  1.00  0.00     0.201 C 
ENDBRANCH  29  30
ENDBRANCH  28  29
ENDBRANCH  27  28
ENDBRANCH   1  27
TORSDOF 7
ENDMDL
MODEL 3
REMARK minimizedAffinity -7.40786076
REMARK  7 active torsions:
REMARK  status: ('A' for Active; 'I' for Inactive)
REMARK    1  A    between atoms: O1_2  and  C2_3 
REMARK    2  A    between atoms: C2_3  and  C3_4 
REMARK    3  A    between atoms: C3_4  and  O2_5 
REMARK    4  A    between atoms: O2_5  and  C4_6 
REMARK    5  A    between atoms: C7_12  and  N3_13 
REMARK       I    between atoms: N3_13  and  C8_14 
REMARK       I    between atoms: C8_14  and  N4_16 
REMARK    6  A    between atoms: N4_16  and  C9_17 
REMARK    7  A    between atoms: C9_17  and  C10_18 
ROOT
HETATM    1  C4  UNL     1      -0.826  53.284 -26.136  1.00  0.00     0.171 A 
HETATM    2  N1  UNL     1      -2.100  53.015 -26.423  1.00  0.00    -0.279 N 
ATOM      3  H1  UNL     1      -2.585  53.122 -27.314  1.00  0.00     0.189 HD
HETATM    4  N2  UNL     1      -2.591  52.569 -25.251  1.00  0.00    -0.298 N 
HETATM    5  C5  UNL     1      -1.671  52.535 -24.237  1.00  0.00     0.067 A 
HETATM    6  C6  UNL     1      -1.763  52.143 -22.902  1.00  0.00     0.080 A 
HETATM    7  C7  UNL     1      -0.587  52.259 -22.170  1.00  0.00     0.111 A 
HETATM    8  N5  UNL     1       0.581  52.708 -22.689  1.00  0.00    -0.351 N 
ATOM      9  H5  UNL     1       1.413  52.763 -22.101  1.00  0.00     0.166 HD
HETATM   10  C16 UNL     1       0.644  53.086 -23.993  1.00  0.00     0.108 A 
HETATM   11  C17 UNL     1      -0.490  53.005 -24.797  1.00  0.00     0.060 A 
HETATM   12  H8  UNL     1      -3.568  52.300 -25.209  1.00  0.00     0.187 HD
ENDROOT
BRANCH   7  13
HETATM   13  N3  UNL     1      -0.481  51.911 -20.823  1.00  0.00    -0.295 N 
HETATM   14  C8  UNL     1       0.333  52.452 -19.866  1.00  0.00     0.322 C 
HETATM   15  O3  UNL     1       1.165  53.334 -20.029  1.00  0.00    -0.247 OA
HETATM   16  N4  UNL     1       0.120  51.860 -18.639  1.00  0.00    -0.339 N 
HETATM   17  H11 UNL     1      -0.815  51.517 -18.476  1.00  0.00     0.164 HD
HETATM   18  H10 UNL     1      -1.002  51.078 -20.598  1.00  0.00     0.172 HD
BRANCH  16  19
HETATM   19  C9  UNL     1       0.829  52.351 -17.481  1.00  0.00     0.162 C 
BRANCH  19  20
HETATM   20  C10 UNL     1       1.028  51.251 -16.473  1.00  0.00    -0.040 A 
HETATM   21  C11 UNL     1       1.861  51.441 -15.359  1.00  0.00     0.012 A 
HETATM   22  C12 UNL     1       2.023  50.424 -14.419  1.00  0.00     0.043 A 
HETATM   23  C13 UNL     1       1.348  49.219 -14.586  1.00  0.00     0.116 A 
HETATM   24  F1  UNL     1       1.504  48.245 -13.680  1.00  0.00    -0.206 F 
HETATM   25  C14 UNL     1       0.513  49.013 -15.676  1.00  0.00     0.043 A 
HETATM   26  C15 UNL     1       0.349  50.029 -16.619  1.00  0.00     0.012 A 
ENDBRANCH  19  20
ENDBRANCH  16  19
ENDBRANCH   7  13
BRANCH   1  27
HETATM   27  O2  UNL     1       0.024  53.757 -27.075  1.00  0.00    -0.332 OA
BRANCH  27  28
HETATM   28  C3  UNL     1       0.121  52.979 -28.270  1.00  0.00     0.203 C 
BRANCH  28  29
HETATM   29  C2  UNL     1       1.175  51.876 -28.143  1.00  0.00     0.193 C 
BRANCH  29  30
HETATM   30  O1  UNL     1       2.208  52.219 -27.216  1.00  0.00    -0.394 OA
HETATM   31  C1  UNL     1       2.554  51.149 -26.347  1.00  0.00     0.201 C 
ENDBRANCH  29  30
ENDBRANCH  28  29
ENDBRANCH  27  28
ENDBRANCH   1  27
TORSDOF 7
ENDMDL
MODEL 4
REMARK minimizedAffinity -7.40587711
REMARK  7 active torsions:
REMARK  status: ('A' for Active; 'I' for Inactive)
REMARK    1  A    between atoms: O1_2  and  C2_3 
REMARK    2  A    between atoms: C2_3  and  C3_4 
REMARK    3  A    between atoms: C3_4  and  O2_5 
REMARK    4  A    between atoms: O2_5  and  C4_6 
REMARK    5  A    between atoms: C7_12  and  N3_13 
REMARK       I    between atoms: N3_13  and  C8_14 
REMARK       I    between atoms: C8_14  and  N4_16 
REMARK    6  A    between atoms: N4_16  and  C9_17 
REMARK    7  A    between atoms: C9_17  and  C10_18 
ROOT
HETATM    1  C4  UNL     1       0.589  53.262 -23.806  1.00  0.00     0.171 A 
HETATM    2  N1  UNL     1       1.235  54.399 -24.067  1.00  0.00    -0.279 N 
ATOM      3  H1  UNL     1       1.388  54.848 -24.969  1.00  0.00     0.189 HD
HETATM    4  N2  UNL     1       1.636  54.810 -22.849  1.00  0.00    -0.298 N 
HETATM    5  C5  UNL     1       1.257  53.980 -21.826  1.00  0.00     0.067 A 
HETATM    6  C6  UNL     1       1.458  54.041 -20.448  1.00  0.00     0.080 A 
HETATM    7  C7  UNL     1       0.913  52.987 -19.724  1.00  0.00     0.111 A 
HETATM    8  N5  UNL     1       0.224  51.965 -20.287  1.00  0.00    -0.351 N 
ATOM      9  H5  UNL     1      -0.159  51.223 -19.701  1.00  0.00     0.166 HD
HETATM   10  C16 UNL     1       0.043  51.928 -21.634  1.00  0.00     0.108 A 
HETATM   11  C17 UNL     1       0.561  52.944 -22.434  1.00  0.00     0.060 A 
HETATM   12  H8  UNL     1       2.167  55.672 -22.781  1.00  0.00     0.187 HD
ENDROOT
BRANCH   7  13
HETATM   13  N3  UNL     1       1.006  52.876 -18.337  1.00  0.00    -0.295 N 
HETATM   14  C8  UNL     1       0.648  51.822 -17.541  1.00  0.00     0.322 C 
HETATM   15  O3  UNL     1       0.134  50.774 -17.907  1.00  0.00    -0.247 OA
HETATM   16  N4  UNL     1       0.928  52.082 -16.217  1.00  0.00    -0.339 N 
HETATM   17  H11 UNL     1       1.713  52.693 -16.047  1.00  0.00     0.164 HD
HETATM   18  H10 UNL     1       1.265  53.745 -17.897  1.00  0.00     0.172 HD
BRANCH  16  19
HETATM   19  C9  UNL     1       0.697  51.054 -15.228  1.00  0.00     0.162 C 
BRANCH  19  20
HETATM   20  C10 UNL     1      -0.533  51.365 -14.417  1.00  0.00    -0.040 A 
HETATM   21  C11 UNL     1      -1.793  50.893 -14.818  1.00  0.00     0.012 A 
HETATM   22  C12 UNL     1      -2.925  51.168 -14.050  1.00  0.00     0.043 A 
HETATM   23  C13 UNL     1      -2.799  51.906 -12.878  1.00  0.00     0.116 A 
HETATM   24  F1  UNL     1      -3.886  52.166 -12.141  1.00  0.00    -0.206 F 
HETATM   25  C14 UNL     1      -1.560  52.375 -12.460  1.00  0.00     0.043 A 
HETATM   26  C15 UNL     1      -0.426  52.103 -13.227  1.00  0.00     0.012 A 
ENDBRANCH  19  20
ENDBRANCH  16  19
ENDBRANCH   7  13
BRANCH   1  27
HETATM   27  O2  UNL     1       0.019  52.532 -24.791  1.00  0.00    -0.332 OA
BRANCH  27  28
HETATM   28  C3  UNL     1       0.920  51.769 -25.596  1.00  0.00     0.203 C 
BRANCH  28  29
HETATM   29  C2  UNL     1       1.017  52.324 -27.020  1.00  0.00     0.193 C 
BRANCH  29  30
HETATM   30  O1  UNL     1       0.524  53.662 -27.113  1.00  0.00    -0.394 OA
HETATM   31  C1  UNL     1      -0.604  53.782 -27.970  1.00  0.00     0.201 C 
ENDBRANCH  29  30
ENDBRANCH  28  29
ENDBRANCH  27  28
ENDBRANCH   1  27
TORSDOF 7
ENDMDL
MODEL 5
REMARK minimizedAffinity -7.34543371
REMARK  7 active torsions:
REMARK  status: ('A' for Active; 'I' for Inactive)
REMARK    1  A    between atoms: O1_2  and  C2_3 
REMARK    2  A    between atoms: C2_3  and  C3_4 
REMARK    3  A    between atoms: C3_4  and  O2_5 
REMARK    4  A    between atoms: O2_5  and  C4_6 
REMARK    5  A    between atoms: C7_12  and  N3_13 
REMARK       I    between atoms: N3_13  and  C8_14 
REMARK       I    between atoms: C8_14  and  N4_16 
REMARK    6  A    between atoms: N4_16  and  C9_17 
REMARK    7  A    between atoms: C9_17  and  C10_18 
ROOT
HETATM    1  C4  UNL     1      -4.040  52.158 -24.635  1.00  0.00     0.171 A 
HETATM    2  N1  UNL     1      -5.336  51.965 -24.388  1.00  0.00    -0.279 N 
ATOM      3  H1  UNL     1      -6.132  52.148 -24.999  1.00  0.00     0.189 HD
HETATM    4  N2  UNL     1      -5.340  51.469 -23.136  1.00  0.00    -0.298 N 
HETATM    5  C5  UNL     1      -4.092  51.331 -22.587  1.00  0.00     0.067 A 
HETATM    6  C6  UNL     1      -3.662  50.860 -21.346  1.00  0.00     0.080 A 
HETATM    7  C7  UNL     1      -2.286  50.879 -21.152  1.00  0.00     0.111 A 
HETATM    8  N5  UNL     1      -1.400  51.307 -22.084  1.00  0.00    -0.351 N 
ATOM      9  H5  UNL     1      -0.400  51.288 -21.885  1.00  0.00     0.166 HD
HETATM   10  C16 UNL     1      -1.846  51.762 -23.286  1.00  0.00     0.108 A 
HETATM   11  C17 UNL     1      -3.211  51.781 -23.560  1.00  0.00     0.060 A 
HETATM   12  H8  UNL     1      -6.232  51.241 -22.710  1.00  0.00     0.187 HD
ENDROOT
BRANCH   7  13
HETATM   13  N3  UNL     1      -1.668  50.444 -19.980  1.00  0.00    -0.295 N 
HETATM   14  C8  UNL     1      -1.559  51.097 -18.783  1.00  0.00     0.322 C 
HETATM   15  O3  UNL     1      -1.959  52.225 -18.527  1.00  0.00    -0.247 OA
HETATM   16  N4  UNL     1      -0.905  50.320 -17.851  1.00  0.00    -0.339 N 
HETATM   17  H11 UNL     1      -1.017  49.323 -17.956  1.00  0.00     0.164 HD
HETATM   18  H10 UNL     1      -1.152  49.588 -20.111  1.00  0.00     0.172 HD
BRANCH  16  19
HETATM   19  C9  UNL     1      -0.763  50.804 -16.497  1.00  0.00     0.162 C 
BRANCH  19  20
HETATM   20  C10 UNL     1       0.642  51.287 -16.251  1.00  0.00    -0.040 A 
HETATM   21  C11 UNL     1       1.239  52.221 -17.112  1.00  0.00     0.012 A 
HETATM   22  C12 UNL     1       2.534  52.680 -16.864  1.00  0.00     0.043 A 
HETATM   23  C13 UNL     1       3.228  52.212 -15.754  1.00  0.00     0.116 A 
HETATM   24  F1  UNL     1       4.469  52.656 -15.517  1.00  0.00    -0.206 F 
HETATM   25  C14 UNL     1       2.651  51.295 -14.884  1.00  0.00     0.043 A 
HETATM   26  C15 UNL     1       1.357  50.834 -15.130  1.00  0.00     0.012 A 
ENDBRANCH  19  20
ENDBRANCH  16  19
ENDBRANCH   7  13
BRANCH   1  27
HETATM   27  O2  UNL     1      -3.613  52.651 -25.819  1.00  0.00    -0.332 OA
BRANCH  27  28
HETATM   28  C3  UNL     1      -3.088  51.688 -26.735  1.00  0.00     0.203 C 
BRANCH  28  29
HETATM   29  C2  UNL     1      -1.730  52.121 -27.295  1.00  0.00     0.193 C 
BRANCH  29  30
HETATM   30  O1  UNL     1      -1.363  53.435 -26.869  1.00  0.00    -0.394 OA
HETATM   31  C1  UNL     1      -0.131  53.876 -27.422  1.00  0.00     0.201 C 
ENDBRANCH  29  30
ENDBRANCH  28  29
ENDBRANCH  27  28
ENDBRANCH   1  27
TORSDOF 7
ENDMDL
MODEL 6
REMARK minimizedAffinity -7.27022219
REMARK  7 active torsions:
REMARK  status: ('A' for Active; 'I' for Inactive)
REMARK    1  A    between atoms: O1_2  and  C2_3 
REMARK    2  A    between atoms: C2_3  and  C3_4 
REMARK    3  A    between atoms: C3_4  and  O2_5 
REMARK    4  A    between atoms: O2_5  and  C4_6 
REMARK    5  A    between atoms: C7_12  and  N3_13 
REMARK       I    between atoms: N3_13  and  C8_14 
REMARK       I    between atoms: C8_14  and  N4_16 
REMARK    6  A    between atoms: N4_16  and  C9_17 
REMARK    7  A    between atoms: C9_17  and  C10_18 
ROOT
HETATM    1  C4  UNL     1      -6.221  47.532 -28.085  1.00  0.00     0.171 A 
HETATM    2  N1  UNL     1      -7.326  47.426 -27.345  1.00  0.00    -0.279 N 
ATOM      3  H1  UNL     1      -8.247  47.091 -27.627  1.00  0.00     0.189 HD
HETATM    4  N2  UNL     1      -6.929  47.866 -26.136  1.00  0.00    -0.298 N 
HETATM    5  C5  UNL     1      -5.611  48.236 -26.081  1.00  0.00     0.067 A 
HETATM    6  C6  UNL     1      -4.820  48.729 -25.044  1.00  0.00     0.080 A 
HETATM    7  C7  UNL     1      -3.499  48.998 -25.386  1.00  0.00     0.111 A 
HETATM    8  N5  UNL     1      -2.986  48.797 -26.624  1.00  0.00    -0.351 N 
ATOM      9  H5  UNL     1      -2.006  49.006 -26.810  1.00  0.00     0.166 HD
HETATM   10  C16 UNL     1      -3.780  48.316 -27.618  1.00  0.00     0.108 A 
HETATM   11  C17 UNL     1      -5.117  48.025 -27.361  1.00  0.00     0.060 A 
HETATM   12  H8  UNL     1      -7.609  47.889 -25.384  1.00  0.00     0.187 HD
ENDROOT
BRANCH   7  13
HETATM   13  N3  UNL     1      -2.556  49.491 -24.484  1.00  0.00    -0.295 N 
HETATM   14  C8  UNL     1      -1.835  50.651 -24.556  1.00  0.00     0.322 C 
HETATM   15  O3  UNL     1      -1.858  51.470 -25.465  1.00  0.00    -0.247 OA
HETATM   16  N4  UNL     1      -1.027  50.804 -23.449  1.00  0.00    -0.339 N 
HETATM   17  H11 UNL     1      -1.372  50.390 -22.596  1.00  0.00     0.164 HD
HETATM   18  H10 UNL     1      -2.323  48.823 -23.766  1.00  0.00     0.172 HD
BRANCH  16  19
HETATM   19  C9  UNL     1      -0.247  52.011 -23.301  1.00  0.00     0.162 C 
BRANCH  19  20
HETATM   20  C10 UNL     1       0.090  52.251 -21.853  1.00  0.00    -0.040 A 
HETATM   21  C11 UNL     1       0.887  53.343 -21.475  1.00  0.00     0.012 A 
HETATM   22  C12 UNL     1       1.177  53.571 -20.130  1.00  0.00     0.043 A 
HETATM   23  C13 UNL     1       0.666  52.713 -19.161  1.00  0.00     0.116 A 
HETATM   24  F1  UNL     1       0.945  52.936 -17.870  1.00  0.00    -0.206 F 
HETATM   25  C14 UNL     1      -0.131  51.632 -19.514  1.00  0.00     0.043 A 
HETATM   26  C15 UNL     1      -0.423  51.401 -20.859  1.00  0.00     0.012 A 
ENDBRANCH  19  20
ENDBRANCH  16  19
ENDBRANCH   7  13
BRANCH   1  27
HETATM   27  O2  UNL     1      -6.207  47.173 -29.388  1.00  0.00    -0.332 OA
BRANCH  27  28
HETATM   28  C3  UNL     1      -6.423  48.232 -30.323  1.00  0.00     0.203 C 
BRANCH  28  29
HETATM   29  C2  UNL     1      -5.330  48.272 -31.396  1.00  0.00     0.193 C 
BRANCH  29  30
HETATM   30  O1  UNL     1      -4.380  47.215 -31.238  1.00  0.00    -0.394 OA
HETATM   31  C1  UNL     1      -4.376  46.303 -32.328  1.00  0.00     0.201 C 
ENDBRANCH  29  30
ENDBRANCH  28  29
ENDBRANCH  27  28
ENDBRANCH   1  27
TORSDOF 7
ENDMDL
MODEL 7
REMARK minimizedAffinity -7.26267195
REMARK  7 active torsions:
REMARK  status: ('A' for Active; 'I' for Inactive)
REMARK    1  A    between atoms: O1_2  and  C2_3 
REMARK    2  A    between atoms: C2_3  and  C3_4 
REMARK    3  A    between atoms: C3_4  and  O2_5 
REMARK    4  A    between atoms: O2_5  and  C4_6 
REMARK    5  A    between atoms: C7_12  and  N3_13 
REMARK       I    between atoms: N3_13  and  C8_14 
REMARK       I    between atoms: C8_14  and  N4_16 
REMARK    6  A    between atoms: N4_16  and  C9_17 
REMARK    7  A    between atoms: C9_17  and  C10_18 
ROOT
HETATM    1  C4  UNL     1       0.947  51.472 -15.646  1.00  0.00     0.171 A 
HETATM    2  N1  UNL     1       1.824  52.443 -15.390  1.00  0.00    -0.279 N 
ATOM      3  H1  UNL     1       2.321  52.636 -14.520  1.00  0.00     0.189 HD
HETATM    4  N2  UNL     1       1.894  53.109 -16.559  1.00  0.00    -0.298 N 
HETATM    5  C5  UNL     1       1.103  52.586 -17.548  1.00  0.00     0.067 A 
HETATM    6  C6  UNL     1       0.892  52.961 -18.874  1.00  0.00     0.080 A 
HETATM    7  C7  UNL     1      -0.009  52.168 -19.576  1.00  0.00     0.111 A 
HETATM    8  N5  UNL     1      -0.644  51.098 -19.041  1.00  0.00    -0.351 N 
ATOM      9  H5  UNL     1      -1.289  50.550 -19.610  1.00  0.00     0.166 HD
HETATM   10  C16 UNL     1      -0.422  50.754 -17.744  1.00  0.00     0.108 A 
HETATM   11  C17 UNL     1       0.463  51.498 -16.969  1.00  0.00     0.060 A 
HETATM   12  H8  UNL     1       2.506  53.916 -16.618  1.00  0.00     0.187 HD
ENDROOT
BRANCH   7  13
HETATM   13  N3  UNL     1      -0.344  52.383 -20.913  1.00  0.00    -0.295 N 
HETATM   14  C8  UNL     1      -0.636  51.457 -21.876  1.00  0.00     0.322 C 
HETATM   15  O3  UNL     1      -0.619  50.240 -21.748  1.00  0.00    -0.247 OA
HETATM   16  N4  UNL     1      -0.953  52.066 -23.071  1.00  0.00    -0.339 N 
HETATM   17  H11 UNL     1      -1.380  52.977 -22.998  1.00  0.00     0.164 HD
HETATM   18  H10 UNL     1      -0.231  53.345 -21.189  1.00  0.00     0.172 HD
BRANCH  16  19
HETATM   19  C9  UNL     1      -1.371  51.256 -24.191  1.00  0.00     0.162 C 
BRANCH  19  20
HETATM   20  C10 UNL     1      -0.442  51.445 -25.361  1.00  0.00    -0.040 A 
HETATM   21  C11 UNL     1       0.908  51.772 -25.157  1.00  0.00     0.012 A 
HETATM   22  C12 UNL     1       1.768  51.926 -26.245  1.00  0.00     0.043 A 
HETATM   23  C13 UNL     1       1.283  51.745 -27.536  1.00  0.00     0.116 A 
HETATM   24  F1  UNL     1       2.111  51.890 -28.578  1.00  0.00    -0.206 F 
HETATM   25  C14 UNL     1      -0.048  51.412 -27.759  1.00  0.00     0.043 A 
HETATM   26  C15 UNL     1      -0.910  51.259 -26.672  1.00  0.00     0.012 A 
ENDBRANCH  19  20
ENDBRANCH  16  19
ENDBRANCH   7  13
BRANCH   1  27
HETATM   27  O2  UNL     1       0.605  50.564 -14.704  1.00  0.00    -0.332 OA
BRANCH  27  28
HETATM   28  C3  UNL     1       0.707  51.011 -13.350  1.00  0.00     0.203 C 
BRANCH  28  29
HETATM   29  C2  UNL     1      -0.671  51.182 -12.704  1.00  0.00     0.193 C 
BRANCH  29  30
HETATM   30  O1  UNL     1      -1.484  52.124 -13.407  1.00  0.00    -0.394 OA
HETATM   31  C1  UNL     1      -2.864  52.019 -13.084  1.00  0.00     0.201 C 
ENDBRANCH  29  30
ENDBRANCH  28  29
ENDBRANCH  27  28
ENDBRANCH   1  27
TORSDOF 7
ENDMDL
MODEL 8
REMARK minimizedAffinity -7.26211596
REMARK  7 active torsions:
REMARK  status: ('A' for Active; 'I' for Inactive)
REMARK    1  A    between atoms: O1_2  and  C2_3 
REMARK    2  A    between atoms: C2_3  and  C3_4 
REMARK    3  A    between atoms: C3_4  and  O2_5 
REMARK    4  A    between atoms: O2_5  and  C4_6 
REMARK    5  A    between atoms: C7_12  and  N3_13 
REMARK       I    between atoms: N3_13  and  C8_14 
REMARK       I    between atoms: C8_14  and  N4_16 
REMARK    6  A    between atoms: N4_16  and  C9_17 
REMARK    7  A    between atoms: C9_17  and  C10_18 
ROOT
HETATM    1  C4  UNL     1       8.894  61.888 -33.855  1.00  0.00     0.171 A 
HETATM    2  N1  UNL     1       8.610  60.590 -33.970  1.00  0.00    -0.279 N 
ATOM      3  H1  UNL     1       9.218  59.791 -33.796  1.00  0.00     0.189 HD
HETATM    4  N2  UNL     1       7.324  60.592 -34.371  1.00  0.00    -0.298 N 
HETATM    5  C5  UNL     1       6.782  61.844 -34.502  1.00  0.00     0.067 A 
HETATM    6  C6  UNL     1       5.512  62.279 -34.879  1.00  0.00     0.080 A 
HETATM    7  C7  UNL     1       5.341  63.658 -34.897  1.00  0.00     0.111 A 
HETATM    8  N5  UNL     1       6.315  64.541 -34.569  1.00  0.00    -0.351 N 
ATOM      9  H5  UNL     1       6.126  65.543 -34.594  1.00  0.00     0.166 HD
HETATM   10  C16 UNL     1       7.546  64.091 -34.206  1.00  0.00     0.108 A 
HETATM   11  C17 UNL     1       7.802  62.723 -34.166  1.00  0.00     0.060 A 
HETATM   12  H8  UNL     1       6.870  59.701 -34.538  1.00  0.00     0.187 HD
ENDROOT
BRANCH   7  13
HETATM   13  N3  UNL     1       4.142  64.281 -35.243  1.00  0.00    -0.295 N 
HETATM   14  C8  UNL     1       3.927  65.592 -35.569  1.00  0.00     0.322 C 
HETATM   15  O3  UNL     1       4.761  66.487 -35.581  1.00  0.00    -0.247 OA
HETATM   16  N4  UNL     1       2.603  65.815 -35.885  1.00  0.00    -0.339 N 
HETATM   17  H11 UNL     1       2.112  65.031 -36.288  1.00  0.00     0.164 HD
HETATM   18  H10 UNL     1       3.343  63.681 -35.109  1.00  0.00     0.172 HD
BRANCH  16  19
HETATM   19  C9  UNL     1       2.193  67.124 -36.337  1.00  0.00     0.162 C 
BRANCH  19  20
HETATM   20  C10 UNL     1       2.086  67.158 -37.839  1.00  0.00    -0.040 A 
HETATM   21  C11 UNL     1       0.923  66.711 -38.485  1.00  0.00     0.012 A 
HETATM   22  C12 UNL     1       0.824  66.766 -39.876  1.00  0.00     0.043 A 
HETATM   23  C13 UNL     1       1.883  67.273 -40.621  1.00  0.00     0.116 A 
HETATM   24  F1  UNL     1       1.784  67.327 -41.955  1.00  0.00    -0.206 F 
HETATM   25  C14 UNL     1       3.040  67.728 -40.000  1.00  0.00     0.043 A 
HETATM   26  C15 UNL     1       3.142  67.674 -38.610  1.00  0.00     0.012 A 
ENDBRANCH  19  20
ENDBRANCH  16  19
ENDBRANCH   7  13
BRANCH   1  27
HETATM   27  O2  UNL     1      10.115  62.310 -33.457  1.00  0.00    -0.332 OA
BRANCH  27  28
HETATM   28  C3  UNL     1      10.677  63.381 -34.220  1.00  0.00     0.203 C 
BRANCH  28  29
HETATM   29  C2  UNL     1      11.749  62.881 -35.193  1.00  0.00     0.193 C 
BRANCH  29  30
HETATM   30  O1  UNL     1      13.067  63.250 -34.781  1.00  0.00    -0.394 OA
HETATM   31  C1  UNL     1      14.015  63.201 -35.839  1.00  0.00     0.201 C 
ENDBRANCH  29  30
ENDBRANCH  28  29
ENDBRANCH  27  28
ENDBRANCH   1  27
TORSDOF 7
ENDMDL
MODEL 9
REMARK minimizedAffinity -7.25350666
REMARK  7 active torsions:
REMARK  status: ('A' for Active; 'I' for Inactive)
REMARK    1  A    between atoms: O1_2  and  C2_3 
REMARK    2  A    between atoms: C2_3  and  C3_4 
REMARK    3  A    between atoms: C3_4  and  O2_5 
REMARK    4  A    between atoms: O2_5  and  C4_6 
REMARK    5  A    between atoms: C7_12  and  N3_13 
REMARK       I    between atoms: N3_13  and  C8_14 
REMARK       I    between atoms: C8_14  and  N4_16 
REMARK    6  A    between atoms: N4_16  and  C9_17 
REMARK    7  A    between atoms: C9_17  and  C10_18 
ROOT
HETATM    1  C4  UNL     1       0.493  52.643 -24.172  1.00  0.00     0.171 A 
HETATM    2  N1  UNL     1       0.961  53.683 -24.863  1.00  0.00    -0.279 N 
ATOM      3  H1  UNL     1       1.699  54.337 -24.603  1.00  0.00     0.189 HD
HETATM    4  N2  UNL     1       0.221  53.661 -25.989  1.00  0.00    -0.298 N 
HETATM    5  C5  UNL     1      -0.689  52.638 -26.039  1.00  0.00     0.067 A 
HETATM    6  C6  UNL     1      -1.622  52.262 -27.004  1.00  0.00     0.080 A 
HETATM    7  C7  UNL     1      -2.385  51.145 -26.684  1.00  0.00     0.111 A 
HETATM    8  N5  UNL     1      -2.250  50.446 -25.531  1.00  0.00    -0.351 N 
ATOM      9  H5  UNL     1      -2.835  49.629 -25.358  1.00  0.00     0.166 HD
HETATM   10  C16 UNL     1      -1.333  50.835 -24.605  1.00  0.00     0.108 A 
HETATM   11  C17 UNL     1      -0.530  51.947 -24.845  1.00  0.00     0.060 A 
HETATM   12  H8  UNL     1       0.388  54.375 -26.689  1.00  0.00     0.187 HD
ENDROOT
BRANCH   7  13
HETATM   13  N3  UNL     1      -3.364  50.615 -27.525  1.00  0.00    -0.295 N 
HETATM   14  C8  UNL     1      -3.715  49.305 -27.703  1.00  0.00     0.322 C 
HETATM   15  O3  UNL     1      -3.196  48.332 -27.172  1.00  0.00    -0.247 OA
HETATM   16  N4  UNL     1      -4.757  49.186 -28.598  1.00  0.00    -0.339 N 
HETATM   17  H11 UNL     1      -5.397  49.965 -28.629  1.00  0.00     0.164 HD
HETATM   18  H10 UNL     1      -3.755  51.307 -28.145  1.00  0.00     0.172 HD
BRANCH  16  19
HETATM   19  C9  UNL     1      -5.325  47.884 -28.856  1.00  0.00     0.162 C 
BRANCH  19  20
HETATM   20  C10 UNL     1      -6.175  47.912 -30.099  1.00  0.00    -0.040 A 
HETATM   21  C11 UNL     1      -7.472  48.447 -30.067  1.00  0.00     0.012 A 
HETATM   22  C12 UNL     1      -8.246  48.489 -31.228  1.00  0.00     0.043 A 
HETATM   23  C13 UNL     1      -7.721  48.004 -32.422  1.00  0.00     0.116 A 
HETATM   24  F1  UNL     1      -8.464  48.048 -33.535  1.00  0.00    -0.206 F 
HETATM   25  C14 UNL     1      -6.436  47.479 -32.476  1.00  0.00     0.043 A 
HETATM   26  C15 UNL     1      -5.660  47.435 -31.316  1.00  0.00     0.012 A 
ENDBRANCH  19  20
ENDBRANCH  16  19
ENDBRANCH   7  13
BRANCH   1  27
HETATM   27  O2  UNL     1       0.996  52.319 -22.960  1.00  0.00    -0.332 OA
BRANCH  27  28
HETATM   28  C3  UNL     1       0.386  52.970 -21.843  1.00  0.00     0.203 C 
BRANCH  28  29
HETATM   29  C2  UNL     1       1.398  53.806 -21.053  1.00  0.00     0.193 C 
BRANCH  29  30
HETATM   30  O1  UNL     1       1.474  53.408 -19.682  1.00  0.00    -0.394 OA
HETATM   31  C1  UNL     1       0.210  53.066 -19.131  1.00  0.00     0.201 C 
ENDBRANCH  29  30
ENDBRANCH  28  29
ENDBRANCH  27  28
ENDBRANCH   1  27
TORSDOF 7
ENDMDL
