MODEL 1
REMARK minimizedAffinity -8.44064045
REMARK  9 active torsions:
REMARK  status: ('A' for Active; 'I' for Inactive)
REMARK    1  A    between atoms: O1_2  and  C2_3 
REMARK    2  A    between atoms: C2_3  and  C3_4 
REMARK    3  A    between atoms: C3_4  and  O2_5 
REMARK    4  A    between atoms: O2_5  and  C4_6 
REMARK    5  A    between atoms: C7_12  and  N3_13 
REMARK       I    between atoms: N3_13  and  C8_14 
REMARK       I    between atoms: C8_14  and  N4_16 
REMARK    6  A    between atoms: N4_16  and  C9_17 
REMARK    7  A    between atoms: N5_21  and  C13_22 
REMARK    8  A    between atoms: C13_22  and  C14_23 
REMARK    9  A    between atoms: C19_29  and  O4_30 
ROOT
HETATM    1  N3  UNL     1       0.097  51.866 -18.921  1.00  0.00    -0.295 N 
HETATM    2  C8  UNL     1       0.825  52.185 -17.807  1.00  0.00     0.322 C 
HETATM    3  O3  UNL     1       1.803  52.919 -17.767  1.00  0.00    -0.247 OA
HETATM    4  N4  UNL     1       0.323  51.551 -16.689  1.00  0.00    -0.337 N 
HETATM    5  H10 UNL     1      -0.567  51.110 -18.864  1.00  0.00     0.172 HD
HETATM    6  H11 UNL     1      -0.663  51.337 -16.725  1.00  0.00     0.164 HD
ENDROOT
BRANCH   1   7
HETATM    7  C7  UNL     1       0.273  52.321 -20.228  1.00  0.00     0.111 A 
HETATM    8  C6  UNL     1       0.920  53.511 -20.544  1.00  0.00     0.080 A 
HETATM    9  C5  UNL     1       1.012  53.791 -21.908  1.00  0.00     0.067 A 
HETATM   10  N2  UNL     1       1.574  54.835 -22.594  1.00  0.00    -0.298 N 
HETATM   11  C23 UNL     1       0.489  52.948 -22.879  1.00  0.00     0.060 A 
HETATM   12  N1  UNL     1       1.462  54.733 -23.933  1.00  0.00    -0.279 N 
HETATM   13  H8  UNL     1       2.054  55.640 -22.207  1.00  0.00     0.187 HD
HETATM   14  C4  UNL     1       0.802  53.584 -24.095  1.00  0.00     0.171 A 
ATOM     15  H1  UNL     1       1.799  55.377 -24.649  1.00  0.00     0.189 HD
HETATM   16  C22 UNL     1      -0.155  51.782 -22.476  1.00  0.00     0.108 A 
HETATM   17  N6  UNL     1      -0.257  51.483 -21.153  1.00  0.00    -0.351 N 
ATOM     18  H6  UNL     1      -0.732  50.631 -20.857  1.00  0.00     0.166 HD
BRANCH  14  19
HETATM   19  O2  UNL     1       0.486  53.123 -25.326  1.00  0.00    -0.332 OA
BRANCH  19  20
HETATM   20  C3  UNL     1       0.172  54.144 -26.278  1.00  0.00     0.203 C 
BRANCH  20  21
HETATM   21  C2  UNL     1      -0.552  53.505 -27.467  1.00  0.00     0.193 C 
BRANCH  21  22
HETATM   22  O1  UNL     1      -1.976  53.462 -27.323  1.00  0.00    -0.394 OA
HETATM   23  C1  UNL     1      -2.488  52.157 -27.087  1.00  0.00     0.201 C 
ENDBRANCH  21  22
ENDBRANCH  20  21
ENDBRANCH  19  20
ENDBRANCH  14  19
ENDBRANCH   1   7
BRANCH   4  24
HETATM   24  C9  UNL     1       0.881  51.818 -15.363  1.00  0.00     0.114 C 
HETATM   25  C10 UNL     1       2.067  50.878 -15.098  1.00  0.00     0.029 C 
HETATM   26  C11 UNL     1       2.223  50.527 -13.618  1.00  0.00     0.032 C 
HETATM   27  C12 UNL     1       1.746  51.663 -12.718  1.00  0.00     0.273 C 
HETATM   28  N5  UNL     1       0.327  51.992 -12.902  1.00  0.00     0.094 N 
HETATM   29  C21 UNL     1      -0.181  51.684 -14.251  1.00  0.00     0.297 C 
BRANCH  28  30
HETATM   30  C13 UNL     1      -0.554  51.409 -11.876  1.00  0.00     0.317 C 
BRANCH  30  31
HETATM   31  C14 UNL     1      -1.653  52.340 -11.416  1.00  0.00     0.042 A 
HETATM   32  C15 UNL     1      -2.970  52.089 -11.826  1.00  0.00     0.127 A 
HETATM   33  F1  UNL     1      -3.244  51.022 -12.591  1.00  0.00    -0.205 F 
HETATM   34  C16 UNL     1      -4.025  52.909 -11.438  1.00  0.00     0.043 A 
HETATM   35  C17 UNL     1      -3.775  54.006 -10.621  1.00  0.00     0.006 A 
HETATM   36  C18 UNL     1      -2.472  54.272 -10.192  1.00  0.00     0.037 A 
HETATM   37  C19 UNL     1      -1.406  53.448 -10.583  1.00  0.00     0.079 A 
BRANCH  37  38
HETATM   38  O4  UNL     1      -0.103  53.637 -10.199  1.00  0.00    -0.355 OA
HETATM   39  C20 UNL     1       0.520  54.861 -10.571  1.00  0.00     0.210 C 
ENDBRANCH  37  38
ENDBRANCH  30  31
ENDBRANCH  28  30
ENDBRANCH   4  24
TORSDOF 9
ENDMDL
MODEL 2
REMARK minimizedAffinity -8.36921024
REMARK  9 active torsions:
REMARK  status: ('A' for Active; 'I' for Inactive)
REMARK    1  A    between atoms: O1_2  and  C2_3 
REMARK    2  A    between atoms: C2_3  and  C3_4 
REMARK    3  A    between atoms: C3_4  and  O2_5 
REMARK    4  A    between atoms: O2_5  and  C4_6 
REMARK    5  A    between atoms: C7_12  and  N3_13 
REMARK       I    between atoms: N3_13  and  C8_14 
REMARK       I    between atoms: C8_14  and  N4_16 
REMARK    6  A    between atoms: N4_16  and  C9_17 
REMARK    7  A    between atoms: N5_21  and  C13_22 
REMARK    8  A    between atoms: C13_22  and  C14_23 
REMARK    9  A    between atoms: C19_29  and  O4_30 
ROOT
HETATM    1  N3  UNL     1       0.154  51.923 -18.715  1.00  0.00    -0.295 N 
HETATM    2  C8  UNL     1       0.887  52.228 -17.600  1.00  0.00     0.322 C 
HETATM    3  O3  UNL     1       1.867  52.962 -17.556  1.00  0.00    -0.247 OA
HETATM    4  N4  UNL     1       0.389  51.583 -16.488  1.00  0.00    -0.337 N 
HETATM    5  H10 UNL     1      -0.510  51.168 -18.664  1.00  0.00     0.172 HD
HETATM    6  H11 UNL     1      -0.597  51.370 -16.522  1.00  0.00     0.164 HD
ENDROOT
BRANCH   1   7
HETATM    7  C7  UNL     1       0.326  52.392 -20.017  1.00  0.00     0.111 A 
HETATM    8  C6  UNL     1       1.049  53.538 -20.330  1.00  0.00     0.080 A 
HETATM    9  C5  UNL     1       1.122  53.841 -21.690  1.00  0.00     0.067 A 
HETATM   10  N2  UNL     1       1.740  54.855 -22.372  1.00  0.00    -0.298 N 
HETATM   11  C23 UNL     1       0.511  53.060 -22.661  1.00  0.00     0.060 A 
HETATM   12  N1  UNL     1       1.582  54.792 -23.709  1.00  0.00    -0.279 N 
HETATM   13  H8  UNL     1       2.288  55.615 -21.984  1.00  0.00     0.187 HD
HETATM   14  C4  UNL     1       0.835  53.697 -23.873  1.00  0.00     0.171 A 
ATOM     15  H1  UNL     1       1.945  55.425 -24.422  1.00  0.00     0.189 HD
HETATM   16  C22 UNL     1      -0.205  51.935 -22.262  1.00  0.00     0.108 A 
HETATM   17  N6  UNL     1      -0.291  51.616 -20.942  1.00  0.00    -0.351 N 
ATOM     18  H6  UNL     1      -0.819  50.794 -20.649  1.00  0.00     0.166 HD
BRANCH  14  19
HETATM   19  O2  UNL     1       0.450  53.288 -25.103  1.00  0.00    -0.332 OA
BRANCH  19  20
HETATM   20  C3  UNL     1       0.553  51.877 -25.316  1.00  0.00     0.203 C 
BRANCH  20  21
HETATM   21  C2  UNL     1       1.906  51.572 -25.966  1.00  0.00     0.193 C 
BRANCH  21  22
HETATM   22  O1  UNL     1       2.135  52.284 -27.189  1.00  0.00    -0.394 OA
HETATM   23  C1  UNL     1       1.318  51.846 -28.266  1.00  0.00     0.201 C 
ENDBRANCH  21  22
ENDBRANCH  20  21
ENDBRANCH  19  20
ENDBRANCH  14  19
ENDBRANCH   1   7
BRANCH   4  24
HETATM   24  C9  UNL     1       0.953  51.835 -15.161  1.00  0.00     0.114 C 
HETATM   25  C10 UNL     1       2.118  50.868 -14.898  1.00  0.00     0.029 C 
HETATM   26  C11 UNL     1       2.266  50.510 -13.419  1.00  0.00     0.032 C 
HETATM   27  C12 UNL     1       1.813  51.655 -12.516  1.00  0.00     0.273 C 
HETATM   28  N5  UNL     1       0.403  52.015 -12.700  1.00  0.00     0.094 N 
HETATM   29  C21 UNL     1      -0.112  51.721 -14.049  1.00  0.00     0.297 C 
BRANCH  28  30
HETATM   30  C13 UNL     1      -0.492  51.448 -11.675  1.00  0.00     0.317 C 
BRANCH  30  31
HETATM   31  C14 UNL     1      -1.680  52.325 -11.352  1.00  0.00     0.042 A 
HETATM   32  C15 UNL     1      -1.467  53.531 -10.671  1.00  0.00     0.127 A 
HETATM   33  F1  UNL     1      -0.222  53.905 -10.338  1.00  0.00    -0.205 F 
HETATM   34  C16 UNL     1      -2.518  54.382 -10.343  1.00  0.00     0.043 A 
HETATM   35  C17 UNL     1      -3.816  54.034 -10.700  1.00  0.00     0.006 A 
HETATM   36  C18 UNL     1      -4.053  52.841 -11.388  1.00  0.00     0.037 A 
HETATM   37  C19 UNL     1      -2.996  51.981 -11.717  1.00  0.00     0.079 A 
BRANCH  37  38
HETATM   38  O4  UNL     1      -3.145  50.800 -12.397  1.00  0.00    -0.355 OA
HETATM   39  C20 UNL     1      -3.820  49.739 -11.731  1.00  0.00     0.210 C 
ENDBRANCH  37  38
ENDBRANCH  30  31
ENDBRANCH  28  30
ENDBRANCH   4  24
TORSDOF 9
ENDMDL
MODEL 3
REMARK minimizedAffinity -8.35044861
REMARK  9 active torsions:
REMARK  status: ('A' for Active; 'I' for Inactive)
REMARK    1  A    between atoms: O1_2  and  C2_3 
REMARK    2  A    between atoms: C2_3  and  C3_4 
REMARK    3  A    between atoms: C3_4  and  O2_5 
REMARK    4  A    between atoms: O2_5  and  C4_6 
REMARK    5  A    between atoms: C7_12  and  N3_13 
REMARK       I    between atoms: N3_13  and  C8_14 
REMARK       I    between atoms: C8_14  and  N4_16 
REMARK    6  A    between atoms: N4_16  and  C9_17 
REMARK    7  A    between atoms: N5_21  and  C13_22 
REMARK    8  A    between atoms: C13_22  and  C14_23 
REMARK    9  A    between atoms: C19_29  and  O4_30 
ROOT
HETATM    1  N3  UNL     1       1.206  53.092 -17.795  1.00  0.00    -0.295 N 
HETATM    2  C8  UNL     1       1.020  52.202 -16.771  1.00  0.00     0.322 C 
HETATM    3  O3  UNL     1       0.522  51.087 -16.862  1.00  0.00    -0.247 OA
HETATM    4  N4  UNL     1       1.463  52.725 -15.574  1.00  0.00    -0.337 N 
HETATM    5  H10 UNL     1       1.452  54.042 -17.570  1.00  0.00     0.172 HD
HETATM    6  H11 UNL     1       2.201  53.409 -15.653  1.00  0.00     0.164 HD
ENDROOT
BRANCH   1   7
HETATM    7  C7  UNL     1       0.912  52.925 -19.148  1.00  0.00     0.111 A 
HETATM    8  C6  UNL     1       0.125  51.889 -19.640  1.00  0.00     0.080 A 
HETATM    9  C5  UNL     1      -0.069  51.896 -21.021  1.00  0.00     0.067 A 
HETATM   10  N2  UNL     1      -0.776  51.069 -21.852  1.00  0.00    -0.298 N 
HETATM   11  C23 UNL     1       0.489  52.862 -21.847  1.00  0.00     0.060 A 
HETATM   12  N1  UNL     1      -0.725  51.424 -23.152  1.00  0.00    -0.279 N 
HETATM   13  H8  UNL     1      -1.319  50.252 -21.594  1.00  0.00     0.187 HD
HETATM   14  C4  UNL     1       0.045  52.514 -23.137  1.00  0.00     0.171 A 
ATOM     15  H1  UNL     1      -1.168  50.971 -23.951  1.00  0.00     0.189 HD
HETATM   16  C22 UNL     1       1.276  53.858 -21.275  1.00  0.00     0.108 A 
HETATM   17  N6  UNL     1       1.480  53.875 -19.931  1.00  0.00    -0.351 N 
ATOM     18  H6  UNL     1       2.059  54.603 -19.512  1.00  0.00     0.166 HD
BRANCH  14  19
HETATM   19  O2  UNL     1       0.344  53.179 -24.275  1.00  0.00    -0.332 OA
BRANCH  19  20
HETATM   20  C3  UNL     1      -0.393  52.747 -25.424  1.00  0.00     0.203 C 
BRANCH  20  21
HETATM   21  C2  UNL     1       0.528  52.789 -26.647  1.00  0.00     0.193 C 
BRANCH  21  22
HETATM   22  O1  UNL     1       1.916  52.627 -26.332  1.00  0.00    -0.394 OA
HETATM   23  C1  UNL     1       2.373  51.285 -26.432  1.00  0.00     0.201 C 
ENDBRANCH  21  22
ENDBRANCH  20  21
ENDBRANCH  19  20
ENDBRANCH  14  19
ENDBRANCH   1   7
BRANCH   4  24
HETATM   24  C9  UNL     1       1.456  51.915 -14.356  1.00  0.00     0.114 C 
HETATM   25  C10 UNL     1       1.979  50.503 -14.665  1.00  0.00     0.029 C 
HETATM   26  C11 UNL     1       1.347  49.431 -13.776  1.00  0.00     0.032 C 
HETATM   27  C12 UNL     1       0.984  49.985 -12.401  1.00  0.00     0.273 C 
HETATM   28  N5  UNL     1       0.011  51.082 -12.455  1.00  0.00     0.094 N 
HETATM   29  C21 UNL     1       0.053  51.849 -13.713  1.00  0.00     0.297 C 
BRANCH  28  30
HETATM   30  C13 UNL     1      -1.370  50.664 -12.156  1.00  0.00     0.317 C 
BRANCH  30  31
HETATM   31  C14 UNL     1      -2.216  51.755 -11.539  1.00  0.00     0.042 A 
HETATM   32  C15 UNL     1      -3.166  52.407 -12.335  1.00  0.00     0.127 A 
HETATM   33  F1  UNL     1      -3.334  52.045 -13.616  1.00  0.00    -0.205 F 
HETATM   34  C16 UNL     1      -3.974  53.420 -11.827  1.00  0.00     0.043 A 
HETATM   35  C17 UNL     1      -3.843  53.797 -10.496  1.00  0.00     0.006 A 
HETATM   36  C18 UNL     1      -2.909  53.155  -9.679  1.00  0.00     0.037 A 
HETATM   37  C19 UNL     1      -2.091  52.136 -10.189  1.00  0.00     0.079 A 
BRANCH  37  38
HETATM   38  O4  UNL     1      -1.158  51.453  -9.451  1.00  0.00    -0.355 OA
HETATM   39  C20 UNL     1      -1.623  50.707  -8.333  1.00  0.00     0.210 C 
ENDBRANCH  37  38
ENDBRANCH  30  31
ENDBRANCH  28  30
ENDBRANCH   4  24
TORSDOF 9
ENDMDL
MODEL 4
REMARK minimizedAffinity -8.2772646
REMARK  9 active torsions:
REMARK  status: ('A' for Active; 'I' for Inactive)
REMARK    1  A    between atoms: O1_2  and  C2_3 
REMARK    2  A    between atoms: C2_3  and  C3_4 
REMARK    3  A    between atoms: C3_4  and  O2_5 
REMARK    4  A    between atoms: O2_5  and  C4_6 
REMARK    5  A    between atoms: C7_12  and  N3_13 
REMARK       I    between atoms: N3_13  and  C8_14 
REMARK       I    between atoms: C8_14  and  N4_16 
REMARK    6  A    between atoms: N4_16  and  C9_17 
REMARK    7  A    between atoms: N5_21  and  C13_22 
REMARK    8  A    between atoms: C13_22  and  C14_23 
REMARK    9  A    between atoms: C19_29  and  O4_30 
ROOT
HETATM    1  N3  UNL     1      -6.780  48.178 -29.254  1.00  0.00    -0.295 N 
HETATM    2  C8  UNL     1      -5.582  48.097 -28.597  1.00  0.00     0.322 C 
HETATM    3  O3  UNL     1      -4.495  47.841 -29.100  1.00  0.00    -0.247 OA
HETATM    4  N4  UNL     1      -5.741  48.333 -27.247  1.00  0.00    -0.337 N 
HETATM    5  H10 UNL     1      -7.627  48.210 -28.712  1.00  0.00     0.172 HD
HETATM    6  H11 UNL     1      -6.524  48.922 -27.005  1.00  0.00     0.164 HD
ENDROOT
BRANCH   1   7
HETATM    7  C7  UNL     1      -7.028  48.028 -30.619  1.00  0.00     0.111 A 
HETATM    8  C6  UNL     1      -6.026  48.013 -31.583  1.00  0.00     0.080 A 
HETATM    9  C5  UNL     1      -6.468  47.838 -32.895  1.00  0.00     0.067 A 
HETATM   10  N2  UNL     1      -5.797  47.759 -34.086  1.00  0.00    -0.298 N 
HETATM   11  C23 UNL     1      -7.811  47.698 -33.216  1.00  0.00     0.060 A 
HETATM   12  N1  UNL     1      -6.597  47.572 -35.154  1.00  0.00    -0.279 N 
HETATM   13  H8  UNL     1      -4.795  47.816 -34.235  1.00  0.00     0.187 HD
HETATM   14  C4  UNL     1      -7.818  47.536 -34.614  1.00  0.00     0.171 A 
ATOM     15  H1  UNL     1      -6.335  47.481 -36.136  1.00  0.00     0.189 HD
HETATM   16  C22 UNL     1      -8.752  47.737 -32.191  1.00  0.00     0.108 A 
HETATM   17  N6  UNL     1      -8.348  47.905 -30.903  1.00  0.00    -0.351 N 
ATOM     18  H6  UNL     1      -9.037  47.938 -30.152  1.00  0.00     0.166 HD
BRANCH  14  19
HETATM   19  O2  UNL     1      -8.919  47.365 -35.379  1.00  0.00    -0.332 OA
BRANCH  19  20
HETATM   20  C3  UNL     1      -8.650  47.185 -36.773  1.00  0.00     0.203 C 
BRANCH  20  21
HETATM   21  C2  UNL     1      -9.137  48.422 -37.534  1.00  0.00     0.193 C 
BRANCH  21  22
HETATM   22  O1  UNL     1      -8.414  48.681 -38.743  1.00  0.00    -0.394 OA
HETATM   23  C1  UNL     1      -7.463  49.730 -38.627  1.00  0.00     0.201 C 
ENDBRANCH  21  22
ENDBRANCH  20  21
ENDBRANCH  19  20
ENDBRANCH  14  19
ENDBRANCH   1   7
BRANCH   4  24
HETATM   24  C9  UNL     1      -4.582  48.395 -26.357  1.00  0.00     0.114 C 
HETATM   25  C10 UNL     1      -5.037  48.244 -24.897  1.00  0.00     0.029 C 
HETATM   26  C11 UNL     1      -4.144  49.006 -23.917  1.00  0.00     0.032 C 
HETATM   27  C12 UNL     1      -2.704  49.086 -24.416  1.00  0.00     0.273 C 
HETATM   28  N5  UNL     1      -2.573  49.783 -25.700  1.00  0.00     0.094 N 
HETATM   29  C21 UNL     1      -3.778  49.700 -26.545  1.00  0.00     0.297 C 
BRANCH  28  30
HETATM   30  C13 UNL     1      -2.133  51.184 -25.571  1.00  0.00     0.317 C 
BRANCH  30  31
HETATM   31  C14 UNL     1      -0.731  51.430 -26.080  1.00  0.00     0.042 A 
HETATM   32  C15 UNL     1      -0.497  51.400 -27.462  1.00  0.00     0.127 A 
HETATM   33  F1  UNL     1      -1.512  51.181 -28.311  1.00  0.00    -0.205 F 
HETATM   34  C16 UNL     1       0.770  51.617 -27.994  1.00  0.00     0.043 A 
HETATM   35  C17 UNL     1       1.836  51.875 -27.139  1.00  0.00     0.006 A 
HETATM   36  C18 UNL     1       1.627  51.920 -25.759  1.00  0.00     0.037 A 
HETATM   37  C19 UNL     1       0.351  51.699 -25.220  1.00  0.00     0.079 A 
BRANCH  37  38
HETATM   38  O4  UNL     1       0.063  51.734 -23.880  1.00  0.00    -0.355 OA
HETATM   39  C20 UNL     1       0.594  52.814 -23.121  1.00  0.00     0.210 C 
ENDBRANCH  37  38
ENDBRANCH  30  31
ENDBRANCH  28  30
ENDBRANCH   4  24
TORSDOF 9
ENDMDL
MODEL 5
REMARK minimizedAffinity -8.16103649
REMARK  9 active torsions:
REMARK  status: ('A' for Active; 'I' for Inactive)
REMARK    1  A    between atoms: O1_2  and  C2_3 
REMARK    2  A    between atoms: C2_3  and  C3_4 
REMARK    3  A    between atoms: C3_4  and  O2_5 
REMARK    4  A    between atoms: O2_5  and  C4_6 
REMARK    5  A    between atoms: C7_12  and  N3_13 
REMARK       I    between atoms: N3_13  and  C8_14 
REMARK       I    between atoms: C8_14  and  N4_16 
REMARK    6  A    between atoms: N4_16  and  C9_17 
REMARK    7  A    between atoms: N5_21  and  C13_22 
REMARK    8  A    between atoms: C13_22  and  C14_23 
REMARK    9  A    between atoms: C19_29  and  O4_30 
ROOT
HETATM    1  N3  UNL     1       1.296  53.150 -18.343  1.00  0.00    -0.295 N 
HETATM    2  C8  UNL     1       1.094  52.393 -17.221  1.00  0.00     0.322 C 
HETATM    3  O3  UNL     1       0.485  51.333 -17.162  1.00  0.00    -0.247 OA
HETATM    4  N4  UNL     1       1.664  52.987 -16.114  1.00  0.00    -0.337 N 
HETATM    5  H10 UNL     1       1.648  54.088 -18.237  1.00  0.00     0.172 HD
HETATM    6  H11 UNL     1       2.458  53.579 -16.308  1.00  0.00     0.164 HD
ENDROOT
BRANCH   1   7
HETATM    7  C7  UNL     1       0.897  52.877 -19.652  1.00  0.00     0.111 A 
HETATM    8  C6  UNL     1       0.098  51.794 -20.000  1.00  0.00     0.080 A 
HETATM    9  C5  UNL     1      -0.208  51.694 -21.358  1.00  0.00     0.067 A 
HETATM   10  N2  UNL     1      -0.960  50.795 -22.065  1.00  0.00    -0.298 N 
HETATM   11  C23 UNL     1       0.259  52.605 -22.295  1.00  0.00     0.060 A 
HETATM   12  N1  UNL     1      -1.023  51.053 -23.386  1.00  0.00    -0.279 N 
HETATM   13  H8  UNL     1      -1.460  49.991 -21.703  1.00  0.00     0.187 HD
HETATM   14  C4  UNL     1      -0.280  52.155 -23.515  1.00  0.00     0.171 A 
ATOM     15  H1  UNL     1      -1.518  50.533 -24.112  1.00  0.00     0.189 HD
HETATM   16  C22 UNL     1       1.066  53.655 -21.865  1.00  0.00     0.108 A 
HETATM   17  N6  UNL     1       1.377  53.777 -20.546  1.00  0.00    -0.351 N 
ATOM     18  H6  UNL     1       1.971  54.543 -20.231  1.00  0.00     0.166 HD
BRANCH  14  19
HETATM   19  O2  UNL     1      -0.091  52.737 -24.720  1.00  0.00    -0.332 OA
BRANCH  19  20
HETATM   20  C3  UNL     1      -0.556  51.965 -25.831  1.00  0.00     0.203 C 
BRANCH  20  21
HETATM   21  C2  UNL     1       0.379  52.199 -27.021  1.00  0.00     0.193 C 
BRANCH  21  22
HETATM   22  O1  UNL     1       1.725  52.520 -26.648  1.00  0.00    -0.394 OA
HETATM   23  C1  UNL     1       2.607  51.406 -26.673  1.00  0.00     0.201 C 
ENDBRANCH  21  22
ENDBRANCH  20  21
ENDBRANCH  19  20
ENDBRANCH  14  19
ENDBRANCH   1   7
BRANCH   4  24
HETATM   24  C9  UNL     1       1.660  52.311 -14.817  1.00  0.00     0.114 C 
HETATM   25  C10 UNL     1       2.432  50.986 -14.917  1.00  0.00     0.029 C 
HETATM   26  C11 UNL     1       1.891  49.913 -13.971  1.00  0.00     0.032 C 
HETATM   27  C12 UNL     1       1.303  50.528 -12.704  1.00  0.00     0.273 C 
HETATM   28  N5  UNL     1       0.177  51.433 -12.966  1.00  0.00     0.094 N 
HETATM   29  C21 UNL     1       0.227  52.069 -14.294  1.00  0.00     0.297 C 
BRANCH  28  30
HETATM   30  C13 UNL     1      -1.142  50.817 -12.742  1.00  0.00     0.317 C 
BRANCH  30  31
HETATM   31  C14 UNL     1      -2.085  51.676 -11.931  1.00  0.00     0.042 A 
HETATM   32  C15 UNL     1      -1.619  52.893 -11.415  1.00  0.00     0.127 A 
HETATM   33  F1  UNL     1      -0.363  53.292 -11.665  1.00  0.00    -0.205 F 
HETATM   34  C16 UNL     1      -2.436  53.728 -10.659  1.00  0.00     0.043 A 
HETATM   35  C17 UNL     1      -3.751  53.354 -10.408  1.00  0.00     0.006 A 
HETATM   36  C18 UNL     1      -4.242  52.150 -10.919  1.00  0.00     0.037 A 
HETATM   37  C19 UNL     1      -3.420  51.305 -11.679  1.00  0.00     0.079 A 
BRANCH  37  38
HETATM   38  O4  UNL     1      -3.829  50.114 -12.221  1.00  0.00    -0.355 OA
HETATM   39  C20 UNL     1      -4.743  49.327 -11.466  1.00  0.00     0.210 C 
ENDBRANCH  37  38
ENDBRANCH  30  31
ENDBRANCH  28  30
ENDBRANCH   4  24
TORSDOF 9
ENDMDL
MODEL 6
REMARK minimizedAffinity -8.13598156
REMARK  9 active torsions:
REMARK  status: ('A' for Active; 'I' for Inactive)
REMARK    1  A    between atoms: O1_2  and  C2_3 
REMARK    2  A    between atoms: C2_3  and  C3_4 
REMARK    3  A    between atoms: C3_4  and  O2_5 
REMARK    4  A    between atoms: O2_5  and  C4_6 
REMARK    5  A    between atoms: C7_12  and  N3_13 
REMARK       I    between atoms: N3_13  and  C8_14 
REMARK       I    between atoms: C8_14  and  N4_16 
REMARK    6  A    between atoms: N4_16  and  C9_17 
REMARK    7  A    between atoms: N5_21  and  C13_22 
REMARK    8  A    between atoms: C13_22  and  C14_23 
REMARK    9  A    between atoms: C19_29  and  O4_30 
ROOT
HETATM    1  N3  UNL     1      -2.663  50.728 -19.290  1.00  0.00    -0.295 N 
HETATM    2  C8  UNL     1      -1.676  51.272 -18.514  1.00  0.00     0.322 C 
HETATM    3  O3  UNL     1      -0.911  52.171 -18.839  1.00  0.00    -0.247 OA
HETATM    4  N4  UNL     1      -1.627  50.664 -17.277  1.00  0.00    -0.337 N 
HETATM    5  H10 UNL     1      -3.103  49.874 -18.985  1.00  0.00     0.172 HD
HETATM    6  H11 UNL     1      -2.502  50.274 -16.957  1.00  0.00     0.164 HD
ENDROOT
BRANCH   1   7
HETATM    7  C7  UNL     1      -3.040  51.086 -20.585  1.00  0.00     0.111 A 
HETATM    8  C6  UNL     1      -4.363  51.137 -21.012  1.00  0.00     0.080 A 
HETATM    9  C5  UNL     1      -4.542  51.531 -22.338  1.00  0.00     0.067 A 
HETATM   10  N2  UNL     1      -5.668  51.709 -23.098  1.00  0.00    -0.298 N 
HETATM   11  C23 UNL     1      -3.479  51.841 -23.174  1.00  0.00     0.060 A 
HETATM   12  N1  UNL     1      -5.420  52.115 -24.359  1.00  0.00    -0.279 N 
HETATM   13  H8  UNL     1      -6.632  51.577 -22.812  1.00  0.00     0.187 HD
HETATM   14  C4  UNL     1      -4.087  52.192 -24.394  1.00  0.00     0.171 A 
ATOM     15  H1  UNL     1      -6.087  52.314 -25.104  1.00  0.00     0.189 HD
HETATM   16  C22 UNL     1      -2.184  51.751 -22.671  1.00  0.00     0.108 A 
HETATM   17  N6  UNL     1      -1.981  51.372 -21.381  1.00  0.00    -0.351 N 
ATOM     18  H6  UNL     1      -1.032  51.302 -21.013  1.00  0.00     0.166 HD
BRANCH  14  19
HETATM   19  O2  UNL     1      -3.435  52.571 -25.516  1.00  0.00    -0.332 OA
BRANCH  19  20
HETATM   20  C3  UNL     1      -3.202  51.513 -26.451  1.00  0.00     0.203 C 
BRANCH  20  21
HETATM   21  C2  UNL     1      -2.146  51.970 -27.462  1.00  0.00     0.193 C 
BRANCH  21  22
HETATM   22  O1  UNL     1      -2.009  53.394 -27.553  1.00  0.00    -0.394 OA
HETATM   23  C1  UNL     1      -0.688  53.822 -27.857  1.00  0.00     0.201 C 
ENDBRANCH  21  22
ENDBRANCH  20  21
ENDBRANCH  19  20
ENDBRANCH  14  19
ENDBRANCH   1   7
BRANCH   4  24
HETATM   24  C9  UNL     1      -0.714  51.147 -16.241  1.00  0.00     0.114 C 
HETATM   25  C10 UNL     1       0.574  50.308 -16.250  1.00  0.00     0.029 C 
HETATM   26  C11 UNL     1       1.209  50.185 -14.864  1.00  0.00     0.032 C 
HETATM   27  C12 UNL     1       0.933  51.418 -14.009  1.00  0.00     0.273 C 
HETATM   28  N5  UNL     1      -0.496  51.655 -13.774  1.00  0.00     0.094 N 
HETATM   29  C21 UNL     1      -1.366  51.130 -14.841  1.00  0.00     0.297 C 
BRANCH  28  30
HETATM   30  C13 UNL     1      -0.964  51.189 -12.456  1.00  0.00     0.317 C 
BRANCH  30  31
HETATM   31  C14 UNL     1      -1.871  52.172 -11.751  1.00  0.00     0.042 A 
HETATM   32  C15 UNL     1      -3.257  52.060 -11.925  1.00  0.00     0.127 A 
HETATM   33  F1  UNL     1      -3.762  51.077 -12.685  1.00  0.00    -0.205 F 
HETATM   34  C16 UNL     1      -4.144  52.934 -11.304  1.00  0.00     0.043 A 
HETATM   35  C17 UNL     1      -3.651  53.944 -10.487  1.00  0.00     0.006 A 
HETATM   36  C18 UNL     1      -2.273  54.071 -10.291  1.00  0.00     0.037 A 
HETATM   37  C19 UNL     1      -1.376  53.193 -10.916  1.00  0.00     0.079 A 
BRANCH  37  38
HETATM   38  O4  UNL     1      -0.014  53.246 -10.768  1.00  0.00    -0.355 OA
HETATM   39  C20 UNL     1       0.614  54.514 -10.916  1.00  0.00     0.210 C 
ENDBRANCH  37  38
ENDBRANCH  30  31
ENDBRANCH  28  30
ENDBRANCH   4  24
TORSDOF 9
ENDMDL
MODEL 7
REMARK minimizedAffinity -8.07515812
REMARK  9 active torsions:
REMARK  status: ('A' for Active; 'I' for Inactive)
REMARK    1  A    between atoms: O1_2  and  C2_3 
REMARK    2  A    between atoms: C2_3  and  C3_4 
REMARK    3  A    between atoms: C3_4  and  O2_5 
REMARK    4  A    between atoms: O2_5  and  C4_6 
REMARK    5  A    between atoms: C7_12  and  N3_13 
REMARK       I    between atoms: N3_13  and  C8_14 
REMARK       I    between atoms: C8_14  and  N4_16 
REMARK    6  A    between atoms: N4_16  and  C9_17 
REMARK    7  A    between atoms: N5_21  and  C13_22 
REMARK    8  A    between atoms: C13_22  and  C14_23 
REMARK    9  A    between atoms: C19_29  and  O4_30 
ROOT
HETATM    1  N3  UNL     1      -6.931  47.972 -30.021  1.00  0.00    -0.295 N 
HETATM    2  C8  UNL     1      -5.651  48.013 -29.536  1.00  0.00     0.322 C 
HETATM    3  O3  UNL     1      -4.626  47.827 -30.179  1.00  0.00    -0.247 OA
HETATM    4  N4  UNL     1      -5.643  48.286 -28.184  1.00  0.00    -0.337 N 
HETATM    5  H10 UNL     1      -7.695  47.957 -29.366  1.00  0.00     0.172 HD
HETATM    6  H11 UNL     1      -6.432  48.819 -27.850  1.00  0.00     0.164 HD
ENDROOT
BRANCH   1   7
HETATM    7  C7  UNL     1      -7.350  47.752 -31.333  1.00  0.00     0.111 A 
HETATM    8  C6  UNL     1      -6.549  47.988 -32.445  1.00  0.00     0.080 A 
HETATM    9  C5  UNL     1      -7.138  47.694 -33.674  1.00  0.00     0.067 A 
HETATM   10  N2  UNL     1      -6.672  47.781 -34.959  1.00  0.00    -0.298 N 
HETATM   11  C23 UNL     1      -8.434  47.208 -33.782  1.00  0.00     0.060 A 
HETATM   12  N1  UNL     1      -7.561  47.385 -35.892  1.00  0.00    -0.279 N 
HETATM   13  H8  UNL     1      -5.757  48.094 -35.263  1.00  0.00     0.187 HD
HETATM   14  C4  UNL     1      -8.627  47.039 -35.166  1.00  0.00     0.171 A 
ATOM     15  H1  UNL     1      -7.447  47.356 -36.905  1.00  0.00     0.189 HD
HETATM   16  C22 UNL     1      -9.174  47.012 -32.619  1.00  0.00     0.108 A 
HETATM   17  N6  UNL     1      -8.622  47.289 -31.407  1.00  0.00    -0.351 N 
ATOM     18  H6  UNL     1      -9.165  47.149 -30.555  1.00  0.00     0.166 HD
BRANCH  14  19
HETATM   19  O2  UNL     1      -9.757  46.582 -35.751  1.00  0.00    -0.332 OA
BRANCH  19  20
HETATM   20  C3  UNL     1     -10.071  47.205 -37.000  1.00  0.00     0.203 C 
BRANCH  20  21
HETATM   21  C2  UNL     1     -11.559  46.996 -37.296  1.00  0.00     0.193 C 
BRANCH  21  22
HETATM   22  O1  UNL     1     -12.017  47.675 -38.472  1.00  0.00    -0.394 OA
HETATM   23  C1  UNL     1     -13.365  48.117 -38.389  1.00  0.00     0.201 C 
ENDBRANCH  21  22
ENDBRANCH  20  21
ENDBRANCH  19  20
ENDBRANCH  14  19
ENDBRANCH   1   7
BRANCH   4  24
HETATM   24  C9  UNL     1      -4.381  48.475 -27.467  1.00  0.00     0.114 C 
HETATM   25  C10 UNL     1      -4.619  48.351 -25.954  1.00  0.00     0.029 C 
HETATM   26  C11 UNL     1      -3.666  49.220 -25.132  1.00  0.00     0.032 C 
HETATM   27  C12 UNL     1      -2.319  49.389 -25.830  1.00  0.00     0.273 C 
HETATM   28  N5  UNL     1      -2.422  50.040 -27.141  1.00  0.00     0.094 N 
HETATM   29  C21 UNL     1      -3.720  49.828 -27.806  1.00  0.00     0.297 C 
BRANCH  28  30
HETATM   30  C13 UNL     1      -2.085  51.474 -27.119  1.00  0.00     0.317 C 
BRANCH  30  31
HETATM   31  C14 UNL     1      -1.125  51.857 -26.016  1.00  0.00     0.042 A 
HETATM   32  C15 UNL     1      -1.633  52.445 -24.850  1.00  0.00     0.127 A 
HETATM   33  F1  UNL     1      -2.954  52.638 -24.714  1.00  0.00    -0.205 F 
HETATM   34  C16 UNL     1      -0.803  52.821 -23.799  1.00  0.00     0.043 A 
HETATM   35  C17 UNL     1       0.567  52.608 -23.899  1.00  0.00     0.006 A 
HETATM   36  C18 UNL     1       1.097  52.014 -25.047  1.00  0.00     0.037 A 
HETATM   37  C19 UNL     1       0.262  51.636 -26.109  1.00  0.00     0.079 A 
BRANCH  37  38
HETATM   38  O4  UNL     1       0.704  51.042 -27.264  1.00  0.00    -0.355 OA
HETATM   39  C20 UNL     1       1.474  51.835 -28.158  1.00  0.00     0.210 C 
ENDBRANCH  37  38
ENDBRANCH  30  31
ENDBRANCH  28  30
ENDBRANCH   4  24
TORSDOF 9
ENDMDL
MODEL 8
REMARK minimizedAffinity -8.04498768
REMARK  9 active torsions:
REMARK  status: ('A' for Active; 'I' for Inactive)
REMARK    1  A    between atoms: O1_2  and  C2_3 
REMARK    2  A    between atoms: C2_3  and  C3_4 
REMARK    3  A    between atoms: C3_4  and  O2_5 
REMARK    4  A    between atoms: O2_5  and  C4_6 
REMARK    5  A    between atoms: C7_12  and  N3_13 
REMARK       I    between atoms: N3_13  and  C8_14 
REMARK       I    between atoms: C8_14  and  N4_16 
REMARK    6  A    between atoms: N4_16  and  C9_17 
REMARK    7  A    between atoms: N5_21  and  C13_22 
REMARK    8  A    between atoms: C13_22  and  C14_23 
REMARK    9  A    between atoms: C19_29  and  O4_30 
ROOT
HETATM    1  N3  UNL     1      -0.169  51.035 -20.403  1.00  0.00    -0.295 N 
HETATM    2  C8  UNL     1      -0.046  51.616 -19.169  1.00  0.00     0.322 C 
HETATM    3  O3  UNL     1       0.112  52.808 -18.942  1.00  0.00    -0.247 OA
HETATM    4  N4  UNL     1      -0.111  50.668 -18.169  1.00  0.00    -0.337 N 
HETATM    5  H10 UNL     1      -0.107  50.033 -20.474  1.00  0.00     0.172 HD
HETATM    6  H11 UNL     1      -0.641  49.840 -18.397  1.00  0.00     0.164 HD
ENDROOT
BRANCH   1   7
HETATM    7  C7  UNL     1      -0.178  51.657 -21.652  1.00  0.00     0.111 A 
HETATM    8  C6  UNL     1       0.660  52.714 -21.989  1.00  0.00     0.080 A 
HETATM    9  C5  UNL     1       0.514  53.195 -23.290  1.00  0.00     0.067 A 
HETATM   10  N2  UNL     1       1.153  54.193 -23.976  1.00  0.00    -0.298 N 
HETATM   11  C23 UNL     1      -0.406  52.663 -24.183  1.00  0.00     0.060 A 
HETATM   12  N1  UNL     1       0.725  54.347 -25.245  1.00  0.00    -0.279 N 
HETATM   13  H8  UNL     1       1.894  54.798 -23.638  1.00  0.00     0.187 HD
HETATM   14  C4  UNL     1      -0.222  53.413 -25.360  1.00  0.00     0.171 A 
ATOM     15  H1  UNL     1       1.045  55.015 -25.947  1.00  0.00     0.189 HD
HETATM   16  C22 UNL     1      -1.217  51.613 -23.761  1.00  0.00     0.108 A 
HETATM   17  N6  UNL     1      -1.094  51.123 -22.498  1.00  0.00    -0.351 N 
ATOM     18  H6  UNL     1      -1.690  50.356 -22.187  1.00  0.00     0.166 HD
BRANCH  14  19
HETATM   19  O2  UNL     1      -0.909  53.247 -26.512  1.00  0.00    -0.332 OA
BRANCH  19  20
HETATM   20  C3  UNL     1      -0.114  53.354 -27.697  1.00  0.00     0.203 C 
BRANCH  20  21
HETATM   21  C2  UNL     1       0.431  51.969 -28.054  1.00  0.00     0.193 C 
BRANCH  21  22
HETATM   22  O1  UNL     1       1.862  51.901 -28.095  1.00  0.00    -0.394 OA
HETATM   23  C1  UNL     1       2.454  51.554 -26.850  1.00  0.00     0.201 C 
ENDBRANCH  21  22
ENDBRANCH  20  21
ENDBRANCH  19  20
ENDBRANCH  14  19
ENDBRANCH   1   7
BRANCH   4  24
HETATM   24  C9  UNL     1      -0.101  51.066 -16.760  1.00  0.00     0.114 C 
HETATM   25  C10 UNL     1       1.004  50.304 -16.012  1.00  0.00     0.029 C 
HETATM   26  C11 UNL     1       0.653  50.042 -14.547  1.00  0.00     0.032 C 
HETATM   27  C12 UNL     1      -0.238  51.143 -13.978  1.00  0.00     0.273 C 
HETATM   28  N5  UNL     1      -1.521  51.272 -14.678  1.00  0.00     0.094 N 
HETATM   29  C21 UNL     1      -1.472  50.840 -16.087  1.00  0.00     0.297 C 
BRANCH  28  30
HETATM   30  C13 UNL     1      -2.645  50.621 -13.981  1.00  0.00     0.317 C 
BRANCH  30  31
HETATM   31  C14 UNL     1      -3.023  51.291 -12.680  1.00  0.00     0.042 A 
HETATM   32  C15 UNL     1      -3.637  52.550 -12.720  1.00  0.00     0.127 A 
HETATM   33  F1  UNL     1      -3.905  53.131 -13.898  1.00  0.00    -0.205 F 
HETATM   34  C16 UNL     1      -4.009  53.219 -11.557  1.00  0.00     0.043 A 
HETATM   35  C17 UNL     1      -3.770  52.629 -10.322  1.00  0.00     0.006 A 
HETATM   36  C18 UNL     1      -3.168  51.370 -10.256  1.00  0.00     0.037 A 
HETATM   37  C19 UNL     1      -2.790  50.694 -11.426  1.00  0.00     0.079 A 
BRANCH  37  38
HETATM   38  O4  UNL     1      -2.203  49.455 -11.446  1.00  0.00    -0.355 OA
HETATM   39  C20 UNL     1      -1.088  49.243 -10.589  1.00  0.00     0.210 C 
ENDBRANCH  37  38
ENDBRANCH  30  31
ENDBRANCH  28  30
ENDBRANCH   4  24
TORSDOF 9
ENDMDL
MODEL 9
REMARK minimizedAffinity -8.00075722
REMARK  9 active torsions:
REMARK  status: ('A' for Active; 'I' for Inactive)
REMARK    1  A    between atoms: O1_2  and  C2_3 
REMARK    2  A    between atoms: C2_3  and  C3_4 
REMARK    3  A    between atoms: C3_4  and  O2_5 
REMARK    4  A    between atoms: O2_5  and  C4_6 
REMARK    5  A    between atoms: C7_12  and  N3_13 
REMARK       I    between atoms: N3_13  and  C8_14 
REMARK       I    between atoms: C8_14  and  N4_16 
REMARK    6  A    between atoms: N4_16  and  C9_17 
REMARK    7  A    between atoms: N5_21  and  C13_22 
REMARK    8  A    between atoms: C13_22  and  C14_23 
REMARK    9  A    between atoms: C19_29  and  O4_30 
ROOT
HETATM    1  N3  UNL     1      -3.561  50.562 -27.645  1.00  0.00    -0.295 N 
HETATM    2  C8  UNL     1      -3.800  49.230 -27.848  1.00  0.00     0.322 C 
HETATM    3  O3  UNL     1      -3.129  48.300 -27.420  1.00  0.00    -0.247 OA
HETATM    4  N4  UNL     1      -4.921  49.042 -28.630  1.00  0.00    -0.337 N 
HETATM    5  H10 UNL     1      -4.070  51.234 -28.197  1.00  0.00     0.172 HD
HETATM    6  H11 UNL     1      -5.610  49.777 -28.575  1.00  0.00     0.164 HD
ENDROOT
BRANCH   1   7
HETATM    7  C7  UNL     1      -2.545  51.153 -26.894  1.00  0.00     0.111 A 
HETATM    8  C6  UNL     1      -1.957  52.369 -27.222  1.00  0.00     0.080 A 
HETATM    9  C5  UNL     1      -0.966  52.806 -26.342  1.00  0.00     0.067 A 
HETATM   10  N2  UNL     1      -0.187  53.932 -26.323  1.00  0.00    -0.298 N 
HETATM   11  C23 UNL     1      -0.588  52.075 -25.224  1.00  0.00     0.060 A 
HETATM   12  N1  UNL     1       0.662  53.993 -25.279  1.00  0.00    -0.279 N 
HETATM   13  H8  UNL     1      -0.194  54.698 -26.988  1.00  0.00     0.187 HD
HETATM   14  C4  UNL     1       0.410  52.860 -24.618  1.00  0.00     0.171 A 
ATOM     15  H1  UNL     1       1.334  54.725 -25.048  1.00  0.00     0.189 HD
HETATM   16  C22 UNL     1      -1.219  50.859 -24.975  1.00  0.00     0.108 A 
HETATM   17  N6  UNL     1      -2.190  50.411 -25.816  1.00  0.00    -0.351 N 
ATOM     18  H6  UNL     1      -2.649  49.519 -25.636  1.00  0.00     0.166 HD
BRANCH  14  19
HETATM   19  O2  UNL     1       1.078  52.544 -23.486  1.00  0.00    -0.332 OA
BRANCH  19  20
HETATM   20  C3  UNL     1       0.518  53.100 -22.292  1.00  0.00     0.203 C 
BRANCH  20  21
HETATM   21  C2  UNL     1       1.486  54.147 -21.733  1.00  0.00     0.193 C 
BRANCH  21  22
HETATM   22  O1  UNL     1       1.445  54.271 -20.306  1.00  0.00    -0.394 OA
HETATM   23  C1  UNL     1       0.690  53.252 -19.665  1.00  0.00     0.201 C 
ENDBRANCH  21  22
ENDBRANCH  20  21
ENDBRANCH  19  20
ENDBRANCH  14  19
ENDBRANCH   1   7
BRANCH   4  24
HETATM   24  C9  UNL     1      -5.428  47.695 -28.899  1.00  0.00     0.114 C 
HETATM   25  C10 UNL     1      -5.382  47.413 -30.409  1.00  0.00     0.029 C 
HETATM   26  C11 UNL     1      -6.496  46.471 -30.868  1.00  0.00     0.032 C 
HETATM   27  C12 UNL     1      -6.885  45.485 -29.771  1.00  0.00     0.273 C 
HETATM   28  N5  UNL     1      -7.390  46.137 -28.557  1.00  0.00     0.094 N 
HETATM   29  C21 UNL     1      -6.858  47.496 -28.350  1.00  0.00     0.297 C 
BRANCH  28  30
HETATM   30  C13 UNL     1      -8.860  46.141 -28.454  1.00  0.00     0.317 C 
BRANCH  30  31
HETATM   31  C14 UNL     1      -9.563  46.062 -29.790  1.00  0.00     0.042 A 
HETATM   32  C15 UNL     1      -9.900  44.802 -30.305  1.00  0.00     0.127 A 
HETATM   33  F1  UNL     1      -9.622  43.693 -29.604  1.00  0.00    -0.205 F 
HETATM   34  C16 UNL     1     -10.546  44.662 -31.529  1.00  0.00     0.043 A 
HETATM   35  C17 UNL     1     -10.873  45.795 -32.264  1.00  0.00     0.006 A 
HETATM   36  C18 UNL     1     -10.557  47.062 -31.768  1.00  0.00     0.037 A 
HETATM   37  C19 UNL     1      -9.903  47.207 -30.536  1.00  0.00     0.079 A 
BRANCH  37  38
HETATM   38  O4  UNL     1      -9.566  48.413 -29.978  1.00  0.00    -0.355 OA
HETATM   39  C20 UNL     1      -8.840  49.331 -30.787  1.00  0.00     0.210 C 
ENDBRANCH  37  38
ENDBRANCH  30  31
ENDBRANCH  28  30
ENDBRANCH   4  24
TORSDOF 9
ENDMDL
