MODEL 1
REMARK minimizedAffinity -7.86572123
REMARK  7 active torsions:
REMARK  status: ('A' for Active; 'I' for Inactive)
REMARK    1  A    between atoms: O1_2  and  C2_3 
REMARK    2  A    between atoms: C2_3  and  C3_4 
REMARK    3  A    between atoms: C3_4  and  O2_5 
REMARK    4  A    between atoms: O2_5  and  C4_6 
REMARK    5  A    between atoms: C7_12  and  N3_13 
REMARK       I    between atoms: N3_13  and  C8_14 
REMARK       I    between atoms: C8_14  and  N4_16 
REMARK    6  A    between atoms: N4_16  and  C9_17 
REMARK    7  A    between atoms: C9_17  and  C10_18 
ROOT
HETATM    1  C4  UNL     1       0.027  53.899 -25.523  1.00  0.00     0.171 A 
HETATM    2  N1  UNL     1       0.500  55.124 -25.762  1.00  0.00    -0.279 N 
ATOM      3  H1  UNL     1       0.451  55.667 -26.625  1.00  0.00     0.189 HD
HETATM    4  N2  UNL     1       1.059  55.471 -24.587  1.00  0.00    -0.298 N 
HETATM    5  C5  UNL     1       0.951  54.514 -23.612  1.00  0.00     0.067 A 
HETATM    6  C6  UNL     1       1.376  54.470 -22.284  1.00  0.00     0.080 A 
HETATM    7  C7  UNL     1       1.065  53.298 -21.593  1.00  0.00     0.111 A 
HETATM    8  N5  UNL     1       0.414  52.262 -22.156  1.00  0.00    -0.351 N 
ATOM      9  H5  UNL     1       0.226  51.423 -21.606  1.00  0.00     0.166 HD
HETATM   10  C16 UNL     1       0.007  52.323 -23.450  1.00  0.00     0.108 A 
HETATM   11  C17 UNL     1       0.270  53.460 -24.208  1.00  0.00     0.060 A 
HETATM   12  H8  UNL     1       1.499  56.382 -24.517  1.00  0.00     0.187 HD
ENDROOT
BRANCH   7  13
HETATM   13  N3  UNL     1       1.492  53.224 -20.260  1.00  0.00    -0.295 N 
HETATM   14  C8  UNL     1       0.688  52.961 -19.174  1.00  0.00     0.322 C 
HETATM   15  O3  UNL     1      -0.531  52.870 -19.155  1.00  0.00    -0.247 OA
HETATM   16  N4  UNL     1       1.457  52.837 -18.028  1.00  0.00    -0.339 N 
HETATM   17  H11 UNL     1       2.381  52.460 -18.169  1.00  0.00     0.164 HD
HETATM   18  H10 UNL     1       2.425  53.535 -20.053  1.00  0.00     0.172 HD
BRANCH  16  19
HETATM   19  C9  UNL     1       0.835  52.487 -16.768  1.00  0.00     0.162 C 
BRANCH  19  20
HETATM   20  C10 UNL     1       1.818  51.808 -15.847  1.00  0.00    -0.040 A 
HETATM   21  C11 UNL     1       3.174  52.167 -15.874  1.00  0.00     0.010 A 
HETATM   22  C12 UNL     1       4.087  51.560 -15.010  1.00  0.00     0.024 A 
HETATM   23  C13 UNL     1       3.648  50.592 -14.110  1.00  0.00     0.034 A 
HETATM   24 CL1  UNL     1       4.771  49.844 -13.041  1.00  0.00    -0.084 Cl
HETATM   25  C14 UNL     1       2.303  50.229 -14.066  1.00  0.00     0.024 A 
HETATM   26  C15 UNL     1       1.390  50.837 -14.930  1.00  0.00     0.010 A 
ENDBRANCH  19  20
ENDBRANCH  16  19
ENDBRANCH   7  13
BRANCH   1  27
HETATM   27  O2  UNL     1      -0.618  53.196 -26.481  1.00  0.00    -0.332 OA
BRANCH  27  28
HETATM   28  C3  UNL     1      -0.048  51.916 -26.763  1.00  0.00     0.203 C 
BRANCH  28  29
HETATM   29  C2  UNL     1       0.713  52.013 -28.085  1.00  0.00     0.193 C 
BRANCH  29  30
HETATM   30  O1  UNL     1       2.125  51.887 -27.923  1.00  0.00    -0.394 OA
HETATM   31  C1  UNL     1       2.500  51.414 -26.636  1.00  0.00     0.201 C 
ENDBRANCH  29  30
ENDBRANCH  28  29
ENDBRANCH  27  28
ENDBRANCH   1  27
TORSDOF 7
ENDMDL
MODEL 2
REMARK minimizedAffinity -7.67082739
REMARK  7 active torsions:
REMARK  status: ('A' for Active; 'I' for Inactive)
REMARK    1  A    between atoms: O1_2  and  C2_3 
REMARK    2  A    between atoms: C2_3  and  C3_4 
REMARK    3  A    between atoms: C3_4  and  O2_5 
REMARK    4  A    between atoms: O2_5  and  C4_6 
REMARK    5  A    between atoms: C7_12  and  N3_13 
REMARK       I    between atoms: N3_13  and  C8_14 
REMARK       I    between atoms: C8_14  and  N4_16 
REMARK    6  A    between atoms: N4_16  and  C9_17 
REMARK    7  A    between atoms: C9_17  and  C10_18 
ROOT
HETATM    1  C4  UNL     1       0.777  53.501 -23.884  1.00  0.00     0.171 A 
HETATM    2  N1  UNL     1       1.384  54.683 -24.011  1.00  0.00    -0.279 N 
ATOM      3  H1  UNL     1       1.580  55.207 -24.865  1.00  0.00     0.189 HD
HETATM    4  N2  UNL     1       1.676  55.015 -22.739  1.00  0.00    -0.298 N 
HETATM    5  C5  UNL     1       1.270  54.092 -21.812  1.00  0.00     0.067 A 
HETATM    6  C6  UNL     1       1.367  54.048 -20.421  1.00  0.00     0.080 A 
HETATM    7  C7  UNL     1       0.814  52.919 -19.816  1.00  0.00     0.111 A 
HETATM    8  N5  UNL     1       0.238  51.919 -20.511  1.00  0.00    -0.351 N 
ATOM      9  H5  UNL     1      -0.137  51.109 -20.016  1.00  0.00     0.166 HD
HETATM   10  C16 UNL     1       0.152  51.979 -21.865  1.00  0.00     0.108 A 
HETATM   11  C17 UNL     1       0.671  53.076 -22.546  1.00  0.00     0.060 A 
HETATM   12  H8  UNL     1       2.154  55.894 -22.573  1.00  0.00     0.187 HD
ENDROOT
BRANCH   7  13
HETATM   13  N3  UNL     1       0.910  52.845 -18.420  1.00  0.00    -0.295 N 
HETATM   14  C8  UNL     1       0.518  51.776 -17.646  1.00  0.00     0.322 C 
HETATM   15  O3  UNL     1      -0.083  50.774 -18.007  1.00  0.00    -0.247 OA
HETATM   16  N4  UNL     1       0.871  51.990 -16.322  1.00  0.00    -0.339 N 
HETATM   17  H11 UNL     1       1.711  52.528 -16.183  1.00  0.00     0.164 HD
HETATM   18  H10 UNL     1       1.137  53.689 -17.924  1.00  0.00     0.172 HD
BRANCH  16  19
HETATM   19  C9  UNL     1       0.625  50.964 -15.329  1.00  0.00     0.162 C 
BRANCH  19  20
HETATM   20  C10 UNL     1      -0.510  51.355 -14.416  1.00  0.00    -0.040 A 
HETATM   21  C11 UNL     1      -0.258  52.105 -13.257  1.00  0.00     0.010 A 
HETATM   22  C12 UNL     1      -1.306  52.490 -12.418  1.00  0.00     0.024 A 
HETATM   23  C13 UNL     1      -2.613  52.130 -12.735  1.00  0.00     0.034 A 
HETATM   24 CL1  UNL     1      -3.906  52.605 -11.704  1.00  0.00    -0.084 Cl
HETATM   25  C14 UNL     1      -2.881  51.390 -13.886  1.00  0.00     0.024 A 
HETATM   26  C15 UNL     1      -1.834  51.007 -14.726  1.00  0.00     0.010 A 
ENDBRANCH  19  20
ENDBRANCH  16  19
ENDBRANCH   7  13
BRANCH   1  27
HETATM   27  O2  UNL     1       0.324  52.824 -24.963  1.00  0.00    -0.332 OA
BRANCH  27  28
HETATM   28  C3  UNL     1      -0.017  53.648 -26.080  1.00  0.00     0.203 C 
BRANCH  28  29
HETATM   29  C2  UNL     1      -0.881  52.825 -27.035  1.00  0.00     0.193 C 
BRANCH  29  30
HETATM   30  O1  UNL     1      -2.270  53.136 -26.934  1.00  0.00    -0.394 OA
HETATM   31  C1  UNL     1      -3.000  52.194 -26.160  1.00  0.00     0.201 C 
ENDBRANCH  29  30
ENDBRANCH  28  29
ENDBRANCH  27  28
ENDBRANCH   1  27
TORSDOF 7
ENDMDL
MODEL 3
REMARK minimizedAffinity -7.66528082
REMARK  7 active torsions:
REMARK  status: ('A' for Active; 'I' for Inactive)
REMARK    1  A    between atoms: O1_2  and  C2_3 
REMARK    2  A    between atoms: C2_3  and  C3_4 
REMARK    3  A    between atoms: C3_4  and  O2_5 
REMARK    4  A    between atoms: O2_5  and  C4_6 
REMARK    5  A    between atoms: C7_12  and  N3_13 
REMARK       I    between atoms: N3_13  and  C8_14 
REMARK       I    between atoms: C8_14  and  N4_16 
REMARK    6  A    between atoms: N4_16  and  C9_17 
REMARK    7  A    between atoms: C9_17  and  C10_18 
ROOT
HETATM    1  C4  UNL     1      -0.716  53.014 -26.340  1.00  0.00     0.171 A 
HETATM    2  N1  UNL     1       0.074  54.076 -26.516  1.00  0.00    -0.279 N 
ATOM      3  H1  UNL     1       0.189  54.649 -27.352  1.00  0.00     0.189 HD
HETATM    4  N2  UNL     1       0.682  54.206 -25.321  1.00  0.00    -0.298 N 
HETATM    5  C5  UNL     1       0.300  53.272 -24.395  1.00  0.00     0.067 A 
HETATM    6  C6  UNL     1       0.671  53.056 -23.067  1.00  0.00     0.080 A 
HETATM    7  C7  UNL     1       0.042  51.982 -22.435  1.00  0.00     0.111 A 
HETATM    8  N5  UNL     1      -0.852  51.186 -23.053  1.00  0.00    -0.351 N 
ATOM      9  H5  UNL     1      -1.270  50.406 -22.545  1.00  0.00     0.166 HD
HETATM   10  C16 UNL     1      -1.201  51.412 -24.345  1.00  0.00     0.108 A 
HETATM   11  C17 UNL     1      -0.627  52.468 -25.045  1.00  0.00     0.060 A 
HETATM   12  H8  UNL     1       1.349  54.961 -25.205  1.00  0.00     0.187 HD
ENDROOT
BRANCH   7  13
HETATM   13  N3  UNL     1       0.407  51.736 -21.104  1.00  0.00    -0.295 N 
HETATM   14  C8  UNL     1       0.461  52.678 -20.102  1.00  0.00     0.322 C 
HETATM   15  O3  UNL     1       0.327  53.889 -20.208  1.00  0.00    -0.247 OA
HETATM   16  N4  UNL     1       0.737  52.068 -18.888  1.00  0.00    -0.339 N 
HETATM   17  H11 UNL     1       0.376  51.133 -18.785  1.00  0.00     0.164 HD
HETATM   18  H10 UNL     1       0.809  50.841 -20.891  1.00  0.00     0.172 HD
BRANCH  16  19
HETATM   19  C9  UNL     1       0.770  52.853 -17.671  1.00  0.00     0.162 C 
BRANCH  19  20
HETATM   20  C10 UNL     1       1.646  52.201 -16.629  1.00  0.00    -0.040 A 
HETATM   21  C11 UNL     1       2.959  52.651 -16.429  1.00  0.00     0.010 A 
HETATM   22  C12 UNL     1       3.769  52.069 -15.452  1.00  0.00     0.024 A 
HETATM   23  C13 UNL     1       3.267  51.034 -14.666  1.00  0.00     0.034 A 
HETATM   24 CL1  UNL     1       4.262  50.316 -13.459  1.00  0.00    -0.084 Cl
HETATM   25  C14 UNL     1       1.962  50.579 -14.848  1.00  0.00     0.024 A 
HETATM   26  C15 UNL     1       1.152  51.163 -15.824  1.00  0.00     0.010 A 
ENDBRANCH  19  20
ENDBRANCH  16  19
ENDBRANCH   7  13
BRANCH   1  27
HETATM   27  O2  UNL     1      -1.508  52.555 -27.335  1.00  0.00    -0.332 OA
BRANCH  27  28
HETATM   28  C3  UNL     1      -1.591  51.130 -27.417  1.00  0.00     0.203 C 
BRANCH  28  29
HETATM   29  C2  UNL     1      -3.064  50.733 -27.336  1.00  0.00     0.193 C 
BRANCH  29  30
HETATM   30  O1  UNL     1      -3.473  49.896 -28.419  1.00  0.00    -0.394 OA
HETATM   31  C1  UNL     1      -4.193  48.747 -27.996  1.00  0.00     0.201 C 
ENDBRANCH  29  30
ENDBRANCH  28  29
ENDBRANCH  27  28
ENDBRANCH   1  27
TORSDOF 7
ENDMDL
MODEL 4
REMARK minimizedAffinity -7.6288476
REMARK  7 active torsions:
REMARK  status: ('A' for Active; 'I' for Inactive)
REMARK    1  A    between atoms: O1_2  and  C2_3 
REMARK    2  A    between atoms: C2_3  and  C3_4 
REMARK    3  A    between atoms: C3_4  and  O2_5 
REMARK    4  A    between atoms: O2_5  and  C4_6 
REMARK    5  A    between atoms: C7_12  and  N3_13 
REMARK       I    between atoms: N3_13  and  C8_14 
REMARK       I    between atoms: C8_14  and  N4_16 
REMARK    6  A    between atoms: N4_16  and  C9_17 
REMARK    7  A    between atoms: C9_17  and  C10_18 
ROOT
HETATM    1  C4  UNL     1       9.463  61.936 -34.453  1.00  0.00     0.171 A 
HETATM    2  N1  UNL     1       9.184  60.822 -33.774  1.00  0.00    -0.279 N 
ATOM      3  H1  UNL     1       9.832  60.122 -33.410  1.00  0.00     0.189 HD
HETATM    4  N2  UNL     1       7.841  60.845 -33.687  1.00  0.00    -0.298 N 
HETATM    5  C5  UNL     1       7.260  61.936 -34.278  1.00  0.00     0.067 A 
HETATM    6  C6  UNL     1       5.932  62.341 -34.408  1.00  0.00     0.080 A 
HETATM    7  C7  UNL     1       5.735  63.545 -35.086  1.00  0.00     0.111 A 
HETATM    8  N5  UNL     1       6.744  64.272 -35.603  1.00  0.00    -0.351 N 
ATOM      9  H5  UNL     1       6.540  65.138 -36.102  1.00  0.00     0.166 HD
HETATM   10  C16 UNL     1       8.032  63.862 -35.466  1.00  0.00     0.108 A 
HETATM   11  C17 UNL     1       8.315  62.676 -34.795  1.00  0.00     0.060 A 
HETATM   12  H8  UNL     1       7.380  60.081 -33.204  1.00  0.00     0.187 HD
ENDROOT
BRANCH   7  13
HETATM   13  N3  UNL     1       4.408  63.968 -35.241  1.00  0.00    -0.295 N 
HETATM   14  C8  UNL     1       3.995  65.273 -35.385  1.00  0.00     0.322 C 
HETATM   15  O3  UNL     1       4.674  66.285 -35.282  1.00  0.00    -0.247 OA
HETATM   16  N4  UNL     1       2.633  65.319 -35.641  1.00  0.00    -0.339 N 
HETATM   17  H11 UNL     1       2.267  64.535 -36.158  1.00  0.00     0.164 HD
HETATM   18  H10 UNL     1       3.683  63.291 -35.083  1.00  0.00     0.172 HD
BRANCH  16  19
HETATM   19  C9  UNL     1       1.984  66.587 -35.902  1.00  0.00     0.162 C 
BRANCH  19  20
HETATM   20  C10 UNL     1       2.177  67.010 -37.337  1.00  0.00    -0.040 A 
HETATM   21  C11 UNL     1       1.467  66.369 -38.364  1.00  0.00     0.010 A 
HETATM   22  C12 UNL     1       1.623  66.769 -39.692  1.00  0.00     0.024 A 
HETATM   23  C13 UNL     1       2.487  67.815 -40.002  1.00  0.00     0.034 A 
HETATM   24 CL1  UNL     1       2.679  68.312 -41.638  1.00  0.00    -0.084 Cl
HETATM   25  C14 UNL     1       3.195  68.467 -38.994  1.00  0.00     0.024 A 
HETATM   26  C15 UNL     1       3.039  68.068 -37.664  1.00  0.00     0.010 A 
ENDBRANCH  19  20
ENDBRANCH  16  19
ENDBRANCH   7  13
BRANCH   1  27
HETATM   27  O2  UNL     1      10.737  62.278 -34.751  1.00  0.00    -0.332 OA
BRANCH  27  28
HETATM   28  C3  UNL     1      11.296  63.283 -33.902  1.00  0.00     0.203 C 
BRANCH  28  29
HETATM   29  C2  UNL     1      10.662  63.145 -32.518  1.00  0.00     0.193 C 
BRANCH  29  30
HETATM   30  O1  UNL     1      11.597  62.743 -31.518  1.00  0.00    -0.394 OA
HETATM   31  C1  UNL     1      11.386  61.416 -31.057  1.00  0.00     0.201 C 
ENDBRANCH  29  30
ENDBRANCH  28  29
ENDBRANCH  27  28
ENDBRANCH   1  27
TORSDOF 7
ENDMDL
MODEL 5
REMARK minimizedAffinity -7.49851465
REMARK  7 active torsions:
REMARK  status: ('A' for Active; 'I' for Inactive)
REMARK    1  A    between atoms: O1_2  and  C2_3 
REMARK    2  A    between atoms: C2_3  and  C3_4 
REMARK    3  A    between atoms: C3_4  and  O2_5 
REMARK    4  A    between atoms: O2_5  and  C4_6 
REMARK    5  A    between atoms: C7_12  and  N3_13 
REMARK       I    between atoms: N3_13  and  C8_14 
REMARK       I    between atoms: C8_14  and  N4_16 
REMARK    6  A    between atoms: N4_16  and  C9_17 
REMARK    7  A    between atoms: C9_17  and  C10_18 
ROOT
HETATM    1  C4  UNL     1       0.468  53.238 -23.774  1.00  0.00     0.171 A 
HETATM    2  N1  UNL     1       1.183  54.326 -24.069  1.00  0.00    -0.279 N 
ATOM      3  H1  UNL     1       1.353  54.744 -24.985  1.00  0.00     0.189 HD
HETATM    4  N2  UNL     1       1.626  54.738 -22.866  1.00  0.00    -0.298 N 
HETATM    5  C5  UNL     1       1.211  53.956 -21.820  1.00  0.00     0.067 A 
HETATM    6  C6  UNL     1       1.432  54.029 -20.445  1.00  0.00     0.080 A 
HETATM    7  C7  UNL     1       0.820  53.031 -19.684  1.00  0.00     0.111 A 
HETATM    8  N5  UNL     1       0.079  52.044 -20.225  1.00  0.00    -0.351 N 
ATOM      9  H5  UNL     1      -0.333  51.332 -19.622  1.00  0.00     0.166 HD
HETATM   10  C16 UNL     1      -0.126  51.990 -21.567  1.00  0.00     0.108 A 
HETATM   11  C17 UNL     1       0.441  52.953 -22.395  1.00  0.00     0.060 A 
HETATM   12  H8  UNL     1       2.208  55.567 -22.830  1.00  0.00     0.187 HD
ENDROOT
BRANCH   7  13
HETATM   13  N3  UNL     1       1.037  53.075 -18.301  1.00  0.00    -0.295 N 
HETATM   14  C8  UNL     1       0.824  52.036 -17.423  1.00  0.00     0.322 C 
HETATM   15  O3  UNL     1       0.304  50.954 -17.661  1.00  0.00    -0.247 OA
HETATM   16  N4  UNL     1       1.259  52.384 -16.155  1.00  0.00    -0.339 N 
HETATM   17  H11 UNL     1       2.047  53.012 -16.128  1.00  0.00     0.164 HD
HETATM   18  H10 UNL     1       1.214  53.972 -17.886  1.00  0.00     0.172 HD
BRANCH  16  19
HETATM   19  C9  UNL     1       1.204  51.419 -15.076  1.00  0.00     0.162 C 
BRANCH  19  20
HETATM   20  C10 UNL     1       0.041  51.698 -14.157  1.00  0.00    -0.040 A 
HETATM   21  C11 UNL     1      -1.224  51.157 -14.433  1.00  0.00     0.010 A 
HETATM   22  C12 UNL     1      -2.300  51.392 -13.576  1.00  0.00     0.024 A 
HETATM   23  C13 UNL     1      -2.118  52.168 -12.434  1.00  0.00     0.034 A 
HETATM   24 CL1  UNL     1      -3.442  52.458 -11.375  1.00  0.00    -0.084 Cl
HETATM   25  C14 UNL     1      -0.867  52.709 -12.142  1.00  0.00     0.024 A 
HETATM   26  C15 UNL     1       0.211  52.473 -12.999  1.00  0.00     0.010 A 
ENDBRANCH  19  20
ENDBRANCH  16  19
ENDBRANCH   7  13
BRANCH   1  27
HETATM   27  O2  UNL     1      -0.154  52.522 -24.737  1.00  0.00    -0.332 OA
BRANCH  27  28
HETATM   28  C3  UNL     1      -0.255  53.188 -25.999  1.00  0.00     0.203 C 
BRANCH  28  29
HETATM   29  C2  UNL     1       0.669  52.478 -26.988  1.00  0.00     0.193 C 
BRANCH  29  30
HETATM   30  O1  UNL     1       2.034  52.480 -26.571  1.00  0.00    -0.394 OA
HETATM   31  C1  UNL     1       2.595  51.177 -26.491  1.00  0.00     0.201 C 
ENDBRANCH  29  30
ENDBRANCH  28  29
ENDBRANCH  27  28
ENDBRANCH   1  27
TORSDOF 7
ENDMDL
MODEL 6
REMARK minimizedAffinity -7.39254618
REMARK  7 active torsions:
REMARK  status: ('A' for Active; 'I' for Inactive)
REMARK    1  A    between atoms: O1_2  and  C2_3 
REMARK    2  A    between atoms: C2_3  and  C3_4 
REMARK    3  A    between atoms: C3_4  and  O2_5 
REMARK    4  A    between atoms: O2_5  and  C4_6 
REMARK    5  A    between atoms: C7_12  and  N3_13 
REMARK       I    between atoms: N3_13  and  C8_14 
REMARK       I    between atoms: C8_14  and  N4_16 
REMARK    6  A    between atoms: N4_16  and  C9_17 
REMARK    7  A    between atoms: C9_17  and  C10_18 
ROOT
HETATM    1  C4  UNL     1       1.916  51.473 -15.367  1.00  0.00     0.171 A 
HETATM    2  N1  UNL     1       2.682  52.565 -15.332  1.00  0.00    -0.279 N 
ATOM      3  H1  UNL     1       3.329  52.863 -14.602  1.00  0.00     0.189 HD
HETATM    4  N2  UNL     1       2.392  53.179 -16.495  1.00  0.00    -0.298 N 
HETATM    5  C5  UNL     1       1.479  52.512 -17.267  1.00  0.00     0.067 A 
HETATM    6  C6  UNL     1       0.918  52.789 -18.515  1.00  0.00     0.080 A 
HETATM    7  C7  UNL     1       0.007  51.843 -18.987  1.00  0.00     0.111 A 
HETATM    8  N5  UNL     1      -0.335  50.740 -18.293  1.00  0.00    -0.351 N 
ATOM      9  H5  UNL     1      -1.019  50.090 -18.682  1.00  0.00     0.166 HD
HETATM   10  C16 UNL     1       0.220  50.487 -17.080  1.00  0.00     0.108 A 
HETATM   11  C17 UNL     1       1.145  51.376 -16.541  1.00  0.00     0.060 A 
HETATM   12  H8  UNL     1       2.859  54.055 -16.702  1.00  0.00     0.187 HD
ENDROOT
BRANCH   7  13
HETATM   13  N3  UNL     1      -0.579  52.104 -20.233  1.00  0.00    -0.295 N 
HETATM   14  C8  UNL     1      -0.792  51.178 -21.228  1.00  0.00     0.322 C 
HETATM   15  O3  UNL     1      -0.409  50.016 -21.260  1.00  0.00    -0.247 OA
HETATM   16  N4  UNL     1      -1.503  51.750 -22.271  1.00  0.00    -0.339 N 
HETATM   17  H11 UNL     1      -2.154  52.471 -22.002  1.00  0.00     0.164 HD
HETATM   18  H10 UNL     1      -0.717  53.066 -20.489  1.00  0.00     0.172 HD
BRANCH  16  19
HETATM   19  C9  UNL     1      -1.910  50.944 -23.403  1.00  0.00     0.162 C 
BRANCH  19  20
HETATM   20  C10 UNL     1      -1.013  51.185 -24.591  1.00  0.00    -0.040 A 
HETATM   21  C11 UNL     1       0.128  51.992 -24.463  1.00  0.00     0.010 A 
HETATM   22  C12 UNL     1       0.976  52.202 -25.552  1.00  0.00     0.024 A 
HETATM   23  C13 UNL     1       0.690  51.603 -26.776  1.00  0.00     0.034 A 
HETATM   24 CL1  UNL     1       1.735  51.858 -28.119  1.00  0.00    -0.084 Cl
HETATM   25  C14 UNL     1      -0.436  50.794 -26.919  1.00  0.00     0.024 A 
HETATM   26  C15 UNL     1      -1.283  50.582 -25.829  1.00  0.00     0.010 A 
ENDBRANCH  19  20
ENDBRANCH  16  19
ENDBRANCH   7  13
BRANCH   1  27
HETATM   27  O2  UNL     1       1.922  50.578 -14.354  1.00  0.00    -0.332 OA
BRANCH  27  28
HETATM   28  C3  UNL     1       3.057  50.668 -13.489  1.00  0.00     0.203 C 
BRANCH  28  29
HETATM   29  C2  UNL     1       3.918  49.423 -13.701  1.00  0.00     0.193 C 
BRANCH  29  30
HETATM   30  O1  UNL     1       3.379  48.262 -13.069  1.00  0.00    -0.394 OA
HETATM   31  C1  UNL     1       2.928  47.281 -13.993  1.00  0.00     0.201 C 
ENDBRANCH  29  30
ENDBRANCH  28  29
ENDBRANCH  27  28
ENDBRANCH   1  27
TORSDOF 7
ENDMDL
MODEL 7
REMARK minimizedAffinity -7.33818579
REMARK  7 active torsions:
REMARK  status: ('A' for Active; 'I' for Inactive)
REMARK    1  A    between atoms: O1_2  and  C2_3 
REMARK    2  A    between atoms: C2_3  and  C3_4 
REMARK    3  A    between atoms: C3_4  and  O2_5 
REMARK    4  A    between atoms: O2_5  and  C4_6 
REMARK    5  A    between atoms: C7_12  and  N3_13 
REMARK       I    between atoms: N3_13  and  C8_14 
REMARK       I    between atoms: C8_14  and  N4_16 
REMARK    6  A    between atoms: N4_16  and  C9_17 
REMARK    7  A    between atoms: C9_17  and  C10_18 
ROOT
HETATM    1  C4  UNL     1      -5.297  48.236 -27.805  1.00  0.00     0.171 A 
HETATM    2  N1  UNL     1      -5.312  48.778 -29.025  1.00  0.00    -0.279 N 
ATOM      3  H1  UNL     1      -5.975  48.613 -29.784  1.00  0.00     0.189 HD
HETATM    4  N2  UNL     1      -4.242  49.594 -29.011  1.00  0.00    -0.298 N 
HETATM    5  C5  UNL     1      -3.554  49.595 -27.826  1.00  0.00     0.067 A 
HETATM    6  C6  UNL     1      -2.418  50.282 -27.396  1.00  0.00     0.080 A 
HETATM    7  C7  UNL     1      -2.016  50.017 -26.087  1.00  0.00     0.111 A 
HETATM    8  N5  UNL     1      -2.656  49.147 -25.282  1.00  0.00    -0.351 N 
ATOM      9  H5  UNL     1      -2.309  48.982 -24.337  1.00  0.00     0.166 HD
HETATM   10  C16 UNL     1      -3.761  48.487 -25.717  1.00  0.00     0.108 A 
HETATM   11  C17 UNL     1      -4.233  48.701 -27.008  1.00  0.00     0.060 A 
HETATM   12  H8  UNL     1      -4.037  50.127 -29.849  1.00  0.00     0.187 HD
ENDROOT
BRANCH   7  13
HETATM   13  N3  UNL     1      -0.870  50.686 -25.635  1.00  0.00    -0.295 N 
HETATM   14  C8  UNL     1      -0.848  51.936 -25.059  1.00  0.00     0.322 C 
HETATM   15  O3  UNL     1      -1.777  52.724 -24.950  1.00  0.00    -0.247 OA
HETATM   16  N4  UNL     1       0.432  52.236 -24.618  1.00  0.00    -0.339 N 
HETATM   17  H11 UNL     1       0.976  51.447 -24.310  1.00  0.00     0.164 HD
HETATM   18  H10 UNL     1       0.022  50.299 -25.885  1.00  0.00     0.172 HD
BRANCH  16  19
HETATM   19  C9  UNL     1       0.686  53.474 -23.910  1.00  0.00     0.162 C 
BRANCH  19  20
HETATM   20  C10 UNL     1       0.686  53.254 -22.417  1.00  0.00    -0.040 A 
HETATM   21  C11 UNL     1      -0.027  52.182 -21.861  1.00  0.00     0.010 A 
HETATM   22  C12 UNL     1      -0.014  51.958 -20.483  1.00  0.00     0.024 A 
HETATM   23  C13 UNL     1       0.716  52.804 -19.652  1.00  0.00     0.034 A 
HETATM   24 CL1  UNL     1       0.737  52.529 -17.954  1.00  0.00    -0.084 Cl
HETATM   25  C14 UNL     1       1.435  53.871 -20.189  1.00  0.00     0.024 A 
HETATM   26  C15 UNL     1       1.423  54.094 -21.568  1.00  0.00     0.010 A 
ENDBRANCH  19  20
ENDBRANCH  16  19
ENDBRANCH   7  13
BRANCH   1  27
HETATM   27  O2  UNL     1      -6.235  47.341 -27.422  1.00  0.00    -0.332 OA
BRANCH  27  28
HETATM   28  C3  UNL     1      -7.338  47.215 -28.322  1.00  0.00     0.203 C 
BRANCH  28  29
HETATM   29  C2  UNL     1      -8.543  47.924 -27.703  1.00  0.00     0.193 C 
BRANCH  29  30
HETATM   30  O1  UNL     1      -9.788  47.437 -28.202  1.00  0.00    -0.394 OA
HETATM   31  C1  UNL     1      -9.991  47.726 -29.578  1.00  0.00     0.201 C 
ENDBRANCH  29  30
ENDBRANCH  28  29
ENDBRANCH  27  28
ENDBRANCH   1  27
TORSDOF 7
ENDMDL
MODEL 8
REMARK minimizedAffinity -7.24704027
REMARK  7 active torsions:
REMARK  status: ('A' for Active; 'I' for Inactive)
REMARK    1  A    between atoms: O1_2  and  C2_3 
REMARK    2  A    between atoms: C2_3  and  C3_4 
REMARK    3  A    between atoms: C3_4  and  O2_5 
REMARK    4  A    between atoms: O2_5  and  C4_6 
REMARK    5  A    between atoms: C7_12  and  N3_13 
REMARK       I    between atoms: N3_13  and  C8_14 
REMARK       I    between atoms: C8_14  and  N4_16 
REMARK    6  A    between atoms: N4_16  and  C9_17 
REMARK    7  A    between atoms: C9_17  and  C10_18 
ROOT
HETATM    1  C4  UNL     1       0.197  52.880 -24.764  1.00  0.00     0.171 A 
HETATM    2  N1  UNL     1       0.458  54.014 -25.418  1.00  0.00    -0.279 N 
ATOM      3  H1  UNL     1       1.088  54.771 -25.149  1.00  0.00     0.189 HD
HETATM    4  N2  UNL     1      -0.311  53.918 -26.519  1.00  0.00    -0.298 N 
HETATM    5  C5  UNL     1      -1.043  52.762 -26.590  1.00  0.00     0.067 A 
HETATM    6  C6  UNL     1      -1.941  52.272 -27.538  1.00  0.00     0.080 A 
HETATM    7  C7  UNL     1      -2.491  51.021 -27.255  1.00  0.00     0.111 A 
HETATM    8  N5  UNL     1      -2.202  50.326 -26.138  1.00  0.00    -0.351 N 
ATOM      9  H5  UNL     1      -2.646  49.421 -25.976  1.00  0.00     0.166 HD
HETATM   10  C16 UNL     1      -1.325  50.818 -25.225  1.00  0.00     0.108 A 
HETATM   11  C17 UNL     1      -0.725  52.056 -25.437  1.00  0.00     0.060 A 
HETATM   12  H8  UNL     1      -0.287  54.680 -27.187  1.00  0.00     0.187 HD
ENDROOT
BRANCH   7  13
HETATM   13  N3  UNL     1      -3.406  50.512 -28.187  1.00  0.00    -0.295 N 
HETATM   14  C8  UNL     1      -3.938  49.243 -28.177  1.00  0.00     0.322 C 
HETATM   15  O3  UNL     1      -3.627  48.310 -27.449  1.00  0.00    -0.247 OA
HETATM   16  N4  UNL     1      -4.900  49.119 -29.166  1.00  0.00    -0.339 N 
HETATM   17  H11 UNL     1      -5.415  49.960 -29.373  1.00  0.00     0.164 HD
HETATM   18  H10 UNL     1      -3.575  51.054 -29.015  1.00  0.00     0.172 HD
BRANCH  16  19
HETATM   19  C9  UNL     1      -5.652  47.889 -29.300  1.00  0.00     0.162 C 
BRANCH  19  20
HETATM   20  C10 UNL     1      -6.218  47.747 -30.691  1.00  0.00    -0.040 A 
HETATM   21  C11 UNL     1      -7.495  48.246 -30.989  1.00  0.00     0.010 A 
HETATM   22  C12 UNL     1      -8.017  48.139 -32.279  1.00  0.00     0.024 A 
HETATM   23  C13 UNL     1      -7.262  47.535 -33.282  1.00  0.00     0.034 A 
HETATM   24 CL1  UNL     1      -7.902  47.404 -34.874  1.00  0.00    -0.084 Cl
HETATM   25  C14 UNL     1      -5.989  47.039 -33.004  1.00  0.00     0.024 A 
HETATM   26  C15 UNL     1      -5.467  47.147 -31.714  1.00  0.00     0.010 A 
ENDBRANCH  19  20
ENDBRANCH  16  19
ENDBRANCH   7  13
BRANCH   1  27
HETATM   27  O2  UNL     1       0.789  52.598 -23.583  1.00  0.00    -0.332 OA
BRANCH  27  28
HETATM   28  C3  UNL     1      -0.120  52.366 -22.504  1.00  0.00     0.203 C 
BRANCH  28  29
HETATM   29  C2  UNL     1       0.688  51.912 -21.288  1.00  0.00     0.193 C 
BRANCH  29  30
HETATM   30  O1  UNL     1       1.642  52.884 -20.862  1.00  0.00    -0.394 OA
HETATM   31  C1  UNL     1       1.046  54.092 -20.411  1.00  0.00     0.201 C 
ENDBRANCH  29  30
ENDBRANCH  28  29
ENDBRANCH  27  28
ENDBRANCH   1  27
TORSDOF 7
ENDMDL
MODEL 9
REMARK minimizedAffinity -7.2330389
REMARK  7 active torsions:
REMARK  status: ('A' for Active; 'I' for Inactive)
REMARK    1  A    between atoms: O1_2  and  C2_3 
REMARK    2  A    between atoms: C2_3  and  C3_4 
REMARK    3  A    between atoms: C3_4  and  O2_5 
REMARK    4  A    between atoms: O2_5  and  C4_6 
REMARK    5  A    between atoms: C7_12  and  N3_13 
REMARK       I    between atoms: N3_13  and  C8_14 
REMARK       I    between atoms: C8_14  and  N4_16 
REMARK    6  A    between atoms: N4_16  and  C9_17 
REMARK    7  A    between atoms: C9_17  and  C10_18 
ROOT
HETATM    1  C4  UNL     1       1.794  51.641 -15.394  1.00  0.00     0.171 A 
HETATM    2  N1  UNL     1       2.737  52.585 -15.429  1.00  0.00    -0.279 N 
ATOM      3  H1  UNL     1       3.424  52.822 -14.713  1.00  0.00     0.189 HD
HETATM    4  N2  UNL     1       2.560  53.150 -16.639  1.00  0.00    -0.298 N 
HETATM    5  C5  UNL     1       1.547  52.593 -17.373  1.00  0.00     0.067 A 
HETATM    6  C6  UNL     1       1.046  52.867 -18.647  1.00  0.00     0.080 A 
HETATM    7  C7  UNL     1      -0.013  52.059 -19.062  1.00  0.00     0.111 A 
HETATM    8  N5  UNL     1      -0.543  51.087 -18.293  1.00  0.00    -0.351 N 
ATOM      9  H5  UNL     1      -1.328  50.537 -18.643  1.00  0.00     0.166 HD
HETATM   10  C16 UNL     1      -0.043  50.835 -17.056  1.00  0.00     0.108 A 
HETATM   11  C17 UNL     1       1.021  51.590 -16.570  1.00  0.00     0.060 A 
HETATM   12  H8  UNL     1       3.172  53.914 -16.903  1.00  0.00     0.187 HD
ENDROOT
BRANCH   7  13
HETATM   13  N3  UNL     1      -0.542  52.322 -20.333  1.00  0.00    -0.295 N 
HETATM   14  C8  UNL     1      -0.762  51.386 -21.318  1.00  0.00     0.322 C 
HETATM   15  O3  UNL     1      -0.430  50.209 -21.315  1.00  0.00    -0.247 OA
HETATM   16  N4  UNL     1      -1.409  51.969 -22.396  1.00  0.00    -0.339 N 
HETATM   17  H11 UNL     1      -2.035  52.724 -22.164  1.00  0.00     0.164 HD
HETATM   18  H10 UNL     1      -0.628  53.283 -20.610  1.00  0.00     0.172 HD
BRANCH  16  19
HETATM   19  C9  UNL     1      -1.811  51.160 -23.528  1.00  0.00     0.162 C 
BRANCH  19  20
HETATM   20  C10 UNL     1      -0.863  51.340 -24.688  1.00  0.00    -0.040 A 
HETATM   21  C11 UNL     1       0.300  52.109 -24.536  1.00  0.00     0.010 A 
HETATM   22  C12 UNL     1       1.195  52.262 -25.597  1.00  0.00     0.024 A 
HETATM   23  C13 UNL     1       0.931  51.644 -26.817  1.00  0.00     0.034 A 
HETATM   24 CL1  UNL     1       2.033  51.829 -28.126  1.00  0.00    -0.084 Cl
HETATM   25  C14 UNL     1      -0.217  50.872 -26.983  1.00  0.00     0.024 A 
HETATM   26  C15 UNL     1      -1.111  50.717 -25.920  1.00  0.00     0.010 A 
ENDBRANCH  19  20
ENDBRANCH  16  19
ENDBRANCH   7  13
BRANCH   1  27
HETATM   27  O2  UNL     1       1.642  50.838 -14.317  1.00  0.00    -0.332 OA
BRANCH  27  28
HETATM   28  C3  UNL     1       1.417  51.531 -13.087  1.00  0.00     0.203 C 
BRANCH  28  29
HETATM   29  C2  UNL     1       0.184  52.419 -13.259  1.00  0.00     0.193 C 
BRANCH  29  30
HETATM   30  O1  UNL     1      -1.032  51.675 -13.310  1.00  0.00    -0.394 OA
HETATM   31  C1  UNL     1      -2.055  52.218 -12.485  1.00  0.00     0.201 C 
ENDBRANCH  29  30
ENDBRANCH  28  29
ENDBRANCH  27  28
ENDBRANCH   1  27
TORSDOF 7
ENDMDL
