MODEL 1
REMARK minimizedAffinity -10.5071278
REMARK  5 active torsions:
REMARK  status: ('A' for Active; 'I' for Inactive)
REMARK    1  A    between atoms: N1_1  and  C1_2 
REMARK    2  A    between atoms: C9_15  and  C10_16 
REMARK    3  A    between atoms: C13_19  and  O1_20 
REMARK    4  A    between atoms: O1_20  and  C14_21 
REMARK    5  A    between atoms: C14_21  and  C15_22 
ROOT
HETATM    1  C1  UNL     1      -0.098  53.750 -25.069  1.00  0.00     0.146 C 
HETATM    2  N2  UNL     1       0.695  53.209 -24.204  1.00  0.00    -0.171 N 
ATOM      3  H2  UNL     1       1.696  53.404 -24.204  1.00  0.00     0.186 HD
HETATM    4  C2  UNL     1       0.132  52.370 -23.297  1.00  0.00     0.689 A 
HETATM    5  N3  UNL     1       0.694  51.796 -22.251  1.00  0.00    -0.189 N 
ATOM      6  H3  UNL     1       1.666  51.881 -21.955  1.00  0.00     0.184 HD
HETATM    7  C3  UNL     1      -0.293  51.061 -21.640  1.00  0.00     0.079 A 
HETATM    8  C4  UNL     1      -0.224  50.263 -20.490  1.00  0.00     0.072 A 
HETATM    9  C5  UNL     1      -1.390  49.634 -20.039  1.00  0.00     0.104 A 
HETATM   10  C6  UNL     1      -2.596  49.774 -20.736  1.00  0.00     0.104 A 
HETATM   11  C7  UNL     1      -2.671  50.533 -21.910  1.00  0.00     0.072 A 
HETATM   12  C8  UNL     1      -1.500  51.175 -22.324  1.00  0.00     0.084 A 
HETATM   13  N4  UNL     1      -1.186  51.982 -23.383  1.00  0.00    -0.159 N 
HETATM   14  C9  UNL     1      -2.041  52.477 -24.448  1.00  0.00     0.221 C 
HETATM   15  N7  UNL     1      -1.441  53.581 -25.186  1.00  0.00    -0.242 NA
HETATM   16  O2  UNL     1      -3.741  49.112 -20.376  1.00  0.00    -0.348 OA
HETATM   17  C24 UNL     1      -4.208  49.510 -19.087  1.00  0.00     0.178 C 
HETATM   18  C25 UNL     1      -3.488  48.776 -17.967  1.00  0.00     0.053 C 
HETATM   19  C26 UNL     1      -2.046  49.243 -17.847  1.00  0.00     0.178 C 
HETATM   20  O3  UNL     1      -1.253  48.810 -18.953  1.00  0.00    -0.348 OA
HETATM   21  H17 UNL     1      -1.768  53.648 -26.143  1.00  0.00     0.132 HD
ENDROOT
BRANCH  14  22
HETATM   22  C10 UNL     1      -2.437  51.377 -25.422  1.00  0.00    -0.020 A 
HETATM   23  C11 UNL     1      -2.628  50.064 -24.959  1.00  0.00     0.013 A 
HETATM   24  C12 UNL     1      -3.031  49.044 -25.829  1.00  0.00     0.037 A 
HETATM   25  C13 UNL     1      -3.255  49.317 -27.177  1.00  0.00     0.069 A 
HETATM   26  C22 UNL     1      -3.077  50.620 -27.643  1.00  0.00     0.037 A 
HETATM   27  C23 UNL     1      -2.678  51.643 -26.779  1.00  0.00     0.013 A 
BRANCH  25  28
HETATM   28  O1  UNL     1      -3.660  48.425 -28.131  1.00  0.00    -0.345 OA
BRANCH  28  29
HETATM   29  C14 UNL     1      -5.011  47.945 -28.083  1.00  0.00     0.234 C 
BRANCH  29  30
HETATM   30  C15 UNL     1      -5.658  47.860 -29.427  1.00  0.00     0.051 A 
HETATM   31  C16 UNL     1      -5.161  47.314 -30.595  1.00  0.00     0.125 A 
HETATM   32  N5  UNL     1      -6.136  47.496 -31.538  1.00  0.00    -0.317 N 
HETATM   33  C17 UNL     1      -6.149  47.136 -32.884  1.00  0.00     0.098 A 
HETATM   34  C21 UNL     1      -7.193  48.140 -30.903  1.00  0.00     0.111 A 
HETATM   35  C18 UNL     1      -7.235  47.417 -33.625  1.00  0.00     0.018 A 
HETATM   36  C19 UNL     1      -8.364  48.086 -32.995  1.00  0.00     0.005 A 
HETATM   37  C20 UNL     1      -8.342  48.431 -31.692  1.00  0.00     0.049 A 
HETATM   38  N6  UNL     1      -6.925  48.369 -29.635  1.00  0.00    -0.343 N 
ATOM     39  H6  UNL     1      -7.526  48.828 -28.950  1.00  0.00     0.167 HD
ENDBRANCH  29  30
ENDBRANCH  28  29
ENDBRANCH  25  28
ENDBRANCH  14  22
BRANCH   1  40
HETATM   40  N1  UNL     1       0.368  54.606 -26.008  1.00  0.00    -0.278 NA
HETATM   41  H1  UNL     1       1.345  54.820 -25.822  1.00  0.00     0.126 HD
HETATM   42  H2  UNL     1      -0.171  55.462 -26.061  1.00  0.00     0.126 HD
ENDBRANCH   1  40
TORSDOF 5
ENDMDL
MODEL 2
REMARK minimizedAffinity -10.4077663
REMARK  5 active torsions:
REMARK  status: ('A' for Active; 'I' for Inactive)
REMARK    1  A    between atoms: N1_1  and  C1_2 
REMARK    2  A    between atoms: C9_15  and  C10_16 
REMARK    3  A    between atoms: C13_19  and  O1_20 
REMARK    4  A    between atoms: O1_20  and  C14_21 
REMARK    5  A    between atoms: C14_21  and  C15_22 
ROOT
HETATM    1  C1  UNL     1      -5.337  48.298 -30.878  1.00  0.00     0.146 C 
HETATM    2  N2  UNL     1      -6.578  48.647 -30.805  1.00  0.00    -0.171 N 
ATOM      3  H2  UNL     1      -7.058  49.082 -31.593  1.00  0.00     0.186 HD
HETATM    4  C2  UNL     1      -7.213  48.409 -29.629  1.00  0.00     0.689 A 
HETATM    5  N3  UNL     1      -8.492  48.556 -29.341  1.00  0.00    -0.189 N 
ATOM      6  H3  UNL     1      -9.225  48.893 -29.966  1.00  0.00     0.184 HD
HETATM    7  C3  UNL     1      -8.639  48.166 -28.033  1.00  0.00     0.079 A 
HETATM    8  C4  UNL     1      -9.795  48.128 -27.241  1.00  0.00     0.072 A 
HETATM    9  C5  UNL     1      -9.695  47.651 -25.929  1.00  0.00     0.104 A 
HETATM   10  C6  UNL     1      -8.461  47.244 -25.406  1.00  0.00     0.104 A 
HETATM   11  C7  UNL     1      -7.291  47.315 -26.171  1.00  0.00     0.072 A 
HETATM   12  C8  UNL     1      -7.422  47.768 -27.487  1.00  0.00     0.084 A 
HETATM   13  N4  UNL     1      -6.539  47.966 -28.513  1.00  0.00    -0.159 N 
HETATM   14  C9  UNL     1      -5.108  47.714 -28.557  1.00  0.00     0.221 C 
HETATM   15  N7  UNL     1      -4.578  47.715 -29.915  1.00  0.00    -0.242 NA
HETATM   16  O2  UNL     1      -8.304  46.846 -24.105  1.00  0.00    -0.348 OA
HETATM   17  C24 UNL     1      -9.045  45.661 -23.811  1.00  0.00     0.178 C 
HETATM   18  C25 UNL     1     -10.501  45.964 -23.493  1.00  0.00     0.053 C 
HETATM   19  C26 UNL     1     -11.252  46.408 -24.739  1.00  0.00     0.178 C 
HETATM   20  O3  UNL     1     -10.838  47.702 -25.176  1.00  0.00    -0.348 OA
HETATM   21  H17 UNL     1      -3.601  47.982 -29.962  1.00  0.00     0.132 HD
ENDROOT
BRANCH  14  22
HETATM   22  C10 UNL     1      -4.327  48.709 -27.711  1.00  0.00    -0.020 A 
HETATM   23  C11 UNL     1      -4.133  48.465 -26.341  1.00  0.00     0.013 A 
HETATM   24  C12 UNL     1      -3.383  49.345 -25.551  1.00  0.00     0.037 A 
HETATM   25  C13 UNL     1      -2.809  50.482 -26.116  1.00  0.00     0.069 A 
HETATM   26  C22 UNL     1      -2.988  50.726 -27.478  1.00  0.00     0.037 A 
HETATM   27  C23 UNL     1      -3.732  49.850 -28.272  1.00  0.00     0.013 A 
BRANCH  25  28
HETATM   28  O1  UNL     1      -2.047  51.415 -25.469  1.00  0.00    -0.345 OA
BRANCH  28  29
HETATM   29  C14 UNL     1      -0.751  51.025 -24.995  1.00  0.00     0.234 C 
BRANCH  29  30
HETATM   30  C15 UNL     1      -0.413  51.593 -23.655  1.00  0.00     0.051 A 
HETATM   31  C16 UNL     1      -0.927  51.257 -22.417  1.00  0.00     0.125 A 
HETATM   32  N5  UNL     1      -0.296  52.073 -21.516  1.00  0.00    -0.317 N 
HETATM   33  C17 UNL     1      -0.445  52.152 -20.133  1.00  0.00     0.098 A 
HETATM   34  C21 UNL     1       0.583  52.869 -22.243  1.00  0.00     0.111 A 
HETATM   35  C18 UNL     1       0.295  53.039 -19.446  1.00  0.00     0.018 A 
HETATM   36  C19 UNL     1       1.230  53.886 -20.170  1.00  0.00     0.005 A 
HETATM   37  C20 UNL     1       1.367  53.804 -21.508  1.00  0.00     0.049 A 
HETATM   38  N6  UNL     1       0.527  52.598 -23.529  1.00  0.00    -0.343 N 
ATOM     39  H6  UNL     1       1.064  53.038 -24.277  1.00  0.00     0.167 HD
ENDBRANCH  29  30
ENDBRANCH  28  29
ENDBRANCH  25  28
ENDBRANCH  14  22
BRANCH   1  40
HETATM   40  N1  UNL     1      -4.621  48.488 -32.012  1.00  0.00    -0.278 NA
HETATM   41  H1  UNL     1      -5.238  48.801 -32.758  1.00  0.00     0.126 HD
HETATM   42  H2  UNL     1      -4.118  47.658 -32.303  1.00  0.00     0.126 HD
ENDBRANCH   1  40
TORSDOF 5
ENDMDL
MODEL 3
REMARK minimizedAffinity -10.3337307
REMARK  5 active torsions:
REMARK  status: ('A' for Active; 'I' for Inactive)
REMARK    1  A    between atoms: N1_1  and  C1_2 
REMARK    2  A    between atoms: C9_15  and  C10_16 
REMARK    3  A    between atoms: C13_19  and  O1_20 
REMARK    4  A    between atoms: O1_20  and  C14_21 
REMARK    5  A    between atoms: C14_21  and  C15_22 
ROOT
HETATM    1  C1  UNL     1      -2.226  52.219 -26.218  1.00  0.00     0.146 C 
HETATM    2  N2  UNL     1      -3.448  52.487 -25.898  1.00  0.00    -0.171 N 
ATOM      3  H2  UNL     1      -3.984  53.203 -26.388  1.00  0.00     0.186 HD
HETATM    4  C2  UNL     1      -3.985  51.769 -24.878  1.00  0.00     0.689 A 
HETATM    5  N3  UNL     1      -5.231  51.763 -24.445  1.00  0.00    -0.189 N 
ATOM      6  H3  UNL     1      -6.007  52.319 -24.806  1.00  0.00     0.184 HD
HETATM    7  C3  UNL     1      -5.274  50.859 -23.412  1.00  0.00     0.079 A 
HETATM    8  C4  UNL     1      -6.359  50.477 -22.610  1.00  0.00     0.072 A 
HETATM    9  C5  UNL     1      -6.157  49.497 -21.632  1.00  0.00     0.104 A 
HETATM   10  C6  UNL     1      -4.893  48.927 -21.437  1.00  0.00     0.104 A 
HETATM   11  C7  UNL     1      -3.790  49.329 -22.201  1.00  0.00     0.072 A 
HETATM   12  C8  UNL     1      -4.024  50.289 -23.191  1.00  0.00     0.084 A 
HETATM   13  N4  UNL     1      -3.228  50.911 -24.113  1.00  0.00    -0.159 N 
HETATM   14  C9  UNL     1      -1.812  50.723 -24.383  1.00  0.00     0.221 C 
HETATM   15  N7  UNL     1      -1.400  51.299 -25.656  1.00  0.00    -0.242 NA
HETATM   16  O2  UNL     1      -4.633  48.025 -20.439  1.00  0.00    -0.348 OA
HETATM   17  C24 UNL     1      -5.373  46.815 -20.603  1.00  0.00     0.178 C 
HETATM   18  C25 UNL     1      -6.789  46.935 -20.062  1.00  0.00     0.053 C 
HETATM   19  C26 UNL     1      -7.634  47.846 -20.939  1.00  0.00     0.178 C 
HETATM   20  O3  UNL     1      -7.230  49.211 -20.829  1.00  0.00    -0.348 OA
HETATM   21  H17 UNL     1      -0.425  51.576 -25.673  1.00  0.00     0.132 HD
ENDROOT
BRANCH  14  22
HETATM   22  C10 UNL     1      -0.939  51.285 -23.270  1.00  0.00    -0.020 A 
HETATM   23  C11 UNL     1      -0.244  52.491 -23.464  1.00  0.00     0.013 A 
HETATM   24  C12 UNL     1       0.533  53.048 -22.440  1.00  0.00     0.037 A 
HETATM   25  C13 UNL     1       0.626  52.413 -21.203  1.00  0.00     0.069 A 
HETATM   26  C22 UNL     1      -0.069  51.220 -21.000  1.00  0.00     0.037 A 
HETATM   27  C23 UNL     1      -0.848  50.661 -22.016  1.00  0.00     0.013 A 
BRANCH  25  28
HETATM   28  O1  UNL     1       1.335  52.847 -20.118  1.00  0.00    -0.345 OA
BRANCH  28  29
HETATM   29  C14 UNL     1       0.610  53.210 -18.934  1.00  0.00     0.234 C 
BRANCH  29  30
HETATM   30  C15 UNL     1       1.073  52.488 -17.710  1.00  0.00     0.051 A 
HETATM   31  C16 UNL     1       0.497  51.404 -17.075  1.00  0.00     0.125 A 
HETATM   32  N5  UNL     1       1.301  51.130 -16.001  1.00  0.00    -0.317 N 
HETATM   33  C17 UNL     1       1.177  50.140 -15.028  1.00  0.00     0.098 A 
HETATM   34  C21 UNL     1       2.339  52.054 -16.031  1.00  0.00     0.111 A 
HETATM   35  C18 UNL     1       2.103  50.058 -14.058  1.00  0.00     0.018 A 
HETATM   36  C19 UNL     1       3.208  51.005 -14.057  1.00  0.00     0.005 A 
HETATM   37  C20 UNL     1       3.320  51.960 -15.002  1.00  0.00     0.049 A 
HETATM   38  N6  UNL     1       2.220  52.881 -17.048  1.00  0.00    -0.343 N 
ATOM     39  H6  UNL     1       2.843  53.650 -17.296  1.00  0.00     0.167 HD
ENDBRANCH  29  30
ENDBRANCH  28  29
ENDBRANCH  25  28
ENDBRANCH  14  22
BRANCH   1  40
HETATM   40  N1  UNL     1      -1.606  52.876 -27.227  1.00  0.00    -0.278 NA
HETATM   41  H1  UNL     1      -2.277  53.463 -27.718  1.00  0.00     0.126 HD
HETATM   42  H2  UNL     1      -1.148  52.252 -27.880  1.00  0.00     0.126 HD
ENDBRANCH   1  40
TORSDOF 5
ENDMDL
MODEL 4
REMARK minimizedAffinity -10.1067247
REMARK  5 active torsions:
REMARK  status: ('A' for Active; 'I' for Inactive)
REMARK    1  A    between atoms: N1_1  and  C1_2 
REMARK    2  A    between atoms: C9_15  and  C10_16 
REMARK    3  A    between atoms: C13_19  and  O1_20 
REMARK    4  A    between atoms: O1_20  and  C14_21 
REMARK    5  A    between atoms: C14_21  and  C15_22 
ROOT
HETATM    1  C1  UNL     1      -0.257  53.485 -27.027  1.00  0.00     0.146 C 
HETATM    2  N2  UNL     1       0.654  53.162 -26.170  1.00  0.00    -0.171 N 
ATOM      3  H2  UNL     1       1.646  53.267 -26.378  1.00  0.00     0.186 HD
HETATM    4  C2  UNL     1       0.225  52.674 -24.977  1.00  0.00     0.689 A 
HETATM    5  N3  UNL     1       0.936  52.390 -23.903  1.00  0.00    -0.189 N 
ATOM      6  H3  UNL     1       1.946  52.480 -23.796  1.00  0.00     0.184 HD
HETATM    7  C3  UNL     1       0.044  51.948 -22.957  1.00  0.00     0.079 A 
HETATM    8  C4  UNL     1       0.279  51.521 -21.643  1.00  0.00     0.072 A 
HETATM    9  C5  UNL     1      -0.813  51.147 -20.853  1.00  0.00     0.104 A 
HETATM   10  C6  UNL     1      -2.115  51.172 -21.369  1.00  0.00     0.104 A 
HETATM   11  C7  UNL     1      -2.362  51.556 -22.693  1.00  0.00     0.072 A 
HETATM   12  C8  UNL     1      -1.257  51.952 -23.453  1.00  0.00     0.084 A 
HETATM   13  N4  UNL     1      -1.100  52.385 -24.742  1.00  0.00    -0.159 N 
HETATM   14  C9  UNL     1      -2.107  52.611 -25.765  1.00  0.00     0.221 C 
HETATM   15  N7  UNL     1      -1.604  53.398 -26.884  1.00  0.00    -0.242 NA
HETATM   16  O2  UNL     1      -3.203  50.739 -20.658  1.00  0.00    -0.348 OA
HETATM   17  C24 UNL     1      -3.435  51.534 -19.495  1.00  0.00     0.178 C 
HETATM   18  C25 UNL     1      -2.560  51.107 -18.327  1.00  0.00     0.053 C 
HETATM   19  C26 UNL     1      -1.104  51.472 -18.573  1.00  0.00     0.178 C 
HETATM   20  O3  UNL     1      -0.522  50.671 -19.602  1.00  0.00    -0.348 OA
HETATM   21  H17 UNL     1      -2.085  53.206 -27.756  1.00  0.00     0.132 HD
ENDROOT
BRANCH  14  22
HETATM   22  C10 UNL     1      -2.693  51.308 -26.289  1.00  0.00    -0.020 A 
HETATM   23  C11 UNL     1      -3.092  50.306 -25.388  1.00  0.00     0.013 A 
HETATM   24  C12 UNL     1      -3.672  49.116 -25.845  1.00  0.00     0.037 A 
HETATM   25  C13 UNL     1      -3.867  48.907 -27.209  1.00  0.00     0.069 A 
HETATM   26  C22 UNL     1      -3.483  49.901 -28.109  1.00  0.00     0.037 A 
HETATM   27  C23 UNL     1      -2.907  51.093 -27.659  1.00  0.00     0.013 A 
BRANCH  25  28
HETATM   28  O1  UNL     1      -4.428  47.804 -27.790  1.00  0.00    -0.345 OA
BRANCH  28  29
HETATM   29  C14 UNL     1      -5.849  47.788 -27.988  1.00  0.00     0.234 C 
BRANCH  29  30
HETATM   30  C15 UNL     1      -6.247  47.730 -29.427  1.00  0.00     0.051 A 
HETATM   31  C16 UNL     1      -5.468  47.438 -30.530  1.00  0.00     0.125 A 
HETATM   32  N5  UNL     1      -6.302  47.525 -31.612  1.00  0.00    -0.317 N 
HETATM   33  C17 UNL     1      -6.028  47.330 -32.963  1.00  0.00     0.098 A 
HETATM   34  C21 UNL     1      -7.560  47.858 -31.122  1.00  0.00     0.111 A 
HETATM   35  C18 UNL     1      -7.022  47.466 -33.859  1.00  0.00     0.018 A 
HETATM   36  C19 UNL     1      -8.354  47.810 -33.384  1.00  0.00     0.005 A 
HETATM   37  C20 UNL     1      -8.610  47.997 -32.074  1.00  0.00     0.049 A 
HETATM   38  N6  UNL     1      -7.548  47.988 -29.812  1.00  0.00    -0.343 N 
ATOM     39  H6  UNL     1      -8.334  48.230 -29.208  1.00  0.00     0.167 HD
ENDBRANCH  29  30
ENDBRANCH  28  29
ENDBRANCH  25  28
ENDBRANCH  14  22
BRANCH   1  40
HETATM   40  N1  UNL     1       0.072  53.988 -28.241  1.00  0.00    -0.278 NA
HETATM   41  H1  UNL     1       1.073  54.168 -28.278  1.00  0.00     0.126 HD
HETATM   42  H2  UNL     1      -0.441  54.831 -28.469  1.00  0.00     0.126 HD
ENDBRANCH   1  40
TORSDOF 5
ENDMDL
MODEL 5
REMARK minimizedAffinity -9.98719692
REMARK  5 active torsions:
REMARK  status: ('A' for Active; 'I' for Inactive)
REMARK    1  A    between atoms: N1_1  and  C1_2 
REMARK    2  A    between atoms: C9_15  and  C10_16 
REMARK    3  A    between atoms: C13_19  and  O1_20 
REMARK    4  A    between atoms: O1_20  and  C14_21 
REMARK    5  A    between atoms: C14_21  and  C15_22 
ROOT
HETATM    1  C1  UNL     1      -0.675  53.280 -27.277  1.00  0.00     0.146 C 
HETATM    2  N2  UNL     1       0.314  52.981 -26.502  1.00  0.00    -0.171 N 
ATOM      3  H2  UNL     1       1.281  53.064 -26.815  1.00  0.00     0.186 HD
HETATM    4  C2  UNL     1       0.004  52.549 -25.252  1.00  0.00     0.689 A 
HETATM    5  N3  UNL     1       0.817  52.302 -24.244  1.00  0.00    -0.189 N 
ATOM      6  H3  UNL     1       1.834  52.383 -24.244  1.00  0.00     0.184 HD
HETATM    7  C3  UNL     1       0.022  51.912 -23.195  1.00  0.00     0.079 A 
HETATM    8  C4  UNL     1       0.385  51.538 -21.894  1.00  0.00     0.072 A 
HETATM    9  C5  UNL     1      -0.625  51.213 -20.982  1.00  0.00     0.104 A 
HETATM   10  C6  UNL     1      -1.972  51.233 -21.366  1.00  0.00     0.104 A 
HETATM   11  C7  UNL     1      -2.348  51.564 -22.673  1.00  0.00     0.072 A 
HETATM   12  C8  UNL     1      -1.323  51.913 -23.557  1.00  0.00     0.084 A 
HETATM   13  N4  UNL     1      -1.293  52.288 -24.873  1.00  0.00    -0.159 N 
HETATM   14  C9  UNL     1      -2.396  52.485 -25.798  1.00  0.00     0.221 C 
HETATM   15  N7  UNL     1      -2.002  53.217 -26.995  1.00  0.00    -0.242 NA
HETATM   16  O2  UNL     1      -2.986  50.845 -20.530  1.00  0.00    -0.348 OA
HETATM   17  C24 UNL     1      -3.092  51.692 -19.385  1.00  0.00     0.178 C 
HETATM   18  C25 UNL     1      -2.107  51.303 -18.294  1.00  0.00     0.053 C 
HETATM   19  C26 UNL     1      -0.681  51.637 -18.701  1.00  0.00     0.178 C 
HETATM   20  O3  UNL     1      -0.213  50.785 -19.747  1.00  0.00    -0.348 OA
HETATM   21  H17 UNL     1      -2.571  52.995 -27.805  1.00  0.00     0.132 HD
ENDROOT
BRANCH  14  22
HETATM   22  C10 UNL     1      -3.044  51.169 -26.203  1.00  0.00    -0.020 A 
HETATM   23  C11 UNL     1      -3.722  50.396 -25.245  1.00  0.00     0.013 A 
HETATM   24  C12 UNL     1      -4.361  49.203 -25.602  1.00  0.00     0.037 A 
HETATM   25  C13 UNL     1      -4.338  48.762 -26.924  1.00  0.00     0.069 A 
HETATM   26  C22 UNL     1      -3.676  49.528 -27.884  1.00  0.00     0.037 A 
HETATM   27  C23 UNL     1      -3.040  50.722 -27.534  1.00  0.00     0.013 A 
BRANCH  25  28
HETATM   28  O1  UNL     1      -4.926  47.628 -27.413  1.00  0.00    -0.345 OA
BRANCH  28  29
HETATM   29  C14 UNL     1      -5.684  47.725 -28.627  1.00  0.00     0.234 C 
BRANCH  29  30
HETATM   30  C15 UNL     1      -7.161  47.772 -28.402  1.00  0.00     0.051 A 
HETATM   31  C16 UNL     1      -8.182  47.518 -29.298  1.00  0.00     0.125 A 
HETATM   32  N5  UNL     1      -9.346  47.705 -28.602  1.00  0.00    -0.317 N 
HETATM   33  C17 UNL     1     -10.666  47.583 -29.030  1.00  0.00     0.098 A 
HETATM   34  C21 UNL     1      -8.985  48.058 -27.307  1.00  0.00     0.111 A 
HETATM   35  C18 UNL     1     -11.660  47.815 -28.155  1.00  0.00     0.018 A 
HETATM   36  C19 UNL     1     -11.324  48.182 -26.788  1.00  0.00     0.005 A 
HETATM   37  C20 UNL     1     -10.043  48.298 -26.383  1.00  0.00     0.049 A 
HETATM   38  N6  UNL     1      -7.678  48.106 -27.166  1.00  0.00    -0.343 N 
ATOM     39  H6  UNL     1      -7.155  48.342 -26.321  1.00  0.00     0.167 HD
ENDBRANCH  29  30
ENDBRANCH  28  29
ENDBRANCH  25  28
ENDBRANCH  14  22
BRANCH   1  40
HETATM   40  N1  UNL     1      -0.467  53.726 -28.539  1.00  0.00    -0.278 NA
HETATM   41  H1  UNL     1       0.527  53.892 -28.684  1.00  0.00     0.126 HD
HETATM   42  H2  UNL     1      -0.993  54.566 -28.750  1.00  0.00     0.126 HD
ENDBRANCH   1  40
TORSDOF 5
ENDMDL
MODEL 6
REMARK minimizedAffinity -9.94529152
REMARK  5 active torsions:
REMARK  status: ('A' for Active; 'I' for Inactive)
REMARK    1  A    between atoms: N1_1  and  C1_2 
REMARK    2  A    between atoms: C9_15  and  C10_16 
REMARK    3  A    between atoms: C13_19  and  O1_20 
REMARK    4  A    between atoms: O1_20  and  C14_21 
REMARK    5  A    between atoms: C14_21  and  C15_22 
ROOT
HETATM    1  C1  UNL     1      -0.203  53.494 -25.140  1.00  0.00     0.146 C 
HETATM    2  N2  UNL     1       0.596  52.995 -24.255  1.00  0.00    -0.171 N 
ATOM      3  H2  UNL     1       1.596  53.193 -24.266  1.00  0.00     0.186 HD
HETATM    4  C2  UNL     1       0.039  52.195 -23.310  1.00  0.00     0.689 A 
HETATM    5  N3  UNL     1       0.605  51.671 -22.241  1.00  0.00    -0.189 N 
ATOM      6  H3  UNL     1       1.579  51.772 -21.952  1.00  0.00     0.184 HD
HETATM    7  C3  UNL     1      -0.376  50.961 -21.595  1.00  0.00     0.079 A 
HETATM    8  C4  UNL     1      -0.301  50.215 -20.410  1.00  0.00     0.072 A 
HETATM    9  C5  UNL     1      -1.463  49.602 -19.928  1.00  0.00     0.104 A 
HETATM   10  C6  UNL     1      -2.672  49.707 -20.626  1.00  0.00     0.104 A 
HETATM   11  C7  UNL     1      -2.754  50.412 -21.833  1.00  0.00     0.072 A 
HETATM   12  C8  UNL     1      -1.586  51.039 -22.278  1.00  0.00     0.084 A 
HETATM   13  N4  UNL     1      -1.278  51.800 -23.374  1.00  0.00    -0.159 N 
HETATM   14  C9  UNL     1      -2.139  52.243 -24.457  1.00  0.00     0.221 C 
HETATM   15  N7  UNL     1      -1.545  53.315 -25.245  1.00  0.00    -0.242 NA
HETATM   16  O2  UNL     1      -3.813  49.057 -20.233  1.00  0.00    -0.348 OA
HETATM   17  C24 UNL     1      -4.278  49.511 -18.962  1.00  0.00     0.178 C 
HETATM   18  C25 UNL     1      -3.551  48.830 -17.813  1.00  0.00     0.053 C 
HETATM   19  C26 UNL     1      -2.110  49.307 -17.718  1.00  0.00     0.178 C 
HETATM   20  O3  UNL     1      -1.320  48.828 -18.807  1.00  0.00    -0.348 OA
HETATM   21  H17 UNL     1      -1.875  53.338 -26.204  1.00  0.00     0.132 HD
ENDROOT
BRANCH  14  22
HETATM   22  C10 UNL     1      -2.533  51.099 -25.380  1.00  0.00    -0.020 A 
HETATM   23  C11 UNL     1      -2.564  49.782 -24.891  1.00  0.00     0.013 A 
HETATM   24  C12 UNL     1      -2.963  48.718 -25.710  1.00  0.00     0.037 A 
HETATM   25  C13 UNL     1      -3.342  48.951 -27.031  1.00  0.00     0.069 A 
HETATM   26  C22 UNL     1      -3.323  50.258 -27.521  1.00  0.00     0.037 A 
HETATM   27  C23 UNL     1      -2.929  51.324 -26.707  1.00  0.00     0.013 A 
BRANCH  25  28
HETATM   28  O1  UNL     1      -3.761  48.014 -27.933  1.00  0.00    -0.345 OA
BRANCH  28  29
HETATM   29  C14 UNL     1      -4.470  48.462 -29.098  1.00  0.00     0.234 C 
BRANCH  29  30
HETATM   30  C15 UNL     1      -5.929  48.138 -29.064  1.00  0.00     0.051 A 
HETATM   31  C16 UNL     1      -6.598  47.236 -28.259  1.00  0.00     0.125 A 
HETATM   32  N5  UNL     1      -7.914  47.311 -28.627  1.00  0.00    -0.317 N 
HETATM   33  C17 UNL     1      -9.015  46.612 -28.136  1.00  0.00     0.098 A 
HETATM   34  C21 UNL     1      -7.995  48.263 -29.637  1.00  0.00     0.111 A 
HETATM   35  C18 UNL     1     -10.231  46.860 -28.654  1.00  0.00     0.018 A 
HETATM   36  C19 UNL     1     -10.357  47.854 -29.710  1.00  0.00     0.005 A 
HETATM   37  C20 UNL     1      -9.286  48.524 -30.179  1.00  0.00     0.049 A 
HETATM   38  N6  UNL     1      -6.813  48.771 -29.917  1.00  0.00    -0.343 N 
ATOM     39  H6  UNL     1      -6.596  49.481 -30.616  1.00  0.00     0.167 HD
ENDBRANCH  29  30
ENDBRANCH  28  29
ENDBRANCH  25  28
ENDBRANCH  14  22
BRANCH   1  40
HETATM   40  N1  UNL     1       0.257  54.309 -26.119  1.00  0.00    -0.278 NA
HETATM   41  H1  UNL     1       1.235  54.534 -25.946  1.00  0.00     0.126 HD
HETATM   42  H2  UNL     1      -0.285  55.160 -26.208  1.00  0.00     0.126 HD
ENDBRANCH   1  40
TORSDOF 5
ENDMDL
MODEL 7
REMARK minimizedAffinity -9.89748383
REMARK  5 active torsions:
REMARK  status: ('A' for Active; 'I' for Inactive)
REMARK    1  A    between atoms: N1_1  and  C1_2 
REMARK    2  A    between atoms: C9_15  and  C10_16 
REMARK    3  A    between atoms: C13_19  and  O1_20 
REMARK    4  A    between atoms: O1_20  and  C14_21 
REMARK    5  A    between atoms: C14_21  and  C15_22 
ROOT
HETATM    1  C1  UNL     1      10.246  61.660 -32.320  1.00  0.00     0.146 C 
HETATM    2  N2  UNL     1       9.059  61.317 -32.697  1.00  0.00    -0.171 N 
ATOM      3  H2  UNL     1       8.587  60.504 -32.302  1.00  0.00     0.186 HD
HETATM    4  C2  UNL     1       8.470  62.091 -33.645  1.00  0.00     0.689 A 
HETATM    5  N3  UNL     1       7.236  62.029 -34.105  1.00  0.00    -0.189 N 
ATOM      6  H3  UNL     1       6.511  61.366 -33.826  1.00  0.00     0.184 HD
HETATM    7  C3  UNL     1       7.120  63.034 -35.033  1.00  0.00     0.079 A 
HETATM    8  C4  UNL     1       6.015  63.400 -35.815  1.00  0.00     0.072 A 
HETATM    9  C5  UNL     1       6.136  64.498 -36.674  1.00  0.00     0.104 A 
HETATM   10  C6  UNL     1       7.343  65.200 -36.776  1.00  0.00     0.104 A 
HETATM   11  C7  UNL     1       8.468  64.820 -36.034  1.00  0.00     0.072 A 
HETATM   12  C8  UNL     1       8.313  63.739 -35.161  1.00  0.00     0.084 A 
HETATM   13  N4  UNL     1       9.153  63.095 -34.293  1.00  0.00    -0.159 N 
HETATM   14  C9  UNL     1      10.540  63.383 -33.970  1.00  0.00     0.221 C 
HETATM   15  N7  UNL     1      10.988  62.710 -32.758  1.00  0.00    -0.242 NA
HETATM   16  O2  UNL     1       7.529  66.229 -37.662  1.00  0.00    -0.348 OA
HETATM   17  C24 UNL     1       6.675  67.339 -37.384  1.00  0.00     0.178 C 
HETATM   18  C25 UNL     1       5.285  67.149 -37.969  1.00  0.00     0.053 C 
HETATM   19  C26 UNL     1       4.519  66.071 -37.218  1.00  0.00     0.178 C 
HETATM   20  O3  UNL     1       5.052  64.770 -37.467  1.00  0.00    -0.348 OA
HETATM   21  H17 UNL     1      11.984  62.524 -32.748  1.00  0.00     0.132 HD
ENDROOT
BRANCH  14  22
HETATM   22  C10 UNL     1      11.478  63.032 -35.116  1.00  0.00    -0.020 A 
HETATM   23  C11 UNL     1      12.816  63.462 -35.086  1.00  0.00     0.013 A 
HETATM   24  C12 UNL     1      13.707  63.116 -36.109  1.00  0.00     0.037 A 
HETATM   25  C13 UNL     1      13.280  62.332 -37.179  1.00  0.00     0.069 A 
HETATM   26  C22 UNL     1      11.956  61.893 -37.212  1.00  0.00     0.037 A 
HETATM   27  C23 UNL     1      11.063  62.232 -36.192  1.00  0.00     0.013 A 
BRANCH  25  28
HETATM   28  O1  UNL     1      14.042  61.913 -38.234  1.00  0.00    -0.345 OA
BRANCH  28  29
HETATM   29  C14 UNL     1      14.364  60.519 -38.329  1.00  0.00     0.234 C 
BRANCH  29  30
HETATM   30  C15 UNL     1      15.439  60.094 -37.382  1.00  0.00     0.051 A 
HETATM   31  C16 UNL     1      16.472  60.843 -36.851  1.00  0.00     0.125 A 
HETATM   32  N5  UNL     1      17.181  59.988 -36.050  1.00  0.00    -0.317 N 
HETATM   33  C17 UNL     1      18.319  60.228 -35.283  1.00  0.00     0.098 A 
HETATM   34  C21 UNL     1      16.545  58.754 -36.119  1.00  0.00     0.111 A 
HETATM   35  C18 UNL     1      18.845  59.223 -34.562  1.00  0.00     0.018 A 
HETATM   36  C19 UNL     1      18.205  57.916 -34.604  1.00  0.00     0.005 A 
HETATM   37  C20 UNL     1      17.105  57.694 -35.350  1.00  0.00     0.049 A 
HETATM   38  N6  UNL     1      15.498  58.795 -36.916  1.00  0.00    -0.343 N 
ATOM     39  H6  UNL     1      14.864  58.028 -37.141  1.00  0.00     0.167 HD
ENDBRANCH  29  30
ENDBRANCH  28  29
ENDBRANCH  25  28
ENDBRANCH  14  22
BRANCH   1  40
HETATM   40  N1  UNL     1      10.912  60.955 -31.374  1.00  0.00    -0.278 NA
HETATM   41  H1  UNL     1      10.292  60.258 -30.967  1.00  0.00     0.126 HD
HETATM   42  H2  UNL     1      11.299  61.543 -30.646  1.00  0.00     0.126 HD
ENDBRANCH   1  40
TORSDOF 5
ENDMDL
MODEL 8
REMARK minimizedAffinity -9.89180279
REMARK  5 active torsions:
REMARK  status: ('A' for Active; 'I' for Inactive)
REMARK    1  A    between atoms: N1_1  and  C1_2 
REMARK    2  A    between atoms: C9_15  and  C10_16 
REMARK    3  A    between atoms: C13_19  and  O1_20 
REMARK    4  A    between atoms: O1_20  and  C14_21 
REMARK    5  A    between atoms: C14_21  and  C15_22 
ROOT
HETATM    1  C1  UNL     1      -6.007  49.461 -21.244  1.00  0.00     0.146 C 
HETATM    2  N2  UNL     1      -5.715  50.711 -21.389  1.00  0.00    -0.171 N 
ATOM      3  H2  UNL     1      -6.169  51.434 -20.832  1.00  0.00     0.186 HD
HETATM    4  C2  UNL     1      -4.773  51.015 -22.319  1.00  0.00     0.689 A 
HETATM    5  N3  UNL     1      -4.215  52.183 -22.571  1.00  0.00    -0.189 N 
ATOM      6  H3  UNL     1      -4.416  53.070 -22.108  1.00  0.00     0.184 HD
HETATM    7  C3  UNL     1      -3.312  51.968 -23.583  1.00  0.00     0.079 A 
HETATM    8  C4  UNL     1      -2.458  52.878 -24.222  1.00  0.00     0.072 A 
HETATM    9  C5  UNL     1      -1.593  52.403 -25.213  1.00  0.00     0.104 A 
HETATM   10  C6  UNL     1      -1.596  51.052 -25.582  1.00  0.00     0.104 A 
HETATM   11  C7  UNL     1      -2.473  50.140 -24.984  1.00  0.00     0.072 A 
HETATM   12  C8  UNL     1      -3.307  50.633 -23.976  1.00  0.00     0.084 A 
HETATM   13  N4  UNL     1      -4.265  50.068 -23.179  1.00  0.00    -0.159 N 
HETATM   14  C9  UNL     1      -4.708  48.685 -23.111  1.00  0.00     0.221 C 
HETATM   15  N7  UNL     1      -5.485  48.401 -21.912  1.00  0.00    -0.242 NA
HETATM   16  O2  UNL     1      -0.824  50.561 -26.602  1.00  0.00    -0.348 OA
HETATM   17  C24 UNL     1       0.572  50.689 -26.328  1.00  0.00     0.178 C 
HETATM   18  C25 UNL     1       1.094  52.077 -26.664  1.00  0.00     0.053 C 
HETATM   19  C26 UNL     1       0.567  53.112 -25.682  1.00  0.00     0.178 C 
HETATM   20  O3  UNL     1      -0.831  53.344 -25.855  1.00  0.00    -0.348 OA
HETATM   21  H17 UNL     1      -6.147  47.643 -22.035  1.00  0.00     0.132 HD
ENDROOT
BRANCH  14  22
HETATM   22  C10 UNL     1      -5.511  48.281 -24.339  1.00  0.00    -0.020 A 
HETATM   23  C11 UNL     1      -4.929  48.358 -25.616  1.00  0.00     0.013 A 
HETATM   24  C12 UNL     1      -5.634  47.953 -26.756  1.00  0.00     0.037 A 
HETATM   25  C13 UNL     1      -6.933  47.461 -26.641  1.00  0.00     0.069 A 
HETATM   26  C22 UNL     1      -7.515  47.372 -25.376  1.00  0.00     0.037 A 
HETATM   27  C23 UNL     1      -6.815  47.771 -24.234  1.00  0.00     0.013 A 
BRANCH  25  28
HETATM   28  O1  UNL     1      -7.730  47.022 -27.662  1.00  0.00    -0.345 OA
BRANCH  28  29
HETATM   29  C14 UNL     1      -7.922  47.885 -28.792  1.00  0.00     0.234 C 
BRANCH  29  30
HETATM   30  C15 UNL     1      -6.974  47.611 -29.915  1.00  0.00     0.051 A 
HETATM   31  C16 UNL     1      -6.456  48.492 -30.845  1.00  0.00     0.125 A 
HETATM   32  N5  UNL     1      -5.648  47.744 -31.659  1.00  0.00    -0.317 N 
HETATM   33  C17 UNL     1      -4.889  48.136 -32.759  1.00  0.00     0.098 A 
HETATM   34  C21 UNL     1      -5.701  46.438 -31.186  1.00  0.00     0.111 A 
HETATM   35  C18 UNL     1      -4.158  47.214 -33.410  1.00  0.00     0.018 A 
HETATM   36  C19 UNL     1      -4.183  45.837 -32.943  1.00  0.00     0.005 A 
HETATM   37  C20 UNL     1      -4.922  45.467 -31.878  1.00  0.00     0.049 A 
HETATM   38  N6  UNL     1      -6.494  46.336 -30.140  1.00  0.00    -0.343 N 
ATOM     39  H6  UNL     1      -6.709  45.492 -29.608  1.00  0.00     0.167 HD
ENDBRANCH  29  30
ENDBRANCH  28  29
ENDBRANCH  25  28
ENDBRANCH  14  22
BRANCH   1  40
HETATM   40  N1  UNL     1      -6.928  49.058 -20.336  1.00  0.00    -0.278 NA
HETATM   41  H1  UNL     1      -7.208  49.848 -19.759  1.00  0.00     0.126 HD
HETATM   42  H2  UNL     1      -6.598  48.301 -19.751  1.00  0.00     0.126 HD
ENDBRANCH   1  40
TORSDOF 5
ENDMDL
MODEL 9
REMARK minimizedAffinity -9.87591839
REMARK  5 active torsions:
REMARK  status: ('A' for Active; 'I' for Inactive)
REMARK    1  A    between atoms: N1_1  and  C1_2 
REMARK    2  A    between atoms: C9_15  and  C10_16 
REMARK    3  A    between atoms: C13_19  and  O1_20 
REMARK    4  A    between atoms: O1_20  and  C14_21 
REMARK    5  A    between atoms: C14_21  and  C15_22 
ROOT
HETATM    1  C1  UNL     1      10.341  61.701 -32.424  1.00  0.00     0.146 C 
HETATM    2  N2  UNL     1       9.114  61.392 -32.682  1.00  0.00    -0.171 N 
ATOM      3  H2  UNL     1       8.646  60.622 -32.206  1.00  0.00     0.186 HD
HETATM    4  C2  UNL     1       8.477  62.144 -33.617  1.00  0.00     0.689 A 
HETATM    5  N3  UNL     1       7.207  62.115 -33.968  1.00  0.00    -0.189 N 
ATOM      6  H3  UNL     1       6.483  61.499 -33.596  1.00  0.00     0.184 HD
HETATM    7  C3  UNL     1       7.053  63.077 -34.936  1.00  0.00     0.079 A 
HETATM    8  C4  UNL     1       5.901  63.453 -35.640  1.00  0.00     0.072 A 
HETATM    9  C5  UNL     1       5.991  64.500 -36.564  1.00  0.00     0.104 A 
HETATM   10  C6  UNL     1       7.212  65.143 -36.802  1.00  0.00     0.104 A 
HETATM   11  C7  UNL     1       8.380  64.751 -36.138  1.00  0.00     0.072 A 
HETATM   12  C8  UNL     1       8.258  63.722 -35.199  1.00  0.00     0.084 A 
HETATM   13  N4  UNL     1       9.142  63.084 -34.372  1.00  0.00    -0.159 N 
HETATM   14  C9  UNL     1      10.562  63.326 -34.182  1.00  0.00     0.221 C 
HETATM   15  N7  UNL     1      11.084  62.694 -32.977  1.00  0.00    -0.242 NA
HETATM   16  O2  UNL     1       7.362  66.117 -37.754  1.00  0.00    -0.348 OA
HETATM   17  C24 UNL     1       6.580  67.277 -37.465  1.00  0.00     0.178 C 
HETATM   18  C25 UNL     1       5.138  67.120 -37.921  1.00  0.00     0.053 C 
HETATM   19  C26 UNL     1       4.397  66.115 -37.053  1.00  0.00     0.178 C 
HETATM   20  O3  UNL     1       4.855  64.781 -37.276  1.00  0.00    -0.348 OA
HETATM   21  H17 UNL     1      12.070  62.466 -33.040  1.00  0.00     0.132 HD
ENDROOT
BRANCH  14  22
HETATM   22  C10 UNL     1      11.384  62.878 -35.382  1.00  0.00    -0.020 A 
HETATM   23  C11 UNL     1      12.770  63.105 -35.408  1.00  0.00     0.013 A 
HETATM   24  C12 UNL     1      13.553  62.666 -36.483  1.00  0.00     0.037 A 
HETATM   25  C13 UNL     1      12.965  61.988 -37.550  1.00  0.00     0.069 A 
HETATM   26  C22 UNL     1      11.590  61.750 -37.527  1.00  0.00     0.037 A 
HETATM   27  C23 UNL     1      10.805  62.183 -36.455  1.00  0.00     0.013 A 
BRANCH  25  28
HETATM   28  O1  UNL     1      13.606  61.496 -38.652  1.00  0.00    -0.345 OA
BRANCH  28  29
HETATM   29  C14 UNL     1      12.939  60.499 -39.438  1.00  0.00     0.234 C 
BRANCH  29  30
HETATM   30  C15 UNL     1      13.719  59.232 -39.576  1.00  0.00     0.051 A 
HETATM   31  C16 UNL     1      14.585  58.646 -38.673  1.00  0.00     0.125 A 
HETATM   32  N5  UNL     1      15.045  57.507 -39.279  1.00  0.00    -0.317 N 
HETATM   33  C17 UNL     1      15.943  56.551 -38.811  1.00  0.00     0.098 A 
HETATM   34  C21 UNL     1      14.432  57.443 -40.526  1.00  0.00     0.111 A 
HETATM   35  C18 UNL     1      16.245  55.500 -39.592  1.00  0.00     0.018 A 
HETATM   36  C19 UNL     1      15.621  55.394 -40.902  1.00  0.00     0.005 A 
HETATM   37  C20 UNL     1      14.753  56.324 -41.348  1.00  0.00     0.049 A 
HETATM   38  N6  UNL     1      13.634  58.470 -40.725  1.00  0.00    -0.343 N 
ATOM     39  H6  UNL     1      13.071  58.663 -41.553  1.00  0.00     0.167 HD
ENDBRANCH  29  30
ENDBRANCH  28  29
ENDBRANCH  25  28
ENDBRANCH  14  22
BRANCH   1  40
HETATM   40  N1  UNL     1      11.057  61.015 -31.501  1.00  0.00    -0.278 NA
HETATM   41  H1  UNL     1      10.448  60.366 -31.008  1.00  0.00     0.126 HD
HETATM   42  H2  UNL     1      11.528  61.620 -30.840  1.00  0.00     0.126 HD
ENDBRANCH   1  40
TORSDOF 5
ENDMDL
