MODEL 1
REMARK minimizedAffinity -8.56162739
REMARK CNNscore 0.405642003
REMARK CNNaffinity 5.68852282
REMARK  8 active torsions:
REMARK  status: ('A' for Active; 'I' for Inactive)
REMARK    1  A    between atoms: C2_2  and  C4_4 
REMARK    2  A    between atoms: C6_6  and  N1_7 
REMARK       I    between atoms: N1_7  and  C7_8 
REMARK    3  A    between atoms: C7_8  and  C8_10 
REMARK    4  A    between atoms: N2_13  and  C11_14 
REMARK    5  A    between atoms: C11_14  and  C12_15 
REMARK       I    between atoms: C12_15  and  N3_17 
REMARK    6  A    between atoms: N4_20  and  C15_21 
REMARK    7  A    between atoms: C18_24  and  C19_25 
REMARK    8  A    between atoms: C30_40  and  O3_41 
ROOT
HETATM    1  C12 UNL     1      -8.588  47.109 -30.412  1.00  0.00     0.248 C 
HETATM    2  O2  UNL     1      -8.167  47.143 -31.573  1.00  0.00    -0.271 OA
HETATM    3  N3  UNL     1      -7.751  47.357 -29.325  1.00  0.00    -0.348 N 
HETATM    4  C13 UNL     1      -8.247  47.630 -27.969  1.00  0.00     0.145 C 
HETATM    5  C14 UNL     1      -7.180  47.423 -26.870  1.00  0.00     0.143 C 
HETATM    6  N4  UNL     1      -5.918  48.121 -27.214  1.00  0.00    -0.378 N 
HETATM    7  C25 UNL     1      -5.397  47.715 -28.537  1.00  0.00     0.143 C 
HETATM    8  C26 UNL     1      -6.448  47.955 -29.631  1.00  0.00     0.145 C 
ENDROOT
BRANCH   1   9
HETATM    9  C11 UNL     1     -10.065  46.770 -30.160  1.00  0.00     0.374 C 
BRANCH   9  10
HETATM   10  N2  UNL     1     -10.346  45.314 -30.271  1.00  0.00     0.098 N 
HETATM   11  C10 UNL     1      -9.686  44.539 -29.204  1.00  0.00     0.274 C 
HETATM   12  C9  UNL     1     -10.654  44.546 -28.042  1.00  0.00     0.046 C 
HETATM   13  C8  UNL     1     -11.997  44.395 -28.737  1.00  0.00     0.108 C 
HETATM   14  C27 UNL     1     -11.798  45.074 -30.093  1.00  0.00     0.287 C 
BRANCH  13  15
HETATM   15  C7  UNL     1     -13.164  44.987 -27.962  1.00  0.00     0.228 C 
HETATM   16  N1  UNL     1     -14.377  44.415 -28.320  1.00  0.00    -0.327 N 
HETATM   17  H9  UNL     1     -14.344  43.643 -28.973  1.00  0.00     0.169 HD
HETATM   18  O1  UNL     1     -13.000  45.854 -27.113  1.00  0.00    -0.273 OA
BRANCH  16  19
HETATM   19  C6  UNL     1     -15.650  44.691 -27.767  1.00  0.00     0.035 A 
HETATM   20  C5  UNL     1     -15.858  45.478 -26.628  1.00  0.00     0.039 A 
HETATM   21  C4  UNL     1     -17.154  45.728 -26.117  1.00  0.00    -0.019 A 
HETATM   22  C30 UNL     1     -18.235  45.112 -26.763  1.00  0.00     0.072 A 
HETATM   23  C29 UNL     1     -18.039  44.337 -27.906  1.00  0.00     0.039 A 
HETATM   24  C28 UNL     1     -16.754  44.134 -28.412  1.00  0.00     0.032 A 
BRANCH  21  25
HETATM   25  C2  UNL     1     -17.260  46.663 -24.920  1.00  0.00     0.013 C 
HETATM   26  C1  UNL     1     -18.624  46.616 -24.228  1.00  0.00     0.015 C 
HETATM   27  C3  UNL     1     -16.110  46.471 -23.929  1.00  0.00     0.015 C 
ENDBRANCH  21  25
BRANCH  22  28
HETATM   28  O3  UNL     1     -19.531  45.210 -26.347  1.00  0.00    -0.360 OA
HETATM   29  H36 UNL     1     -19.544  45.514 -25.426  1.00  0.00     0.217 HD
ENDBRANCH  22  28
ENDBRANCH  16  19
ENDBRANCH  13  15
ENDBRANCH   9  10
ENDBRANCH   1   9
BRANCH   6  30
HETATM   30  C15 UNL     1      -5.001  48.251 -26.160  1.00  0.00     0.030 A 
HETATM   31  C16 UNL     1      -3.632  48.481 -26.352  1.00  0.00     0.030 A 
HETATM   32  C17 UNL     1      -2.759  48.691 -25.272  1.00  0.00     0.017 A 
HETATM   33  C18 UNL     1      -3.214  48.690 -23.945  1.00  0.00     0.008 A 
HETATM   34  C23 UNL     1      -4.580  48.436 -23.750  1.00  0.00     0.017 A 
HETATM   35  C24 UNL     1      -5.450  48.224 -24.832  1.00  0.00     0.030 A 
BRANCH  33  36
HETATM   36  C19 UNL     1      -2.308  48.990 -22.816  1.00  0.00     0.115 A 
HETATM   37  N5  UNL     1      -1.757  50.220 -22.751  1.00  0.00    -0.352 N 
HETATM   38  C20 UNL     1      -0.879  50.434 -21.750  1.00  0.00     0.091 A 
ATOM     39  H5  UNL     1      -1.992  50.950 -23.424  1.00  0.00     0.166 HD
HETATM   40  C21 UNL     1      -0.530  49.482 -20.826  1.00  0.00     0.034 A 
HETATM   41  C22 UNL     1      -1.151  48.265 -20.967  1.00  0.00     0.091 A 
HETATM   42  N6  UNL     1      -2.038  47.994 -21.946  1.00  0.00    -0.352 N 
ATOM     43  H6  UNL     1      -2.485  47.080 -22.024  1.00  0.00     0.166 HD
ENDBRANCH  33  36
ENDBRANCH   6  30
TORSDOF 8
ENDMDL
MODEL 2
REMARK minimizedAffinity -8.86912251
REMARK CNNscore 0.400631517
REMARK CNNaffinity 6.49298906
REMARK  8 active torsions:
REMARK  status: ('A' for Active; 'I' for Inactive)
REMARK    1  A    between atoms: C2_2  and  C4_4 
REMARK    2  A    between atoms: C6_6  and  N1_7 
REMARK       I    between atoms: N1_7  and  C7_8 
REMARK    3  A    between atoms: C7_8  and  C8_10 
REMARK    4  A    between atoms: N2_13  and  C11_14 
REMARK    5  A    between atoms: C11_14  and  C12_15 
REMARK       I    between atoms: C12_15  and  N3_17 
REMARK    6  A    between atoms: N4_20  and  C15_21 
REMARK    7  A    between atoms: C18_24  and  C19_25 
REMARK    8  A    between atoms: C30_40  and  O3_41 
ROOT
HETATM    1  C12 UNL     1      -5.115  47.809 -29.323  1.00  0.00     0.248 C 
HETATM    2  O2  UNL     1      -4.841  48.217 -30.457  1.00  0.00    -0.271 OA
HETATM    3  N3  UNL     1      -4.567  48.399 -28.185  1.00  0.00    -0.348 N 
HETATM    4  C13 UNL     1      -5.081  48.164 -26.827  1.00  0.00     0.145 C 
HETATM    5  C14 UNL     1      -4.073  48.536 -25.715  1.00  0.00     0.143 C 
HETATM    6  N4  UNL     1      -3.513  49.890 -25.935  1.00  0.00    -0.378 N 
HETATM    7  C25 UNL     1      -2.898  50.032 -27.272  1.00  0.00     0.143 C 
HETATM    8  C26 UNL     1      -3.912  49.696 -28.374  1.00  0.00     0.145 C 
ENDROOT
BRANCH   1   9
HETATM    9  C11 UNL     1      -6.067  46.615 -29.167  1.00  0.00     0.374 C 
BRANCH   9  10
HETATM   10  N2  UNL     1      -7.178  46.632 -30.155  1.00  0.00     0.098 N 
HETATM   11  C10 UNL     1      -6.771  47.243 -31.435  1.00  0.00     0.274 C 
HETATM   12  C9  UNL     1      -6.183  46.113 -32.251  1.00  0.00     0.046 C 
HETATM   13  C8  UNL     1      -7.107  44.954 -31.917  1.00  0.00     0.108 C 
HETATM   14  C27 UNL     1      -7.569  45.242 -30.487  1.00  0.00     0.287 C 
BRANCH  13  15
HETATM   15  C7  UNL     1      -6.455  43.587 -32.047  1.00  0.00     0.228 C 
HETATM   16  N1  UNL     1      -5.630  43.501 -33.159  1.00  0.00    -0.327 N 
HETATM   17  H9  UNL     1      -5.495  44.348 -33.696  1.00  0.00     0.169 HD
HETATM   18  O1  UNL     1      -6.650  42.699 -31.226  1.00  0.00    -0.273 OA
BRANCH  16  19
HETATM   19  C6  UNL     1      -4.835  42.399 -33.553  1.00  0.00     0.035 A 
HETATM   20  C5  UNL     1      -5.279  41.371 -34.396  1.00  0.00     0.039 A 
HETATM   21  C4  UNL     1      -4.442  40.291 -34.763  1.00  0.00    -0.019 A 
HETATM   22  C30 UNL     1      -3.154  40.252 -34.212  1.00  0.00     0.072 A 
HETATM   23  C29 UNL     1      -2.699  41.277 -33.383  1.00  0.00     0.039 A 
HETATM   24  C28 UNL     1      -3.531  42.350 -33.062  1.00  0.00     0.032 A 
BRANCH  21  25
HETATM   25  C2  UNL     1      -5.010  39.277 -35.747  1.00  0.00     0.013 C 
HETATM   26  C1  UNL     1      -4.165  39.116 -37.013  1.00  0.00     0.015 C 
HETATM   27  C3  UNL     1      -5.309  37.930 -35.085  1.00  0.00     0.015 C 
ENDBRANCH  21  25
BRANCH  22  28
HETATM   28  O3  UNL     1      -2.261  39.242 -34.425  1.00  0.00    -0.360 OA
HETATM   29  H36 UNL     1      -2.736  38.467 -34.762  1.00  0.00     0.217 HD
ENDBRANCH  22  28
ENDBRANCH  16  19
ENDBRANCH  13  15
ENDBRANCH   9  10
ENDBRANCH   1   9
BRANCH   6  30
HETATM   30  C15 UNL     1      -2.831  50.440 -24.838  1.00  0.00     0.030 A 
HETATM   31  C16 UNL     1      -2.204  49.667 -23.853  1.00  0.00     0.030 A 
HETATM   32  C17 UNL     1      -1.459  50.254 -22.816  1.00  0.00     0.017 A 
HETATM   33  C18 UNL     1      -1.296  51.644 -22.719  1.00  0.00     0.008 A 
HETATM   34  C23 UNL     1      -1.944  52.420 -23.692  1.00  0.00     0.017 A 
HETATM   35  C24 UNL     1      -2.691  51.831 -24.726  1.00  0.00     0.030 A 
BRANCH  33  36
HETATM   36  C19 UNL     1      -0.447  52.253 -21.675  1.00  0.00     0.115 A 
HETATM   37  N5  UNL     1      -0.809  52.091 -20.385  1.00  0.00    -0.352 N 
HETATM   38  C20 UNL     1      -0.053  52.722 -19.464  1.00  0.00     0.091 A 
ATOM     39  H5  UNL     1      -1.613  51.521 -20.121  1.00  0.00     0.166 HD
HETATM   40  C21 UNL     1       1.033  53.501 -19.773  1.00  0.00     0.034 A 
HETATM   41  C22 UNL     1       1.330  53.597 -21.111  1.00  0.00     0.091 A 
HETATM   42  N6  UNL     1       0.612  52.987 -22.075  1.00  0.00    -0.352 N 
ATOM     43  H6  UNL     1       0.859  53.075 -23.062  1.00  0.00     0.166 HD
ENDBRANCH  33  36
ENDBRANCH   6  30
TORSDOF 8
ENDMDL
MODEL 3
REMARK minimizedAffinity -8.31658077
REMARK CNNscore 0.385221303
REMARK CNNaffinity 6.70438433
REMARK  8 active torsions:
REMARK  status: ('A' for Active; 'I' for Inactive)
REMARK    1  A    between atoms: C2_2  and  C4_4 
REMARK    2  A    between atoms: C6_6  and  N1_7 
REMARK       I    between atoms: N1_7  and  C7_8 
REMARK    3  A    between atoms: C7_8  and  C8_10 
REMARK    4  A    between atoms: N2_13  and  C11_14 
REMARK    5  A    between atoms: C11_14  and  C12_15 
REMARK       I    between atoms: C12_15  and  N3_17 
REMARK    6  A    between atoms: N4_20  and  C15_21 
REMARK    7  A    between atoms: C18_24  and  C19_25 
REMARK    8  A    between atoms: C30_40  and  O3_41 
ROOT
HETATM    1  C12 UNL     1      -2.117  49.976 -14.068  1.00  0.00     0.248 C 
HETATM    2  O2  UNL     1      -2.724  48.988 -13.640  1.00  0.00    -0.271 OA
HETATM    3  N3  UNL     1      -1.487  50.874 -13.207  1.00  0.00    -0.348 N 
HETATM    4  C13 UNL     1      -0.510  51.875 -13.659  1.00  0.00     0.145 C 
HETATM    5  C14 UNL     1      -0.296  53.026 -12.650  1.00  0.00     0.143 C 
HETATM    6  N4  UNL     1      -0.050  52.500 -11.286  1.00  0.00    -0.378 N 
HETATM    7  C25 UNL     1      -1.128  51.594 -10.833  1.00  0.00     0.143 C 
HETATM    8  C26 UNL     1      -1.314  50.434 -11.820  1.00  0.00     0.145 C 
ENDROOT
BRANCH   1   9
HETATM    9  C11 UNL     1      -2.070  50.227 -15.582  1.00  0.00     0.374 C 
BRANCH   9  10
HETATM   10  N2  UNL     1      -1.137  49.310 -16.288  1.00  0.00     0.098 N 
HETATM   11  C10 UNL     1      -1.830  48.477 -17.288  1.00  0.00     0.274 C 
HETATM   12  C9  UNL     1      -1.842  49.298 -18.559  1.00  0.00     0.046 C 
HETATM   13  C8  UNL     1      -0.467  49.945 -18.540  1.00  0.00     0.108 C 
HETATM   14  C27 UNL     1      -0.146  50.103 -17.053  1.00  0.00     0.287 C 
BRANCH  13  15
HETATM   15  C7  UNL     1      -0.397  51.267 -19.288  1.00  0.00     0.228 C 
HETATM   16  N1  UNL     1       0.389  51.186 -20.428  1.00  0.00    -0.327 N 
HETATM   17  H9  UNL     1       0.751  50.273 -20.671  1.00  0.00     0.169 HD
HETATM   18  O1  UNL     1      -1.001  52.260 -18.900  1.00  0.00    -0.273 OA
BRANCH  16  19
HETATM   19  C6  UNL     1       0.630  52.207 -21.378  1.00  0.00     0.035 A 
HETATM   20  C5  UNL     1       0.338  52.095 -22.743  1.00  0.00     0.039 A 
HETATM   21  C4  UNL     1       0.595  53.149 -23.652  1.00  0.00    -0.019 A 
HETATM   22  C30 UNL     1       1.206  54.305 -23.149  1.00  0.00     0.072 A 
HETATM   23  C29 UNL     1       1.489  54.431 -21.788  1.00  0.00     0.039 A 
HETATM   24  C28 UNL     1       1.194  53.392 -20.905  1.00  0.00     0.032 A 
BRANCH  21  25
HETATM   25  C2  UNL     1       0.162  52.940 -25.097  1.00  0.00     0.013 C 
HETATM   26  C1  UNL     1       0.936  51.829 -25.811  1.00  0.00     0.015 C 
HETATM   27  C3  UNL     1      -1.351  52.756 -25.229  1.00  0.00     0.015 C 
ENDBRANCH  21  25
BRANCH  22  28
HETATM   28  O3  UNL     1       1.571  55.374 -23.915  1.00  0.00    -0.360 OA
HETATM   29  H36 UNL     1       1.599  55.100 -24.844  1.00  0.00     0.217 HD
ENDBRANCH  22  28
ENDBRANCH  16  19
ENDBRANCH  13  15
ENDBRANCH   9  10
ENDBRANCH   1   9
BRANCH   6  30
HETATM   30  C15 UNL     1       0.451  53.434 -10.367  1.00  0.00     0.030 A 
HETATM   31  C16 UNL     1       0.269  53.328  -8.982  1.00  0.00     0.030 A 
HETATM   32  C17 UNL     1       0.859  54.236  -8.087  1.00  0.00     0.017 A 
HETATM   33  C18 UNL     1       1.668  55.292  -8.533  1.00  0.00     0.008 A 
HETATM   34  C23 UNL     1       1.832  55.413  -9.922  1.00  0.00     0.017 A 
HETATM   35  C24 UNL     1       1.238  54.504 -10.814  1.00  0.00     0.030 A 
BRANCH  33  36
HETATM   36  C19 UNL     1       2.351  56.198  -7.587  1.00  0.00     0.115 A 
HETATM   37  N5  UNL     1       1.606  56.815  -6.646  1.00  0.00    -0.352 N 
HETATM   38  C20 UNL     1       2.249  57.690  -5.846  1.00  0.00     0.091 A 
ATOM     39  H5  UNL     1       0.608  56.629  -6.544  1.00  0.00     0.166 HD
HETATM   40  C21 UNL     1       3.587  57.973  -5.949  1.00  0.00     0.034 A 
HETATM   41  C22 UNL     1       4.264  57.288  -6.929  1.00  0.00     0.091 A 
HETATM   42  N6  UNL     1       3.674  56.401  -7.754  1.00  0.00    -0.352 N 
ATOM     43  H6  UNL     1       4.204  55.905  -8.472  1.00  0.00     0.166 HD
ENDBRANCH  33  36
ENDBRANCH   6  30
TORSDOF 8
ENDMDL
MODEL 4
REMARK minimizedAffinity -10.4879732
REMARK CNNscore 0.288588405
REMARK CNNaffinity 7.20554018
REMARK  8 active torsions:
REMARK  status: ('A' for Active; 'I' for Inactive)
REMARK    1  A    between atoms: C2_2  and  C4_4 
REMARK    2  A    between atoms: C6_6  and  N1_7 
REMARK       I    between atoms: N1_7  and  C7_8 
REMARK    3  A    between atoms: C7_8  and  C8_10 
REMARK    4  A    between atoms: N2_13  and  C11_14 
REMARK    5  A    between atoms: C11_14  and  C12_15 
REMARK       I    between atoms: C12_15  and  N3_17 
REMARK    6  A    between atoms: N4_20  and  C15_21 
REMARK    7  A    between atoms: C18_24  and  C19_25 
REMARK    8  A    between atoms: C30_40  and  O3_41 
ROOT
HETATM    1  C12 UNL     1      -3.682  50.376 -19.701  1.00  0.00     0.248 C 
HETATM    2  O2  UNL     1      -3.167  51.486 -19.528  1.00  0.00    -0.271 OA
HETATM    3  N3  UNL     1      -3.943  49.885 -20.979  1.00  0.00    -0.348 N 
HETATM    4  C13 UNL     1      -4.263  48.477 -21.253  1.00  0.00     0.145 C 
HETATM    5  C14 UNL     1      -4.946  48.255 -22.622  1.00  0.00     0.143 C 
HETATM    6  N4  UNL     1      -4.201  48.938 -23.706  1.00  0.00    -0.378 N 
HETATM    7  C25 UNL     1      -4.016  50.381 -23.436  1.00  0.00     0.143 C 
HETATM    8  C26 UNL     1      -3.306  50.595 -22.092  1.00  0.00     0.145 C 
ENDROOT
BRANCH   1   9
HETATM    9  C11 UNL     1      -4.058  49.527 -18.478  1.00  0.00     0.374 C 
BRANCH   9  10
HETATM   10  N2  UNL     1      -2.869  49.002 -17.755  1.00  0.00     0.098 N 
HETATM   11  C10 UNL     1      -2.117  48.024 -18.563  1.00  0.00     0.274 C 
HETATM   12  C9  UNL     1      -1.145  48.842 -19.385  1.00  0.00     0.046 C 
HETATM   13  C8  UNL     1      -0.705  49.911 -18.398  1.00  0.00     0.108 C 
HETATM   14  C27 UNL     1      -1.920  50.110 -17.492  1.00  0.00     0.287 C 
BRANCH  13  15
HETATM   15  C7  UNL     1      -0.256  51.208 -19.053  1.00  0.00     0.228 C 
HETATM   16  N1  UNL     1      -0.024  51.058 -20.413  1.00  0.00    -0.327 N 
HETATM   17  H9  UNL     1      -0.245  50.158 -20.819  1.00  0.00     0.169 HD
HETATM   18  O1  UNL     1      -0.147  52.247 -18.415  1.00  0.00    -0.273 OA
BRANCH  16  19
HETATM   19  C6  UNL     1       0.354  52.063 -21.333  1.00  0.00     0.035 A 
HETATM   20  C5  UNL     1       0.137  51.986 -22.715  1.00  0.00     0.039 A 
HETATM   21  C4  UNL     1       0.531  53.023 -23.594  1.00  0.00    -0.019 A 
HETATM   22  C30 UNL     1       1.201  54.122 -23.040  1.00  0.00     0.072 A 
HETATM   23  C29 UNL     1       1.411  54.214 -21.665  1.00  0.00     0.039 A 
HETATM   24  C28 UNL     1       0.982  53.195 -20.813  1.00  0.00     0.032 A 
BRANCH  21  25
HETATM   25  C2  UNL     1       0.170  52.861 -25.064  1.00  0.00     0.013 C 
HETATM   26  C1  UNL     1       0.077  54.189 -25.819  1.00  0.00     0.015 C 
HETATM   27  C3  UNL     1       1.080  51.860 -25.779  1.00  0.00     0.015 C 
ENDBRANCH  21  25
BRANCH  22  28
HETATM   28  O3  UNL     1       1.695  55.165 -23.771  1.00  0.00    -0.360 OA
HETATM   29  H36 UNL     1       1.757  54.896 -24.700  1.00  0.00     0.217 HD
ENDBRANCH  22  28
ENDBRANCH  16  19
ENDBRANCH  13  15
ENDBRANCH   9  10
ENDBRANCH   1   9
BRANCH   6  30
HETATM   30  C15 UNL     1      -4.556  48.556 -25.008  1.00  0.00     0.030 A 
HETATM   31  C16 UNL     1      -5.827  48.078 -25.353  1.00  0.00     0.030 A 
HETATM   32  C17 UNL     1      -6.171  47.785 -26.683  1.00  0.00     0.017 A 
HETATM   33  C18 UNL     1      -5.262  47.965 -27.737  1.00  0.00     0.008 A 
HETATM   34  C23 UNL     1      -3.982  48.421 -27.390  1.00  0.00     0.017 A 
HETATM   35  C24 UNL     1      -3.640  48.710 -26.058  1.00  0.00     0.030 A 
BRANCH  33  36
HETATM   36  C19 UNL     1      -5.652  47.732 -29.143  1.00  0.00     0.115 A 
HETATM   37  N5  UNL     1      -5.284  48.646 -30.066  1.00  0.00    -0.352 N 
HETATM   38  C20 UNL     1      -5.719  48.439 -31.325  1.00  0.00     0.091 A 
ATOM     39  H5  UNL     1      -4.706  49.451 -29.823  1.00  0.00     0.166 HD
HETATM   40  C21 UNL     1      -6.500  47.374 -31.696  1.00  0.00     0.034 A 
HETATM   41  C22 UNL     1      -6.814  46.492 -30.690  1.00  0.00     0.091 A 
HETATM   42  N6  UNL     1      -6.405  46.646 -29.415  1.00  0.00    -0.352 N 
ATOM     43  H6  UNL     1      -6.654  45.973 -28.690  1.00  0.00     0.166 HD
ENDBRANCH  33  36
ENDBRANCH   6  30
TORSDOF 8
ENDMDL
MODEL 5
REMARK minimizedAffinity -9.69282913
REMARK CNNscore 0.284781933
REMARK CNNaffinity 7.3091712
REMARK  8 active torsions:
REMARK  status: ('A' for Active; 'I' for Inactive)
REMARK    1  A    between atoms: C2_2  and  C4_4 
REMARK    2  A    between atoms: C6_6  and  N1_7 
REMARK       I    between atoms: N1_7  and  C7_8 
REMARK    3  A    between atoms: C7_8  and  C8_10 
REMARK    4  A    between atoms: N2_13  and  C11_14 
REMARK    5  A    between atoms: C11_14  and  C12_15 
REMARK       I    between atoms: C12_15  and  N3_17 
REMARK    6  A    between atoms: N4_20  and  C15_21 
REMARK    7  A    between atoms: C18_24  and  C19_25 
REMARK    8  A    between atoms: C30_40  and  O3_41 
ROOT
HETATM    1  C12 UNL     1      -2.631  50.332 -26.372  1.00  0.00     0.248 C 
HETATM    2  O2  UNL     1      -2.148  49.384 -27.001  1.00  0.00    -0.271 OA
HETATM    3  N3  UNL     1      -3.565  50.133 -25.357  1.00  0.00    -0.348 N 
HETATM    4  C13 UNL     1      -3.936  51.173 -24.386  1.00  0.00     0.145 C 
HETATM    5  C14 UNL     1      -5.276  50.894 -23.668  1.00  0.00     0.143 C 
HETATM    6  N4  UNL     1      -5.316  49.512 -23.133  1.00  0.00    -0.378 N 
HETATM    7  C25 UNL     1      -5.058  48.499 -24.179  1.00  0.00     0.143 C 
HETATM    8  C26 UNL     1      -3.711  48.759 -24.866  1.00  0.00     0.145 C 
ENDROOT
BRANCH   1   9
HETATM    9  C11 UNL     1      -2.204  51.763 -26.731  1.00  0.00     0.374 C 
BRANCH   9  10
HETATM   10  N2  UNL     1      -0.803  51.838 -27.222  1.00  0.00     0.098 N 
HETATM   11  C10 UNL     1      -0.519  53.119 -27.895  1.00  0.00     0.274 C 
HETATM   12  C9  UNL     1      -0.089  54.065 -26.795  1.00  0.00     0.046 C 
HETATM   13  C8  UNL     1       0.753  53.168 -25.904  1.00  0.00     0.108 C 
HETATM   14  C27 UNL     1       0.130  51.780 -26.071  1.00  0.00     0.287 C 
BRANCH  13  15
HETATM   15  C7  UNL     1       0.797  53.607 -24.449  1.00  0.00     0.228 C 
HETATM   16  N1  UNL     1       0.544  52.559 -23.576  1.00  0.00    -0.327 N 
HETATM   17  H9  UNL     1       0.440  51.639 -23.982  1.00  0.00     0.169 HD
HETATM   18  O1  UNL     1       1.053  54.762 -24.132  1.00  0.00    -0.273 OA
BRANCH  16  19
HETATM   19  C6  UNL     1       0.555  52.601 -22.161  1.00  0.00     0.035 A 
HETATM   20  C5  UNL     1      -0.104  51.675 -21.342  1.00  0.00     0.039 A 
HETATM   21  C4  UNL     1      -0.058  51.760 -19.930  1.00  0.00    -0.019 A 
HETATM   22  C30 UNL     1       0.632  52.842 -19.367  1.00  0.00     0.072 A 
HETATM   23  C29 UNL     1       1.301  53.762 -20.174  1.00  0.00     0.039 A 
HETATM   24  C28 UNL     1       1.272  53.638 -21.564  1.00  0.00     0.032 A 
BRANCH  21  25
HETATM   25  C2  UNL     1      -0.746  50.650 -19.146  1.00  0.00     0.013 C 
HETATM   26  C1  UNL     1      -1.014  49.393 -19.977  1.00  0.00     0.015 C 
HETATM   27  C3  UNL     1      -0.022  50.327 -17.838  1.00  0.00     0.015 C 
ENDBRANCH  21  25
BRANCH  22  28
HETATM   28  O3  UNL     1       0.707  53.088 -18.027  1.00  0.00    -0.360 OA
HETATM   29  H36 UNL     1       0.009  52.589 -17.576  1.00  0.00     0.217 HD
ENDBRANCH  22  28
ENDBRANCH  16  19
ENDBRANCH  13  15
ENDBRANCH   9  10
ENDBRANCH   1   9
BRANCH   6  30
HETATM   30  C15 UNL     1      -6.345  49.257 -22.213  1.00  0.00     0.030 A 
HETATM   31  C16 UNL     1      -7.399  48.368 -22.460  1.00  0.00     0.030 A 
HETATM   32  C17 UNL     1      -8.363  48.075 -21.481  1.00  0.00     0.017 A 
HETATM   33  C18 UNL     1      -8.315  48.649 -20.202  1.00  0.00     0.008 A 
HETATM   34  C23 UNL     1      -7.274  49.558 -19.962  1.00  0.00     0.017 A 
HETATM   35  C24 UNL     1      -6.312  49.851 -20.943  1.00  0.00     0.030 A 
BRANCH  33  36
HETATM   36  C19 UNL     1      -9.284  48.278 -19.151  1.00  0.00     0.115 A 
HETATM   37  N5  UNL     1      -8.838  48.174 -17.881  1.00  0.00    -0.352 N 
HETATM   38  C20 UNL     1      -9.732  47.762 -16.960  1.00  0.00     0.091 A 
ATOM     39  H5  UNL     1      -7.874  48.395 -17.631  1.00  0.00     0.166 HD
HETATM   40  C21 UNL     1     -11.036  47.450 -17.251  1.00  0.00     0.034 A 
HETATM   41  C22 UNL     1     -11.400  47.597 -18.567  1.00  0.00     0.091 A 
HETATM   42  N6  UNL     1     -10.551  48.007 -19.530  1.00  0.00    -0.352 N 
ATOM     43  H6  UNL     1     -10.852  48.109 -20.500  1.00  0.00     0.166 HD
ENDBRANCH  33  36
ENDBRANCH   6  30
TORSDOF 8
ENDMDL
MODEL 6
REMARK minimizedAffinity -7.94512844
REMARK CNNscore 0.282397747
REMARK CNNaffinity 5.64184523
REMARK  8 active torsions:
REMARK  status: ('A' for Active; 'I' for Inactive)
REMARK    1  A    between atoms: C2_2  and  C4_4 
REMARK    2  A    between atoms: C6_6  and  N1_7 
REMARK       I    between atoms: N1_7  and  C7_8 
REMARK    3  A    between atoms: C7_8  and  C8_10 
REMARK    4  A    between atoms: N2_13  and  C11_14 
REMARK    5  A    between atoms: C11_14  and  C12_15 
REMARK       I    between atoms: C12_15  and  N3_17 
REMARK    6  A    between atoms: N4_20  and  C15_21 
REMARK    7  A    between atoms: C18_24  and  C19_25 
REMARK    8  A    between atoms: C30_40  and  O3_41 
ROOT
HETATM    1  C12 UNL     1      -9.253  46.526 -30.249  1.00  0.00     0.248 C 
HETATM    2  O2  UNL     1     -10.367  46.305 -29.762  1.00  0.00    -0.271 OA
HETATM    3  N3  UNL     1      -8.179  46.932 -29.457  1.00  0.00    -0.348 N 
HETATM    4  C13 UNL     1      -6.783  46.913 -29.919  1.00  0.00     0.145 C 
HETATM    5  C14 UNL     1      -5.845  47.807 -29.077  1.00  0.00     0.143 C 
HETATM    6  N4  UNL     1      -6.016  47.544 -27.628  1.00  0.00    -0.378 N 
HETATM    7  C25 UNL     1      -7.421  47.698 -27.194  1.00  0.00     0.143 C 
HETATM    8  C26 UNL     1      -8.345  46.783 -28.009  1.00  0.00     0.145 C 
ENDROOT
BRANCH   1   9
HETATM    9  C11 UNL     1      -9.052  46.368 -31.763  1.00  0.00     0.374 C 
BRANCH   9  10
HETATM   10  N2  UNL     1      -8.579  45.010 -32.141  1.00  0.00     0.098 N 
HETATM   11  C10 UNL     1      -9.296  43.950 -31.408  1.00  0.00     0.274 C 
HETATM   12  C9  UNL     1     -10.529  43.652 -32.234  1.00  0.00     0.046 C 
HETATM   13  C8  UNL     1      -9.996  43.735 -33.654  1.00  0.00     0.108 C 
HETATM   14  C27 UNL     1      -8.868  44.764 -33.574  1.00  0.00     0.287 C 
BRANCH  13  15
HETATM   15  C7  UNL     1     -11.047  44.112 -34.686  1.00  0.00     0.228 C 
HETATM   16  N1  UNL     1     -10.483  44.591 -35.860  1.00  0.00    -0.327 N 
HETATM   17  H9  UNL     1      -9.474  44.564 -35.928  1.00  0.00     0.169 HD
HETATM   18  O1  UNL     1     -12.244  43.971 -34.469  1.00  0.00    -0.273 OA
BRANCH  16  19
HETATM   19  C6  UNL     1     -11.161  44.983 -37.038  1.00  0.00     0.035 A 
HETATM   20  C5  UNL     1     -11.747  46.242 -37.226  1.00  0.00     0.039 A 
HETATM   21  C4  UNL     1     -12.412  46.586 -38.427  1.00  0.00    -0.019 A 
HETATM   22  C30 UNL     1     -12.513  45.600 -39.418  1.00  0.00     0.072 A 
HETATM   23  C29 UNL     1     -11.922  44.349 -39.246  1.00  0.00     0.039 A 
HETATM   24  C28 UNL     1     -11.241  44.044 -38.066  1.00  0.00     0.032 A 
BRANCH  21  25
HETATM   25  C2  UNL     1     -12.940  48.010 -38.544  1.00  0.00     0.013 C 
HETATM   26  C1  UNL     1     -14.312  48.206 -37.896  1.00  0.00     0.015 C 
HETATM   27  C3  UNL     1     -11.925  49.047 -38.059  1.00  0.00     0.015 C 
ENDBRANCH  21  25
BRANCH  22  28
HETATM   28  O3  UNL     1     -13.178  45.767 -40.599  1.00  0.00    -0.360 OA
HETATM   29  H36 UNL     1     -13.774  46.527 -40.519  1.00  0.00     0.217 HD
ENDBRANCH  22  28
ENDBRANCH  16  19
ENDBRANCH  13  15
ENDBRANCH   9  10
ENDBRANCH   1   9
BRANCH   6  30
HETATM   30  C15 UNL     1      -5.012  48.072 -26.802  1.00  0.00     0.030 A 
HETATM   31  C16 UNL     1      -3.752  48.463 -27.271  1.00  0.00     0.030 A 
HETATM   32  C17 UNL     1      -2.804  49.066 -26.429  1.00  0.00     0.017 A 
HETATM   33  C18 UNL     1      -3.073  49.317 -25.075  1.00  0.00     0.008 A 
HETATM   34  C23 UNL     1      -4.326  48.904 -24.598  1.00  0.00     0.017 A 
HETATM   35  C24 UNL     1      -5.272  48.298 -25.443  1.00  0.00     0.030 A 
BRANCH  33  36
HETATM   36  C19 UNL     1      -2.104  50.023 -24.211  1.00  0.00     0.115 A 
HETATM   37  N5  UNL     1      -2.044  49.678 -22.908  1.00  0.00    -0.352 N 
HETATM   38  C20 UNL     1      -1.202  50.392 -22.134  1.00  0.00     0.091 A 
ATOM     39  H5  UNL     1      -2.605  48.915 -22.527  1.00  0.00     0.166 HD
HETATM   40  C21 UNL     1      -0.431  51.427 -22.601  1.00  0.00     0.034 A 
HETATM   41  C22 UNL     1      -0.553  51.697 -23.942  1.00  0.00     0.091 A 
HETATM   42  N6  UNL     1      -1.375  51.015 -24.764  1.00  0.00    -0.352 N 
ATOM     43  H6  UNL     1      -1.443  51.238 -25.757  1.00  0.00     0.166 HD
ENDBRANCH  33  36
ENDBRANCH   6  30
TORSDOF 8
ENDMDL
MODEL 7
REMARK minimizedAffinity -8.51846409
REMARK CNNscore 0.234398603
REMARK CNNaffinity 6.41393042
REMARK  8 active torsions:
REMARK  status: ('A' for Active; 'I' for Inactive)
REMARK    1  A    between atoms: C2_2  and  C4_4 
REMARK    2  A    between atoms: C6_6  and  N1_7 
REMARK       I    between atoms: N1_7  and  C7_8 
REMARK    3  A    between atoms: C7_8  and  C8_10 
REMARK    4  A    between atoms: N2_13  and  C11_14 
REMARK    5  A    between atoms: C11_14  and  C12_15 
REMARK       I    between atoms: C12_15  and  N3_17 
REMARK    6  A    between atoms: N4_20  and  C15_21 
REMARK    7  A    between atoms: C18_24  and  C19_25 
REMARK    8  A    between atoms: C30_40  and  O3_41 
ROOT
HETATM    1  C12 UNL     1       0.072  50.095 -13.224  1.00  0.00     0.248 C 
HETATM    2  O2  UNL     1      -0.398  49.028 -12.815  1.00  0.00    -0.271 OA
HETATM    3  N3  UNL     1       0.084  50.413 -14.581  1.00  0.00    -0.348 N 
HETATM    4  C13 UNL     1       0.342  51.768 -15.090  1.00  0.00     0.145 C 
HETATM    5  C14 UNL     1       0.752  51.798 -16.580  1.00  0.00     0.143 C 
HETATM    6  N4  UNL     1      -0.184  51.000 -17.407  1.00  0.00    -0.378 N 
HETATM    7  C25 UNL     1      -0.311  49.608 -16.922  1.00  0.00     0.143 C 
HETATM    8  C26 UNL     1      -0.752  49.583 -15.452  1.00  0.00     0.145 C 
ENDROOT
BRANCH   1   9
HETATM    9  C11 UNL     1       0.672  51.085 -12.214  1.00  0.00     0.374 C 
BRANCH   9  10
HETATM   10  N2  UNL     1      -0.304  52.113 -11.769  1.00  0.00     0.098 N 
HETATM   11  C10 UNL     1      -0.798  51.854 -10.404  1.00  0.00     0.274 C 
HETATM   12  C9  UNL     1       0.195  52.527  -9.481  1.00  0.00     0.046 C 
HETATM   13  C8  UNL     1       0.514  53.811 -10.229  1.00  0.00     0.108 C 
HETATM   14  C27 UNL     1       0.362  53.436 -11.704  1.00  0.00     0.287 C 
BRANCH  13  15
HETATM   15  C7  UNL     1       1.890  54.380  -9.918  1.00  0.00     0.228 C 
HETATM   16  N1  UNL     1       1.871  55.232  -8.823  1.00  0.00    -0.327 N 
HETATM   17  H9  UNL     1       0.996  55.316  -8.323  1.00  0.00     0.169 HD
HETATM   18  O1  UNL     1       2.877  54.075 -10.576  1.00  0.00    -0.273 OA
BRANCH  16  19
HETATM   19  C6  UNL     1       2.975  55.892  -8.233  1.00  0.00     0.035 A 
HETATM   20  C5  UNL     1       4.295  55.428  -8.299  1.00  0.00     0.039 A 
HETATM   21  C4  UNL     1       5.366  56.129  -7.694  1.00  0.00    -0.019 A 
HETATM   22  C30 UNL     1       5.055  57.289  -6.971  1.00  0.00     0.072 A 
HETATM   23  C29 UNL     1       3.746  57.765  -6.910  1.00  0.00     0.039 A 
HETATM   24  C28 UNL     1       2.711  57.076  -7.545  1.00  0.00     0.032 A 
BRANCH  21  25
HETATM   25  C2  UNL     1       6.766  55.569  -7.902  1.00  0.00     0.013 C 
HETATM   26  C1  UNL     1       7.379  54.972  -6.632  1.00  0.00     0.015 C 
HETATM   27  C3  UNL     1       6.835  54.597  -9.081  1.00  0.00     0.015 C 
ENDBRANCH  21  25
BRANCH  22  28
HETATM   28  O3  UNL     1       5.972  58.031  -6.284  1.00  0.00    -0.360 OA
HETATM   29  H36 UNL     1       6.770  57.497  -6.147  1.00  0.00     0.217 HD
ENDBRANCH  22  28
ENDBRANCH  16  19
ENDBRANCH  13  15
ENDBRANCH   9  10
ENDBRANCH   1   9
BRANCH   6  30
HETATM   30  C15 UNL     1      -0.085  51.205 -18.791  1.00  0.00     0.030 A 
HETATM   31  C16 UNL     1      -0.444  50.242 -19.743  1.00  0.00     0.030 A 
HETATM   32  C17 UNL     1      -0.410  50.516 -21.120  1.00  0.00     0.017 A 
HETATM   33  C18 UNL     1      -0.024  51.770 -21.615  1.00  0.00     0.008 A 
HETATM   34  C23 UNL     1       0.360  52.728 -20.664  1.00  0.00     0.017 A 
HETATM   35  C24 UNL     1       0.328  52.451 -19.286  1.00  0.00     0.030 A 
BRANCH  33  36
HETATM   36  C19 UNL     1      -0.065  52.080 -23.059  1.00  0.00     0.115 A 
HETATM   37  N5  UNL     1      -0.741  51.240 -23.871  1.00  0.00    -0.352 N 
HETATM   38  C20 UNL     1      -0.697  51.513 -25.191  1.00  0.00     0.091 A 
ATOM     39  H5  UNL     1      -1.259  50.441 -23.505  1.00  0.00     0.166 HD
HETATM   40  C21 UNL     1      -0.010  52.573 -25.727  1.00  0.00     0.034 A 
HETATM   41  C22 UNL     1       0.638  53.377 -24.821  1.00  0.00     0.091 A 
HETATM   42  N6  UNL     1       0.626  53.155 -23.491  1.00  0.00    -0.352 N 
ATOM     43  H6  UNL     1       1.115  53.772 -22.843  1.00  0.00     0.166 HD
ENDBRANCH  33  36
ENDBRANCH   6  30
TORSDOF 8
ENDMDL
MODEL 8
REMARK minimizedAffinity -9.85135269
REMARK CNNscore 0.228027403
REMARK CNNaffinity 7.27450228
REMARK  8 active torsions:
REMARK  status: ('A' for Active; 'I' for Inactive)
REMARK    1  A    between atoms: C2_2  and  C4_4 
REMARK    2  A    between atoms: C6_6  and  N1_7 
REMARK       I    between atoms: N1_7  and  C7_8 
REMARK    3  A    between atoms: C7_8  and  C8_10 
REMARK    4  A    between atoms: N2_13  and  C11_14 
REMARK    5  A    between atoms: C11_14  and  C12_15 
REMARK       I    between atoms: C12_15  and  N3_17 
REMARK    6  A    between atoms: N4_20  and  C15_21 
REMARK    7  A    between atoms: C18_24  and  C19_25 
REMARK    8  A    between atoms: C30_40  and  O3_41 
ROOT
HETATM    1  C12 UNL     1      -2.729  52.114 -25.310  1.00  0.00     0.248 C 
HETATM    2  O2  UNL     1      -2.502  53.194 -24.753  1.00  0.00    -0.271 OA
HETATM    3  N3  UNL     1      -3.121  50.989 -24.587  1.00  0.00    -0.348 N 
HETATM    4  C13 UNL     1      -3.691  49.786 -25.212  1.00  0.00     0.145 C 
HETATM    5  C14 UNL     1      -3.625  48.533 -24.309  1.00  0.00     0.143 C 
HETATM    6  N4  UNL     1      -4.146  48.826 -22.953  1.00  0.00    -0.378 N 
HETATM    7  C25 UNL     1      -3.452  49.969 -22.321  1.00  0.00     0.143 C 
HETATM    8  C26 UNL     1      -3.550  51.220 -23.205  1.00  0.00     0.145 C 
ENDROOT
BRANCH   1   9
HETATM    9  C11 UNL     1      -2.555  52.007 -26.832  1.00  0.00     0.374 C 
BRANCH   9  10
HETATM   10  N2  UNL     1      -1.180  51.604 -27.226  1.00  0.00     0.098 N 
HETATM   11  C10 UNL     1      -0.498  52.654 -28.007  1.00  0.00     0.274 C 
HETATM   12  C9  UNL     1       0.157  53.556 -26.984  1.00  0.00     0.046 C 
HETATM   13  C8  UNL     1       0.655  52.565 -25.947  1.00  0.00     0.108 C 
HETATM   14  C27 UNL     1      -0.351  51.414 -26.012  1.00  0.00     0.287 C 
BRANCH  13  15
HETATM   15  C7  UNL     1       0.775  53.145 -24.546  1.00  0.00     0.228 C 
HETATM   16  N1  UNL     1       0.397  52.237 -23.567  1.00  0.00    -0.327 N 
HETATM   17  H9  UNL     1       0.168  51.301 -23.874  1.00  0.00     0.169 HD
HETATM   18  O1  UNL     1       1.185  54.282 -24.353  1.00  0.00    -0.273 OA
BRANCH  16  19
HETATM   19  C6  UNL     1       0.432  52.425 -22.165  1.00  0.00     0.035 A 
HETATM   20  C5  UNL     1      -0.268  51.631 -21.248  1.00  0.00     0.039 A 
HETATM   21  C4  UNL     1      -0.197  51.859 -19.853  1.00  0.00    -0.019 A 
HETATM   22  C30 UNL     1       0.565  52.950 -19.412  1.00  0.00     0.072 A 
HETATM   23  C29 UNL     1       1.277  53.738 -20.317  1.00  0.00     0.039 A 
HETATM   24  C28 UNL     1       1.219  53.472 -21.686  1.00  0.00     0.032 A 
BRANCH  21  25
HETATM   25  C2  UNL     1      -0.938  50.881 -18.951  1.00  0.00     0.013 C 
HETATM   26  C1  UNL     1      -0.068  50.304 -17.831  1.00  0.00     0.015 C 
HETATM   27  C3  UNL     1      -2.247  51.464 -18.415  1.00  0.00     0.015 C 
ENDBRANCH  21  25
BRANCH  22  28
HETATM   28  O3  UNL     1       0.676  53.328 -18.106  1.00  0.00    -0.360 OA
HETATM   29  H36 UNL     1      -0.044  52.923 -17.599  1.00  0.00     0.217 HD
ENDBRANCH  22  28
ENDBRANCH  16  19
ENDBRANCH  13  15
ENDBRANCH   9  10
ENDBRANCH   1   9
BRANCH   6  30
HETATM   30  C15 UNL     1      -4.413  47.700 -22.159  1.00  0.00     0.030 A 
HETATM   31  C16 UNL     1      -5.624  46.998 -22.195  1.00  0.00     0.030 A 
HETATM   32  C17 UNL     1      -5.822  45.826 -21.448  1.00  0.00     0.017 A 
HETATM   33  C18 UNL     1      -4.814  45.291 -20.632  1.00  0.00     0.008 A 
HETATM   34  C23 UNL     1      -3.608  46.006 -20.576  1.00  0.00     0.017 A 
HETATM   35  C24 UNL     1      -3.414  47.180 -21.323  1.00  0.00     0.030 A 
BRANCH  33  36
HETATM   36  C19 UNL     1      -4.997  44.015 -19.909  1.00  0.00     0.115 A 
HETATM   37  N5  UNL     1      -3.912  43.433 -19.359  1.00  0.00    -0.352 N 
HETATM   38  C20 UNL     1      -4.104  42.235 -18.771  1.00  0.00     0.091 A 
ATOM     39  H5  UNL     1      -2.993  43.876 -19.386  1.00  0.00     0.166 HD
HETATM   40  C21 UNL     1      -5.319  41.600 -18.715  1.00  0.00     0.034 A 
HETATM   41  C22 UNL     1      -6.366  42.275 -19.293  1.00  0.00     0.091 A 
HETATM   42  N6  UNL     1      -6.234  43.476 -19.891  1.00  0.00    -0.352 N 
ATOM     43  H6  UNL     1      -7.032  43.954 -20.310  1.00  0.00     0.166 HD
ENDBRANCH  33  36
ENDBRANCH   6  30
TORSDOF 8
ENDMDL
MODEL 9
REMARK minimizedAffinity -8.56908035
REMARK CNNscore 0.198061287
REMARK CNNaffinity 5.36262465
REMARK  8 active torsions:
REMARK  status: ('A' for Active; 'I' for Inactive)
REMARK    1  A    between atoms: C2_2  and  C4_4 
REMARK    2  A    between atoms: C6_6  and  N1_7 
REMARK       I    between atoms: N1_7  and  C7_8 
REMARK    3  A    between atoms: C7_8  and  C8_10 
REMARK    4  A    between atoms: N2_13  and  C11_14 
REMARK    5  A    between atoms: C11_14  and  C12_15 
REMARK       I    between atoms: C12_15  and  N3_17 
REMARK    6  A    between atoms: N4_20  and  C15_21 
REMARK    7  A    between atoms: C18_24  and  C19_25 
REMARK    8  A    between atoms: C30_40  and  O3_41 
ROOT
HETATM    1  C12 UNL     1     -10.783  46.295 -24.244  1.00  0.00     0.248 C 
HETATM    2  O2  UNL     1     -11.432  46.639 -23.250  1.00  0.00    -0.271 OA
HETATM    3  N3  UNL     1      -9.483  46.749 -24.459  1.00  0.00    -0.348 N 
HETATM    4  C13 UNL     1      -8.569  46.147 -25.441  1.00  0.00     0.145 C 
HETATM    5  C14 UNL     1      -7.388  47.066 -25.827  1.00  0.00     0.143 C 
HETATM    6  N4  UNL     1      -6.721  47.612 -24.622  1.00  0.00    -0.378 N 
HETATM    7  C25 UNL     1      -7.666  48.316 -23.729  1.00  0.00     0.143 C 
HETATM    8  C26 UNL     1      -8.820  47.389 -23.320  1.00  0.00     0.145 C 
ENDROOT
BRANCH   1   9
HETATM    9  C11 UNL     1     -11.433  45.359 -25.274  1.00  0.00     0.374 C 
BRANCH   9  10
HETATM   10  N2  UNL     1     -12.097  46.097 -26.381  1.00  0.00     0.098 N 
HETATM   11  C10 UNL     1     -12.962  45.219 -27.191  1.00  0.00     0.274 C 
HETATM   12  C9  UNL     1     -14.307  45.228 -26.499  1.00  0.00     0.046 C 
HETATM   13  C8  UNL     1     -14.440  46.677 -26.064  1.00  0.00     0.108 C 
HETATM   14  C27 UNL     1     -12.999  47.130 -25.818  1.00  0.00     0.287 C 
BRANCH  13  15
HETATM   15  C7  UNL     1     -15.322  46.877 -24.841  1.00  0.00     0.228 C 
HETATM   16  N1  UNL     1     -16.216  45.831 -24.662  1.00  0.00    -0.327 N 
HETATM   17  H9  UNL     1     -16.133  45.044 -25.292  1.00  0.00     0.169 HD
HETATM   18  O1  UNL     1     -15.205  47.856 -24.115  1.00  0.00    -0.273 OA
BRANCH  16  19
HETATM   19  C6  UNL     1     -17.143  45.668 -23.606  1.00  0.00     0.035 A 
HETATM   20  C5  UNL     1     -16.916  46.089 -22.289  1.00  0.00     0.039 A 
HETATM   21  C4  UNL     1     -17.879  45.906 -21.268  1.00  0.00    -0.019 A 
HETATM   22  C30 UNL     1     -19.063  45.236 -21.606  1.00  0.00     0.072 A 
HETATM   23  C29 UNL     1     -19.304  44.824 -22.917  1.00  0.00     0.039 A 
HETATM   24  C28 UNL     1     -18.354  45.047 -23.915  1.00  0.00     0.032 A 
BRANCH  21  25
HETATM   25  C2  UNL     1     -17.551  46.476 -19.895  1.00  0.00     0.013 C 
HETATM   26  C1  UNL     1     -16.108  46.968 -19.768  1.00  0.00     0.015 C 
HETATM   27  C3  UNL     1     -18.558  47.538 -19.451  1.00  0.00     0.015 C 
ENDBRANCH  21  25
BRANCH  22  28
HETATM   28  O3  UNL     1     -20.052  44.932 -20.715  1.00  0.00    -0.360 OA
HETATM   29  H36 UNL     1     -19.695  44.994 -19.816  1.00  0.00     0.217 HD
ENDBRANCH  22  28
ENDBRANCH  16  19
ENDBRANCH  13  15
ENDBRANCH   9  10
ENDBRANCH   1   9
BRANCH   6  30
HETATM   30  C15 UNL     1      -5.468  48.203 -24.847  1.00  0.00     0.030 A 
HETATM   31  C16 UNL     1      -4.883  48.311 -26.115  1.00  0.00     0.030 A 
HETATM   32  C17 UNL     1      -3.667  48.986 -26.312  1.00  0.00     0.017 A 
HETATM   33  C18 UNL     1      -2.979  49.594 -25.251  1.00  0.00     0.008 A 
HETATM   34  C23 UNL     1      -3.553  49.466 -23.977  1.00  0.00     0.017 A 
HETATM   35  C24 UNL     1      -4.768  48.788 -23.783  1.00  0.00     0.030 A 
BRANCH  33  36
HETATM   36  C19 UNL     1      -1.742  50.370 -25.474  1.00  0.00     0.115 A 
HETATM   37  N5  UNL     1      -1.139  50.276 -26.678  1.00  0.00    -0.352 N 
HETATM   38  C20 UNL     1       0.026  50.939 -26.822  1.00  0.00     0.091 A 
ATOM     39  H5  UNL     1      -1.544  49.732 -27.440  1.00  0.00     0.166 HD
HETATM   40  C21 UNL     1       0.609  51.679 -25.824  1.00  0.00     0.034 A 
HETATM   41  C22 UNL     1      -0.083  51.724 -24.639  1.00  0.00     0.091 A 
HETATM   42  N6  UNL     1      -1.253  51.084 -24.439  1.00  0.00    -0.352 N 
ATOM     43  H6  UNL     1      -1.745  51.138 -23.547  1.00  0.00     0.166 HD
ENDBRANCH  33  36
ENDBRANCH   6  30
TORSDOF 8
ENDMDL
