MODEL 1
REMARK minimizedAffinity -9.50333405
REMARK  4 active torsions:
REMARK  status: ('A' for Active; 'I' for Inactive)
REMARK    1  A    between atoms: C2_2  and  N1_3 
REMARK    2  A    between atoms: C2_2  and  C16_28 
REMARK       I    between atoms: N1_3  and  C3_4 
REMARK       I    between atoms: C3_4  and  N2_6 
REMARK    3  A    between atoms: N2_6  and  C4_7 
REMARK    4  A    between atoms: C7_13  and  N5_14 
ROOT
HETATM    1  C4  UNL     1      -0.022  52.396 -19.719  1.00  0.00     0.111 A 
HETATM    2  C5  UNL     1       1.100  53.038 -19.197  1.00  0.00     0.080 A 
HETATM    3  C6  UNL     1       1.391  52.749 -17.864  1.00  0.00     0.067 A 
HETATM    4  N3  UNL     1       2.374  53.182 -17.021  1.00  0.00    -0.298 N 
HETATM    5  N4  UNL     1       2.308  52.668 -15.787  1.00  0.00    -0.284 N 
ATOM      6  H4  UNL     1       2.925  52.859 -14.998  1.00  0.00     0.188 HD
HETATM    7  C7  UNL     1       1.254  51.848 -15.820  1.00  0.00     0.132 A 
HETATM    8  C14 UNL     1       0.622  51.882 -17.099  1.00  0.00     0.053 A 
HETATM    9  C15 UNL     1      -0.502  51.309 -17.694  1.00  0.00     0.107 A 
HETATM   10  N7  UNL     1      -0.801  51.572 -18.992  1.00  0.00    -0.351 N 
ATOM     11  H7  UNL     1      -1.621  51.143 -19.420  1.00  0.00     0.166 HD
HETATM   12  H8  UNL     1       3.121  53.836 -17.223  1.00  0.00     0.187 HD
ENDROOT
BRANCH   1  13
HETATM   13  N2  UNL     1      -0.342  52.674 -21.054  1.00  0.00    -0.295 N 
HETATM   14  C3  UNL     1      -0.723  51.748 -21.997  1.00  0.00     0.322 C 
HETATM   15  N1  UNL     1      -1.086  52.392 -23.172  1.00  0.00    -0.335 N 
HETATM   16  O1  UNL     1      -0.742  50.531 -21.887  1.00  0.00    -0.247 OA
HETATM   17  H5  UNL     1      -1.587  53.252 -23.007  1.00  0.00     0.165 HD
HETATM   18  H6  UNL     1      -0.122  53.591 -21.405  1.00  0.00     0.172 HD
BRANCH  15  19
HETATM   19  C2  UNL     1      -1.577  51.615 -24.302  1.00  0.00     0.115 C 
HETATM   20  C1  UNL     1      -1.955  50.186 -23.898  1.00  0.00     0.037 C 
BRANCH  19  21
HETATM   21  C16 UNL     1      -0.529  51.622 -25.406  1.00  0.00    -0.036 A 
HETATM   22  C17 UNL     1       0.833  51.837 -25.124  1.00  0.00     0.012 A 
HETATM   23  C18 UNL     1       1.775  51.860 -26.153  1.00  0.00     0.043 A 
HETATM   24  C19 UNL     1       1.362  51.678 -27.466  1.00  0.00     0.116 A 
HETATM   25  F1  UNL     1       2.267  51.704 -28.452  1.00  0.00    -0.206 F 
HETATM   26  C20 UNL     1       0.022  51.473 -27.772  1.00  0.00     0.043 A 
HETATM   27  C21 UNL     1      -0.923  51.448 -26.745  1.00  0.00     0.012 A 
ENDBRANCH  19  21
ENDBRANCH  15  19
ENDBRANCH   1  13
BRANCH   7  28
HETATM   28  N5  UNL     1       0.818  51.092 -14.768  1.00  0.00    -0.359 N 
HETATM   29  C8  UNL     1       1.846  50.650 -13.785  1.00  0.00     0.130 C 
HETATM   30  C9  UNL     1       2.234  51.777 -12.794  1.00  0.00     0.068 C 
HETATM   31  C10 UNL     1       0.995  52.389 -12.229  1.00  0.00     0.009 A 
HETATM   32  S1  UNL     1       0.910  53.298 -10.797  1.00  0.00    -0.087 SA
HETATM   33  C12 UNL     1      -0.248  52.299 -12.824  1.00  0.00     0.040 A 
HETATM   34  C11 UNL     1      -0.782  53.490 -11.061  1.00  0.00     0.138 A 
HETATM   35  N6  UNL     1      -1.277  52.915 -12.138  1.00  0.00    -0.361 N 
ATOM     36  H6  UNL     1      -2.257  52.922 -12.419  1.00  0.00     0.165 HD
HETATM   37  C13 UNL     1      -0.447  51.528 -14.100  1.00  0.00     0.182 C 
ENDBRANCH   7  28
TORSDOF 4
ENDMDL
MODEL 2
REMARK minimizedAffinity -9.19473076
REMARK  4 active torsions:
REMARK  status: ('A' for Active; 'I' for Inactive)
REMARK    1  A    between atoms: C2_2  and  N1_3 
REMARK    2  A    between atoms: C2_2  and  C16_28 
REMARK       I    between atoms: N1_3  and  C3_4 
REMARK       I    between atoms: C3_4  and  N2_6 
REMARK    3  A    between atoms: N2_6  and  C4_7 
REMARK    4  A    between atoms: C7_13  and  N5_14 
ROOT
HETATM    1  C4  UNL     1      -0.271  51.761 -20.230  1.00  0.00     0.111 A 
HETATM    2  C5  UNL     1       0.667  52.665 -19.734  1.00  0.00     0.080 A 
HETATM    3  C6  UNL     1       0.975  52.530 -18.380  1.00  0.00     0.067 A 
HETATM    4  N3  UNL     1       1.814  53.219 -17.553  1.00  0.00    -0.298 N 
HETATM    5  N4  UNL     1       1.826  52.778 -16.289  1.00  0.00    -0.284 N 
ATOM      6  H4  UNL     1       2.363  53.148 -15.505  1.00  0.00     0.188 HD
HETATM    7  C7  UNL     1       0.979  51.746 -16.283  1.00  0.00     0.132 A 
HETATM    8  C14 UNL     1       0.393  51.562 -17.572  1.00  0.00     0.053 A 
HETATM    9  C15 UNL     1      -0.561  50.720 -18.145  1.00  0.00     0.107 A 
HETATM   10  N7  UNL     1      -0.871  50.831 -19.462  1.00  0.00    -0.351 N 
ATOM     11  H7  UNL     1      -1.565  50.207 -19.873  1.00  0.00     0.166 HD
HETATM   12  H8  UNL     1       2.405  54.008 -17.786  1.00  0.00     0.187 HD
ENDROOT
BRANCH   1  13
HETATM   13  N2  UNL     1      -0.604  51.880 -21.585  1.00  0.00    -0.295 N 
HETATM   14  C3  UNL     1      -1.878  51.848 -22.103  1.00  0.00     0.322 C 
HETATM   15  N1  UNL     1      -1.842  52.125 -23.462  1.00  0.00    -0.335 N 
HETATM   16  O1  UNL     1      -2.920  51.599 -21.515  1.00  0.00    -0.247 OA
HETATM   17  H5  UNL     1      -1.167  52.837 -23.698  1.00  0.00     0.165 HD
HETATM   18  H6  UNL     1       0.143  51.822 -22.256  1.00  0.00     0.172 HD
BRANCH  15  19
HETATM   19  C2  UNL     1      -3.085  52.198 -24.220  1.00  0.00     0.115 C 
HETATM   20  C1  UNL     1      -4.317  52.200 -23.308  1.00  0.00     0.037 C 
BRANCH  19  21
HETATM   21  C16 UNL     1      -3.131  51.046 -25.215  1.00  0.00    -0.036 A 
HETATM   22  C17 UNL     1      -3.088  51.273 -26.603  1.00  0.00     0.012 A 
HETATM   23  C18 UNL     1      -3.152  50.204 -27.498  1.00  0.00     0.043 A 
HETATM   24  C19 UNL     1      -3.269  48.908 -27.013  1.00  0.00     0.116 A 
HETATM   25  F1  UNL     1      -3.335  47.885 -27.874  1.00  0.00    -0.206 F 
HETATM   26  C20 UNL     1      -3.324  48.659 -25.647  1.00  0.00     0.043 A 
HETATM   27  C21 UNL     1      -3.258  49.725 -24.749  1.00  0.00     0.012 A 
ENDBRANCH  19  21
ENDBRANCH  15  19
ENDBRANCH   1  13
BRANCH   7  28
HETATM   28  N5  UNL     1       0.688  50.978 -15.192  1.00  0.00    -0.359 N 
HETATM   29  C8  UNL     1       1.835  50.566 -14.335  1.00  0.00     0.130 C 
HETATM   30  C9  UNL     1       2.301  51.703 -13.390  1.00  0.00     0.068 C 
HETATM   31  C10 UNL     1       1.118  52.280 -12.685  1.00  0.00     0.009 A 
HETATM   32  S1  UNL     1       1.171  53.186 -11.250  1.00  0.00    -0.087 SA
HETATM   33  C12 UNL     1      -0.182  52.153 -13.134  1.00  0.00     0.040 A 
HETATM   34  C11 UNL     1      -0.544  53.328 -11.317  1.00  0.00     0.138 A 
HETATM   35  N6  UNL     1      -1.143  52.738 -12.333  1.00  0.00    -0.361 N 
ATOM     36  H6  UNL     1      -2.148  52.718 -12.499  1.00  0.00     0.165 HD
HETATM   37  C13 UNL     1      -0.504  51.376 -14.381  1.00  0.00     0.182 C 
ENDBRANCH   7  28
TORSDOF 4
ENDMDL
MODEL 3
REMARK minimizedAffinity -9.18711376
REMARK  4 active torsions:
REMARK  status: ('A' for Active; 'I' for Inactive)
REMARK    1  A    between atoms: C2_2  and  N1_3 
REMARK    2  A    between atoms: C2_2  and  C16_28 
REMARK       I    between atoms: N1_3  and  C3_4 
REMARK       I    between atoms: C3_4  and  N2_6 
REMARK    3  A    between atoms: N2_6  and  C4_7 
REMARK    4  A    between atoms: C7_13  and  N5_14 
ROOT
HETATM    1  C4  UNL     1      -0.276  51.974 -19.030  1.00  0.00     0.111 A 
HETATM    2  C5  UNL     1       0.866  52.678 -18.651  1.00  0.00     0.080 A 
HETATM    3  C6  UNL     1       1.240  52.541 -17.314  1.00  0.00     0.067 A 
HETATM    4  N3  UNL     1       2.266  53.072 -16.586  1.00  0.00    -0.298 N 
HETATM    5  N4  UNL     1       2.280  52.697 -15.301  1.00  0.00    -0.284 N 
ATOM      6  H4  UNL     1       2.941  52.979 -14.577  1.00  0.00     0.188 HD
HETATM    7  C7  UNL     1       1.238  51.873 -15.178  1.00  0.00     0.132 A 
HETATM    8  C14 UNL     1       0.530  51.759 -16.413  1.00  0.00     0.053 A 
HETATM    9  C15 UNL     1      -0.620  51.116 -16.871  1.00  0.00     0.107 A 
HETATM   10  N7  UNL     1      -0.999  51.231 -18.170  1.00  0.00    -0.351 N 
ATOM     11  H7  UNL     1      -1.838  50.752 -18.497  1.00  0.00     0.166 HD
HETATM   12  H8  UNL     1       2.991  53.704 -16.904  1.00  0.00     0.187 HD
ENDROOT
BRANCH   1  13
HETATM   13  N2  UNL     1      -0.678  52.099 -20.366  1.00  0.00    -0.295 N 
HETATM   14  C3  UNL     1       0.162  52.218 -21.448  1.00  0.00     0.322 C 
HETATM   15  N1  UNL     1      -0.574  52.191 -22.623  1.00  0.00    -0.335 N 
HETATM   16  O1  UNL     1       1.377  52.350 -21.442  1.00  0.00    -0.247 OA
HETATM   17  H5  UNL     1      -1.343  51.537 -22.588  1.00  0.00     0.165 HD
HETATM   18  H6  UNL     1      -1.651  52.282 -20.545  1.00  0.00     0.172 HD
BRANCH  15  19
HETATM   19  C2  UNL     1       0.109  52.250 -23.909  1.00  0.00     0.115 C 
HETATM   20  C1  UNL     1       0.749  53.621 -24.159  1.00  0.00     0.037 C 
BRANCH  19  21
HETATM   21  C16 UNL     1      -0.873  51.885 -25.014  1.00  0.00    -0.036 A 
HETATM   22  C17 UNL     1      -2.189  52.382 -25.020  1.00  0.00     0.012 A 
HETATM   23  C18 UNL     1      -3.079  52.019 -26.032  1.00  0.00     0.043 A 
HETATM   24  C19 UNL     1      -2.664  51.151 -27.033  1.00  0.00     0.116 A 
HETATM   25  F1  UNL     1      -3.521  50.801 -28.000  1.00  0.00    -0.206 F 
HETATM   26  C20 UNL     1      -1.372  50.639 -27.043  1.00  0.00     0.043 A 
HETATM   27  C21 UNL     1      -0.478  51.002 -26.035  1.00  0.00     0.012 A 
ENDBRANCH  19  21
ENDBRANCH  15  19
ENDBRANCH   1  13
BRANCH   7  28
HETATM   28  N5  UNL     1       0.875  51.235 -14.025  1.00  0.00    -0.359 N 
HETATM   29  C8  UNL     1       1.960  50.950 -13.045  1.00  0.00     0.130 C 
HETATM   30  C9  UNL     1       2.345  52.200 -12.214  1.00  0.00     0.068 C 
HETATM   31  C10 UNL     1       1.109  52.836 -11.670  1.00  0.00     0.009 A 
HETATM   32  S1  UNL     1       1.050  53.908 -10.355  1.00  0.00    -0.087 SA
HETATM   33  C12 UNL     1      -0.153  52.633 -12.192  1.00  0.00     0.040 A 
HETATM   34  C11 UNL     1      -0.657  54.011 -10.561  1.00  0.00     0.138 A 
HETATM   35  N6  UNL     1      -1.175  53.294 -11.538  1.00  0.00    -0.361 N 
ATOM     36  H6  UNL     1      -2.166  53.236 -11.772  1.00  0.00     0.165 HD
HETATM   37  C13 UNL     1      -0.377  51.707 -13.356  1.00  0.00     0.182 C 
ENDBRANCH   7  28
TORSDOF 4
ENDMDL
MODEL 4
REMARK minimizedAffinity -8.99650288
REMARK  4 active torsions:
REMARK  status: ('A' for Active; 'I' for Inactive)
REMARK    1  A    between atoms: C2_2  and  N1_3 
REMARK    2  A    between atoms: C2_2  and  C16_28 
REMARK       I    between atoms: N1_3  and  C3_4 
REMARK       I    between atoms: C3_4  and  N2_6 
REMARK    3  A    between atoms: N2_6  and  C4_7 
REMARK    4  A    between atoms: C7_13  and  N5_14 
ROOT
HETATM    1  C4  UNL     1      -0.042  51.999 -19.534  1.00  0.00     0.111 A 
HETATM    2  C5  UNL     1       0.730  52.910 -18.814  1.00  0.00     0.080 A 
HETATM    3  C6  UNL     1       1.077  52.514 -17.523  1.00  0.00     0.067 A 
HETATM    4  N3  UNL     1       1.795  53.124 -16.534  1.00  0.00    -0.298 N 
HETATM    5  N4  UNL     1       1.903  52.406 -15.410  1.00  0.00    -0.284 N 
ATOM      6  H4  UNL     1       2.378  52.668 -14.546  1.00  0.00     0.188 HD
HETATM    7  C7  UNL     1       1.251  51.271 -15.670  1.00  0.00     0.132 A 
HETATM    8  C14 UNL     1       0.687  51.297 -16.981  1.00  0.00     0.053 A 
HETATM    9  C15 UNL     1      -0.113  50.461 -17.761  1.00  0.00     0.107 A 
HETATM   10  N7  UNL     1      -0.458  50.825 -19.023  1.00  0.00    -0.351 N 
ATOM     11  H7  UNL     1      -1.038  50.204 -19.588  1.00  0.00     0.166 HD
HETATM   12  H8  UNL     1       2.235  54.036 -16.559  1.00  0.00     0.187 HD
ENDROOT
BRANCH   1  13
HETATM   13  N2  UNL     1      -0.412  52.375 -20.832  1.00  0.00    -0.295 N 
HETATM   14  C3  UNL     1      -0.774  51.516 -21.843  1.00  0.00     0.322 C 
HETATM   15  N1  UNL     1      -1.200  52.239 -22.948  1.00  0.00    -0.335 N 
HETATM   16  O1  UNL     1      -0.730  50.295 -21.840  1.00  0.00    -0.247 OA
HETATM   17  H5  UNL     1      -1.737  53.056 -22.696  1.00  0.00     0.165 HD
HETATM   18  H6  UNL     1      -0.247  53.329 -21.105  1.00  0.00     0.172 HD
BRANCH  15  19
HETATM   19  C2  UNL     1      -1.684  51.540 -24.130  1.00  0.00     0.115 C 
HETATM   20  C1  UNL     1      -2.097  50.097 -23.817  1.00  0.00     0.037 C 
BRANCH  19  21
HETATM   21  C16 UNL     1      -0.615  51.589 -25.213  1.00  0.00    -0.036 A 
HETATM   22  C17 UNL     1      -0.884  51.171 -26.529  1.00  0.00     0.012 A 
HETATM   23  C18 UNL     1       0.116  51.206 -27.503  1.00  0.00     0.043 A 
HETATM   24  C19 UNL     1       1.388  51.647 -27.164  1.00  0.00     0.116 A 
HETATM   25  F1  UNL     1       2.347  51.676 -28.098  1.00  0.00    -0.206 F 
HETATM   26  C20 UNL     1       1.681  52.056 -25.869  1.00  0.00     0.043 A 
HETATM   27  C21 UNL     1       0.683  52.025 -24.893  1.00  0.00     0.012 A 
ENDBRANCH  19  21
ENDBRANCH  15  19
ENDBRANCH   1  13
BRANCH   7  28
HETATM   28  N5  UNL     1       1.116  50.227 -14.797  1.00  0.00    -0.359 N 
HETATM   29  C8  UNL     1       1.651  50.428 -13.422  1.00  0.00     0.130 C 
HETATM   30  C9  UNL     1       0.697  51.270 -12.537  1.00  0.00     0.068 C 
HETATM   31  C10 UNL     1      -0.687  50.721 -12.638  1.00  0.00     0.009 A 
HETATM   32  S1  UNL     1      -1.939  50.995 -11.523  1.00  0.00    -0.087 SA
HETATM   33  C12 UNL     1      -1.125  49.924 -13.676  1.00  0.00     0.040 A 
HETATM   34  C11 UNL     1      -2.970  50.014 -12.493  1.00  0.00     0.138 A 
HETATM   35  N6  UNL     1      -2.436  49.497 -13.581  1.00  0.00    -0.361 N 
ATOM     36  H6  UNL     1      -2.910  48.884 -14.243  1.00  0.00     0.165 HD
HETATM   37  C13 UNL     1      -0.200  49.516 -14.790  1.00  0.00     0.182 C 
ENDBRANCH   7  28
TORSDOF 4
ENDMDL
MODEL 5
REMARK minimizedAffinity -8.96781635
REMARK  4 active torsions:
REMARK  status: ('A' for Active; 'I' for Inactive)
REMARK    1  A    between atoms: C2_2  and  N1_3 
REMARK    2  A    between atoms: C2_2  and  C16_28 
REMARK       I    between atoms: N1_3  and  C3_4 
REMARK       I    between atoms: C3_4  and  N2_6 
REMARK    3  A    between atoms: N2_6  and  C4_7 
REMARK    4  A    between atoms: C7_13  and  N5_14 
ROOT
HETATM    1  C4  UNL     1      -3.230  49.099 -25.743  1.00  0.00     0.111 A 
HETATM    2  C5  UNL     1      -4.353  48.719 -25.010  1.00  0.00     0.080 A 
HETATM    3  C6  UNL     1      -5.413  48.203 -25.756  1.00  0.00     0.067 A 
HETATM    4  N3  UNL     1      -6.651  47.748 -25.406  1.00  0.00    -0.298 N 
HETATM    5  N4  UNL     1      -7.397  47.332 -26.437  1.00  0.00    -0.284 N 
ATOM      6  H4  UNL     1      -8.349  46.969 -26.410  1.00  0.00     0.188 HD
HETATM    7  C7  UNL     1      -6.616  47.499 -27.507  1.00  0.00     0.132 A 
HETATM    8  C14 UNL     1      -5.362  48.071 -27.138  1.00  0.00     0.053 A 
HETATM    9  C15 UNL     1      -4.210  48.507 -27.794  1.00  0.00     0.107 A 
HETATM   10  N7  UNL     1      -3.165  49.008 -27.085  1.00  0.00    -0.351 N 
ATOM     11  H7  UNL     1      -2.325  49.318 -27.573  1.00  0.00     0.166 HD
HETATM   12  H8  UNL     1      -7.054  47.699 -24.478  1.00  0.00     0.187 HD
ENDROOT
BRANCH   1  13
HETATM   13  N2  UNL     1      -2.155  49.628 -25.018  1.00  0.00    -0.295 N 
HETATM   14  C3  UNL     1      -1.791  50.954 -24.977  1.00  0.00     0.322 C 
HETATM   15  N1  UNL     1      -0.765  51.133 -24.060  1.00  0.00    -0.335 N 
HETATM   16  O1  UNL     1      -2.247  51.877 -25.635  1.00  0.00    -0.247 OA
HETATM   17  H5  UNL     1      -0.874  50.563 -23.235  1.00  0.00     0.165 HD
HETATM   18  H6  UNL     1      -1.494  48.980 -24.625  1.00  0.00     0.172 HD
BRANCH  15  19
HETATM   19  C2  UNL     1      -0.246  52.471 -23.806  1.00  0.00     0.115 C 
HETATM   20  C1  UNL     1       0.941  52.811 -24.714  1.00  0.00     0.037 C 
BRANCH  19  21
HETATM   21  C16 UNL     1       0.128  52.590 -22.335  1.00  0.00    -0.036 A 
HETATM   22  C17 UNL     1       1.007  53.590 -21.880  1.00  0.00     0.012 A 
HETATM   23  C18 UNL     1       1.352  53.670 -20.530  1.00  0.00     0.043 A 
HETATM   24  C19 UNL     1       0.830  52.749 -19.632  1.00  0.00     0.116 A 
HETATM   25  F1  UNL     1       1.166  52.825 -18.338  1.00  0.00    -0.206 F 
HETATM   26  C20 UNL     1      -0.032  51.746 -20.058  1.00  0.00     0.043 A 
HETATM   27  C21 UNL     1      -0.382  51.664 -21.407  1.00  0.00     0.012 A 
ENDBRANCH  19  21
ENDBRANCH  15  19
ENDBRANCH   1  13
BRANCH   7  28
HETATM   28  N5  UNL     1      -6.970  47.188 -28.790  1.00  0.00    -0.359 N 
HETATM   29  C8  UNL     1      -7.240  45.753 -29.084  1.00  0.00     0.130 C 
HETATM   30  C9  UNL     1      -8.646  45.309 -28.606  1.00  0.00     0.068 C 
HETATM   31  C10 UNL     1      -9.666  46.289 -29.085  1.00  0.00     0.009 A 
HETATM   32  S1  UNL     1     -11.332  45.989 -29.220  1.00  0.00    -0.087 SA
HETATM   33  C12 UNL     1      -9.370  47.582 -29.468  1.00  0.00     0.040 A 
HETATM   34  C11 UNL     1     -11.538  47.598 -29.799  1.00  0.00     0.138 A 
HETATM   35  N6  UNL     1     -10.447  48.330 -29.901  1.00  0.00    -0.361 N 
ATOM     36  H6  UNL     1     -10.404  49.290 -30.244  1.00  0.00     0.165 HD
HETATM   37  C13 UNL     1      -7.955  48.094 -29.459  1.00  0.00     0.182 C 
ENDBRANCH   7  28
TORSDOF 4
ENDMDL
MODEL 6
REMARK minimizedAffinity -8.95790958
REMARK  4 active torsions:
REMARK  status: ('A' for Active; 'I' for Inactive)
REMARK    1  A    between atoms: C2_2  and  N1_3 
REMARK    2  A    between atoms: C2_2  and  C16_28 
REMARK       I    between atoms: N1_3  and  C3_4 
REMARK       I    between atoms: C3_4  and  N2_6 
REMARK    3  A    between atoms: N2_6  and  C4_7 
REMARK    4  A    between atoms: C7_13  and  N5_14 
ROOT
HETATM    1  C4  UNL     1      -0.190  52.409 -21.355  1.00  0.00     0.111 A 
HETATM    2  C5  UNL     1       0.745  53.088 -22.135  1.00  0.00     0.080 A 
HETATM    3  C6  UNL     1       0.452  53.158 -23.497  1.00  0.00     0.067 A 
HETATM    4  N3  UNL     1       1.114  53.713 -24.554  1.00  0.00    -0.298 N 
HETATM    5  N4  UNL     1       0.498  53.559 -25.732  1.00  0.00    -0.284 N 
ATOM      6  H4  UNL     1       0.815  53.878 -26.648  1.00  0.00     0.188 HD
HETATM    7  C7  UNL     1      -0.623  52.895 -25.442  1.00  0.00     0.132 A 
HETATM    8  C14 UNL     1      -0.690  52.593 -24.049  1.00  0.00     0.053 A 
HETATM    9  C15 UNL     1      -1.553  51.903 -23.198  1.00  0.00     0.107 A 
HETATM   10  N7  UNL     1      -1.291  51.828 -21.868  1.00  0.00    -0.351 N 
ATOM     11  H7  UNL     1      -1.931  51.327 -21.253  1.00  0.00     0.166 HD
HETATM   12  H8  UNL     1       1.998  54.209 -24.542  1.00  0.00     0.187 HD
ENDROOT
BRANCH   1  13
HETATM   13  N2  UNL     1       0.084  52.317 -19.984  1.00  0.00    -0.295 N 
HETATM   14  C3  UNL     1      -0.373  51.333 -19.139  1.00  0.00     0.322 C 
HETATM   15  N1  UNL     1       0.198  51.484 -17.884  1.00  0.00    -0.335 N 
HETATM   16  O1  UNL     1      -1.175  50.444 -19.389  1.00  0.00    -0.247 OA
HETATM   17  H5  UNL     1       1.164  51.772 -17.927  1.00  0.00     0.165 HD
HETATM   18  H6  UNL     1       0.510  53.112 -19.539  1.00  0.00     0.172 HD
BRANCH  15  19
HETATM   19  C2  UNL     1      -0.099  50.522 -16.831  1.00  0.00     0.115 C 
HETATM   20  C1  UNL     1      -1.446  50.804 -16.156  1.00  0.00     0.037 C 
BRANCH  19  21
HETATM   21  C16 UNL     1       1.040  50.520 -15.820  1.00  0.00    -0.036 A 
HETATM   22  C17 UNL     1       1.172  49.495 -14.866  1.00  0.00     0.012 A 
HETATM   23  C18 UNL     1       2.211  49.521 -13.935  1.00  0.00     0.043 A 
HETATM   24  C19 UNL     1       3.115  50.576 -13.946  1.00  0.00     0.116 A 
HETATM   25  F1  UNL     1       4.109  50.602 -13.050  1.00  0.00    -0.206 F 
HETATM   26  C20 UNL     1       3.000  51.606 -14.872  1.00  0.00     0.043 A 
HETATM   27  C21 UNL     1       1.963  51.581 -15.806  1.00  0.00     0.012 A 
ENDBRANCH  19  21
ENDBRANCH  15  19
ENDBRANCH   1  13
BRANCH   7  28
HETATM   28  N5  UNL     1      -1.574  52.530 -26.353  1.00  0.00    -0.359 N 
HETATM   29  C8  UNL     1      -1.233  51.406 -27.268  1.00  0.00     0.130 C 
HETATM   30  C9  UNL     1      -1.382  50.024 -26.582  1.00  0.00     0.068 C 
HETATM   31  C10 UNL     1      -2.708  49.947 -25.902  1.00  0.00     0.009 A 
HETATM   32  S1  UNL     1      -3.498  48.516 -25.442  1.00  0.00    -0.087 SA
HETATM   33  C12 UNL     1      -3.456  51.052 -25.548  1.00  0.00     0.040 A 
HETATM   34  C11 UNL     1      -4.791  49.470 -24.821  1.00  0.00     0.138 A 
HETATM   35  N6  UNL     1      -4.668  50.777 -24.944  1.00  0.00    -0.361 N 
ATOM     36  H6  UNL     1      -5.353  51.469 -24.644  1.00  0.00     0.165 HD
HETATM   37  C13 UNL     1      -2.985  52.446 -25.861  1.00  0.00     0.182 C 
ENDBRANCH   7  28
TORSDOF 4
ENDMDL
MODEL 7
REMARK minimizedAffinity -8.95397091
REMARK  4 active torsions:
REMARK  status: ('A' for Active; 'I' for Inactive)
REMARK    1  A    between atoms: C2_2  and  N1_3 
REMARK    2  A    between atoms: C2_2  and  C16_28 
REMARK       I    between atoms: N1_3  and  C3_4 
REMARK       I    between atoms: C3_4  and  N2_6 
REMARK    3  A    between atoms: N2_6  and  C4_7 
REMARK    4  A    between atoms: C7_13  and  N5_14 
ROOT
HETATM    1  C4  UNL     1       0.029  52.450 -19.957  1.00  0.00     0.111 A 
HETATM    2  C5  UNL     1       1.121  53.012 -19.297  1.00  0.00     0.080 A 
HETATM    3  C6  UNL     1       1.241  52.682 -17.946  1.00  0.00     0.067 A 
HETATM    4  N3  UNL     1       2.146  53.037 -16.988  1.00  0.00    -0.298 N 
HETATM    5  N4  UNL     1       1.909  52.506 -15.783  1.00  0.00    -0.284 N 
ATOM      6  H4  UNL     1       2.442  52.644 -14.925  1.00  0.00     0.188 HD
HETATM    7  C7  UNL     1       0.818  51.755 -15.954  1.00  0.00     0.132 A 
HETATM    8  C14 UNL     1       0.339  51.851 -17.295  1.00  0.00     0.053 A 
HETATM    9  C15 UNL     1      -0.743  51.361 -18.026  1.00  0.00     0.107 A 
HETATM   10  N7  UNL     1      -0.876  51.665 -19.343  1.00  0.00    -0.351 N 
ATOM     11  H7  UNL     1      -1.666  51.296 -19.871  1.00  0.00     0.166 HD
HETATM   12  H8  UNL     1       2.949  53.646 -17.089  1.00  0.00     0.187 HD
ENDROOT
BRANCH   1  13
HETATM   13  N2  UNL     1      -0.119  52.772 -21.313  1.00  0.00    -0.295 N 
HETATM   14  C3  UNL     1      -0.613  51.935 -22.286  1.00  0.00     0.322 C 
HETATM   15  N1  UNL     1      -0.738  52.624 -23.483  1.00  0.00    -0.335 N 
HETATM   16  O1  UNL     1      -0.897  50.751 -22.181  1.00  0.00    -0.247 OA
HETATM   17  H5  UNL     1      -1.057  53.573 -23.356  1.00  0.00     0.165 HD
HETATM   18  H6  UNL     1       0.316  53.617 -21.642  1.00  0.00     0.172 HD
BRANCH  15  19
HETATM   19  C2  UNL     1      -1.292  51.954 -24.652  1.00  0.00     0.115 C 
HETATM   20  C1  UNL     1      -1.850  50.567 -24.310  1.00  0.00     0.037 C 
BRANCH  19  21
HETATM   21  C16 UNL     1      -0.226  51.873 -25.735  1.00  0.00    -0.036 A 
HETATM   22  C17 UNL     1       1.142  51.804 -25.414  1.00  0.00     0.012 A 
HETATM   23  C18 UNL     1       2.106  51.751 -26.422  1.00  0.00     0.043 A 
HETATM   24  C19 UNL     1       1.709  51.777 -27.753  1.00  0.00     0.116 A 
HETATM   25  F1  UNL     1       2.635  51.729 -28.718  1.00  0.00    -0.206 F 
HETATM   26  C20 UNL     1       0.364  51.854 -28.095  1.00  0.00     0.043 A 
HETATM   27  C21 UNL     1      -0.602  51.905 -27.089  1.00  0.00     0.012 A 
ENDBRANCH  19  21
ENDBRANCH  15  19
ENDBRANCH   1  13
BRANCH   7  28
HETATM   28  N5  UNL     1       0.220  51.009 -14.977  1.00  0.00    -0.359 N 
HETATM   29  C8  UNL     1      -0.528  49.799 -15.418  1.00  0.00     0.130 C 
HETATM   30  C9  UNL     1       0.414  48.608 -15.729  1.00  0.00     0.068 C 
HETATM   31  C10 UNL     1       1.371  48.422 -14.599  1.00  0.00     0.009 A 
HETATM   32  S1  UNL     1       2.245  47.004 -14.271  1.00  0.00    -0.087 SA
HETATM   33  C12 UNL     1       1.673  49.405 -13.678  1.00  0.00     0.040 A 
HETATM   34  C11 UNL     1       2.950  47.794 -12.913  1.00  0.00     0.138 A 
HETATM   35  N6  UNL     1       2.568  49.036 -12.692  1.00  0.00    -0.361 N 
ATOM     36  H6  UNL     1       2.880  49.626 -11.921  1.00  0.00     0.165 HD
HETATM   37  C13 UNL     1       1.016  50.757 -13.736  1.00  0.00     0.182 C 
ENDBRANCH   7  28
TORSDOF 4
ENDMDL
MODEL 8
REMARK minimizedAffinity -8.8743
REMARK  4 active torsions:
REMARK  status: ('A' for Active; 'I' for Inactive)
REMARK    1  A    between atoms: C2_2  and  N1_3 
REMARK    2  A    between atoms: C2_2  and  C16_28 
REMARK       I    between atoms: N1_3  and  C3_4 
REMARK       I    between atoms: C3_4  and  N2_6 
REMARK    3  A    between atoms: N2_6  and  C4_7 
REMARK    4  A    between atoms: C7_13  and  N5_14 
ROOT
HETATM    1  C4  UNL     1      -3.771  48.707 -26.553  1.00  0.00     0.111 A 
HETATM    2  C5  UNL     1      -4.862  48.414 -25.736  1.00  0.00     0.080 A 
HETATM    3  C6  UNL     1      -5.972  47.875 -26.386  1.00  0.00     0.067 A 
HETATM    4  N3  UNL     1      -7.201  47.482 -25.940  1.00  0.00    -0.298 N 
HETATM    5  N4  UNL     1      -8.011  47.014 -26.897  1.00  0.00    -0.284 N 
ATOM      6  H4  UNL     1      -8.969  46.680 -26.794  1.00  0.00     0.188 HD
HETATM    7  C7  UNL     1      -7.285  47.080 -28.015  1.00  0.00     0.132 A 
HETATM    8  C14 UNL     1      -5.998  47.641 -27.755  1.00  0.00     0.053 A 
HETATM    9  C15 UNL     1      -4.873  47.995 -28.500  1.00  0.00     0.107 A 
HETATM   10  N7  UNL     1      -3.780  48.516 -27.886  1.00  0.00    -0.351 N 
ATOM     11  H7  UNL     1      -2.960  48.766 -28.438  1.00  0.00     0.166 HD
HETATM   12  H8  UNL     1      -7.555  47.513 -24.991  1.00  0.00     0.187 HD
ENDROOT
BRANCH   1  13
HETATM   13  N2  UNL     1      -2.645  49.257 -25.925  1.00  0.00    -0.295 N 
HETATM   14  C3  UNL     1      -2.392  50.599 -25.767  1.00  0.00     0.322 C 
HETATM   15  N1  UNL     1      -1.257  50.777 -24.989  1.00  0.00    -0.335 N 
HETATM   16  O1  UNL     1      -3.019  51.540 -26.231  1.00  0.00    -0.247 OA
HETATM   17  H5  UNL     1      -1.191  50.109 -24.236  1.00  0.00     0.165 HD
HETATM   18  H6  UNL     1      -1.880  48.639 -25.716  1.00  0.00     0.172 HD
BRANCH  15  19
HETATM   19  C2  UNL     1      -0.819  52.123 -24.642  1.00  0.00     0.115 C 
HETATM   20  C1  UNL     1       0.340  52.597 -25.525  1.00  0.00     0.037 C 
BRANCH  19  21
HETATM   21  C16 UNL     1      -0.447  52.162 -23.166  1.00  0.00    -0.036 A 
HETATM   22  C17 UNL     1       0.672  52.883 -22.711  1.00  0.00     0.012 A 
HETATM   23  C18 UNL     1       1.009  52.890 -21.357  1.00  0.00     0.043 A 
HETATM   24  C19 UNL     1       0.236  52.170 -20.454  1.00  0.00     0.116 A 
HETATM   25  F1  UNL     1       0.563  52.175 -19.156  1.00  0.00    -0.206 F 
HETATM   26  C20 UNL     1      -0.868  51.442 -20.881  1.00  0.00     0.043 A 
HETATM   27  C21 UNL     1      -1.208  51.435 -22.234  1.00  0.00     0.012 A 
ENDBRANCH  19  21
ENDBRANCH  15  19
ENDBRANCH   1  13
BRANCH   7  28
HETATM   28  N5  UNL     1      -7.714  46.686 -29.252  1.00  0.00    -0.359 N 
HETATM   29  C8  UNL     1      -8.221  47.753 -30.159  1.00  0.00     0.130 C 
HETATM   30  C9  UNL     1      -7.073  48.549 -30.829  1.00  0.00     0.068 C 
HETATM   31  C10 UNL     1      -6.082  47.597 -31.412  1.00  0.00     0.009 A 
HETATM   32  S1  UNL     1      -4.947  47.973 -32.618  1.00  0.00    -0.087 SA
HETATM   33  C12 UNL     1      -5.961  46.278 -31.022  1.00  0.00     0.040 A 
HETATM   34  C11 UNL     1      -4.387  46.345 -32.549  1.00  0.00     0.138 A 
HETATM   35  N6  UNL     1      -4.998  45.550 -31.694  1.00  0.00    -0.361 N 
ATOM     36  H6  UNL     1      -4.794  44.561 -31.551  1.00  0.00     0.165 HD
HETATM   37  C13 UNL     1      -6.867  45.688 -29.976  1.00  0.00     0.182 C 
ENDBRANCH   7  28
TORSDOF 4
ENDMDL
MODEL 9
REMARK minimizedAffinity -8.7512598
REMARK  4 active torsions:
REMARK  status: ('A' for Active; 'I' for Inactive)
REMARK    1  A    between atoms: C2_2  and  N1_3 
REMARK    2  A    between atoms: C2_2  and  C16_28 
REMARK       I    between atoms: N1_3  and  C3_4 
REMARK       I    between atoms: C3_4  and  N2_6 
REMARK    3  A    between atoms: N2_6  and  C4_7 
REMARK    4  A    between atoms: C7_13  and  N5_14 
ROOT
HETATM    1  C4  UNL     1      -3.953  48.680 -26.125  1.00  0.00     0.111 A 
HETATM    2  C5  UNL     1      -3.832  48.482 -27.500  1.00  0.00     0.080 A 
HETATM    3  C6  UNL     1      -4.979  48.017 -28.143  1.00  0.00     0.067 A 
HETATM    4  N3  UNL     1      -5.241  47.699 -29.445  1.00  0.00    -0.298 N 
HETATM    5  N4  UNL     1      -6.489  47.271 -29.667  1.00  0.00    -0.284 N 
ATOM      6  H4  UNL     1      -6.897  46.970 -30.552  1.00  0.00     0.188 HD
HETATM    7  C7  UNL     1      -7.083  47.326 -28.472  1.00  0.00     0.132 A 
HETATM    8  C14 UNL     1      -6.167  47.765 -27.469  1.00  0.00     0.053 A 
HETATM    9  C15 UNL     1      -6.188  47.959 -26.088  1.00  0.00     0.107 A 
HETATM   10  N7  UNL     1      -5.084  48.417 -25.443  1.00  0.00    -0.351 N 
ATOM     11  H7  UNL     1      -5.111  48.563 -24.434  1.00  0.00     0.166 HD
HETATM   12  H8  UNL     1      -4.607  47.746 -30.234  1.00  0.00     0.187 HD
ENDROOT
BRANCH   1  13
HETATM   13  N2  UNL     1      -2.813  49.140 -25.453  1.00  0.00    -0.295 N 
HETATM   14  C3  UNL     1      -2.324  50.425 -25.493  1.00  0.00     0.322 C 
HETATM   15  N1  UNL     1      -1.261  50.553 -24.610  1.00  0.00    -0.335 N 
HETATM   16  O1  UNL     1      -2.708  51.352 -26.191  1.00  0.00    -0.247 OA
HETATM   17  H5  UNL     1      -1.403  50.040 -23.752  1.00  0.00     0.165 HD
HETATM   18  H6  UNL     1      -2.207  48.453 -25.040  1.00  0.00     0.172 HD
BRANCH  15  19
HETATM   19  C2  UNL     1      -0.611  51.845 -24.440  1.00  0.00     0.115 C 
HETATM   20  C1  UNL     1       0.599  52.008 -25.368  1.00  0.00     0.037 C 
BRANCH  19  21
HETATM   21  C16 UNL     1      -0.218  52.020 -22.979  1.00  0.00    -0.036 A 
HETATM   22  C17 UNL     1      -0.738  51.183 -21.975  1.00  0.00     0.012 A 
HETATM   23  C18 UNL     1      -0.382  51.372 -20.639  1.00  0.00     0.043 A 
HETATM   24  C19 UNL     1       0.486  52.403 -20.300  1.00  0.00     0.116 A 
HETATM   25  F1  UNL     1       0.823  52.585 -19.017  1.00  0.00    -0.206 F 
HETATM   26  C20 UNL     1       1.004  53.249 -21.272  1.00  0.00     0.043 A 
HETATM   27  C21 UNL     1       0.652  53.061 -22.610  1.00  0.00     0.012 A 
ENDBRANCH  19  21
ENDBRANCH  15  19
ENDBRANCH   1  13
BRANCH   7  28
HETATM   28  N5  UNL     1      -8.384  46.989 -28.228  1.00  0.00    -0.359 N 
HETATM   29  C8  UNL     1      -9.408  48.044 -28.466  1.00  0.00     0.130 C 
HETATM   30  C9  UNL     1      -9.748  48.204 -29.970  1.00  0.00     0.068 C 
HETATM   31  C10 UNL     1     -10.027  46.862 -30.562  1.00  0.00     0.009 A 
HETATM   32  S1  UNL     1     -10.880  46.579 -32.003  1.00  0.00    -0.087 SA
HETATM   33  C12 UNL     1      -9.603  45.673 -30.005  1.00  0.00     0.040 A 
HETATM   34  C11 UNL     1     -10.641  44.890 -31.771  1.00  0.00     0.138 A 
HETATM   35  N6  UNL     1      -9.976  44.533 -30.690  1.00  0.00    -0.361 N 
ATOM     36  H6  UNL     1      -9.772  43.575 -30.407  1.00  0.00     0.165 HD
HETATM   37  C13 UNL     1      -8.837  45.647 -28.710  1.00  0.00     0.182 C 
ENDBRANCH   7  28
TORSDOF 4
ENDMDL
