MODEL 1
REMARK minimizedAffinity -9.24265671
REMARK  8 active torsions:
REMARK  status: ('A' for Active; 'I' for Inactive)
REMARK    1  A    between atoms: C2_2  and  C3_3 
REMARK       I    between atoms: C3_3  and  N1_5 
REMARK    2  A    between atoms: N1_5  and  C4_6 
REMARK    3  A    between atoms: C10_12  and  N2_13 
REMARK    4  A    between atoms: N2_13  and  C11_14 
REMARK    5  A    between atoms: C12_17  and  N4_18 
REMARK    6  A    between atoms: N4_18  and  C13_19 
REMARK    7  A    between atoms: C15_21  and  O2_22 
REMARK    8  A    between atoms: C21_32  and  C22_33 
ROOT
HETATM    1  C11 UNL     1      -3.062  51.209 -22.906  1.00  0.00     0.138 A 
HETATM    2  N3  UNL     1      -2.059  51.131 -22.010  1.00  0.00    -0.176 N 
ATOM      3  H3  UNL     1      -1.120  51.434 -22.268  1.00  0.00     0.186 HD
HETATM    4  C12 UNL     1      -2.294  50.657 -20.784  1.00  0.00     0.684 A 
HETATM    5  N6  UNL     1      -3.505  50.245 -20.392  1.00  0.00    -0.201 N 
ATOM      6  H6  UNL     1      -3.669  49.896 -19.448  1.00  0.00     0.183 HD
HETATM    7  C20 UNL     1      -4.497  50.312 -21.298  1.00  0.00     0.126 A 
HETATM    8  C21 UNL     1      -4.334  50.788 -22.580  1.00  0.00     0.108 A 
ENDROOT
BRANCH   1   9
HETATM    9  N2  UNL     1      -2.771  51.686 -24.199  1.00  0.00    -0.339 N 
HETATM   10  H11 UNL     1      -3.392  52.409 -24.543  1.00  0.00     0.167 HD
BRANCH   9  11
HETATM   11  C10 UNL     1      -1.515  51.656 -24.857  1.00  0.00     0.060 A 
HETATM   12  C4  UNL     1      -1.168  50.605 -25.738  1.00  0.00     0.062 A 
HETATM   13  C5  UNL     1       0.104  50.597 -26.327  1.00  0.00     0.038 A 
HETATM   14  C6  UNL     1       1.024  51.628 -26.088  1.00  0.00    -0.060 A 
HETATM   15  C7  UNL     1       2.356  51.630 -26.780  1.00  0.00     0.048 C 
HETATM   16  C8  UNL     1       0.654  52.694 -25.271  1.00  0.00     0.009 A 
HETATM   17  C9  UNL     1      -0.601  52.705 -24.662  1.00  0.00     0.032 A 
BRANCH  12  18
HETATM   18  N1  UNL     1      -2.153  49.637 -26.063  1.00  0.00    -0.322 N 
HETATM   19  C3  UNL     1      -2.972  49.621 -27.167  1.00  0.00     0.244 C 
HETATM   20  O1  UNL     1      -2.881  50.321 -28.170  1.00  0.00    -0.268 OA
HETATM   21  H4  UNL     1      -2.289  48.906 -25.383  1.00  0.00     0.169 HD
BRANCH  19  22
HETATM   22  C2  UNL     1      -4.018  48.559 -27.138  1.00  0.00     0.064 C 
HETATM   23  C1  UNL     1      -4.835  48.241 -28.149  1.00  0.00     0.017 C 
ENDBRANCH  19  22
ENDBRANCH  12  18
ENDBRANCH   9  11
ENDBRANCH   1   9
BRANCH   8  24
HETATM   24  C22 UNL     1      -5.461  50.814 -23.539  1.00  0.00     0.422 C 
HETATM   25  F1  UNL     1      -5.575  51.996 -24.207  1.00  0.00    -0.166 F 
HETATM   26  F2  UNL     1      -6.668  50.603 -22.950  1.00  0.00    -0.166 F 
HETATM   27  F3  UNL     1      -5.343  49.857 -24.507  1.00  0.00    -0.166 F 
ENDBRANCH   8  24
BRANCH   4  28
HETATM   28  N4  UNL     1      -1.290  50.551 -19.826  1.00  0.00    -0.191 N 
HETATM   29  H12 UNL     1      -1.353  49.641 -19.398  1.00  0.00     0.184 HD
BRANCH  28  30
HETATM   30  C13 UNL     1      -0.341  51.447 -19.309  1.00  0.00     0.060 A 
HETATM   31  C14 UNL     1       0.184  52.506 -20.056  1.00  0.00     0.086 A 
HETATM   32  C15 UNL     1       1.138  53.339 -19.492  1.00  0.00     0.143 A 
HETATM   33  N5  UNL     1       1.613  53.198 -18.240  1.00  0.00    -0.346 N 
HETATM   34  C17 UNL     1       1.113  52.169 -17.531  1.00  0.00     0.099 A 
ATOM     35  H5  UNL     1       2.312  53.832 -17.853  1.00  0.00     0.167 HD
HETATM   36  C18 UNL     1       0.150  51.273 -18.000  1.00  0.00    -0.019 A 
HETATM   37  C19 UNL     1      -0.303  50.155 -17.104  1.00  0.00     0.052 C 
BRANCH  32  38
HETATM   38  O2  UNL     1       1.612  54.357 -20.296  1.00  0.00    -0.341 OA
HETATM   39  C16 UNL     1       1.514  54.067 -21.686  1.00  0.00     0.211 C 
ENDBRANCH  32  38
ENDBRANCH  28  30
ENDBRANCH   4  28
TORSDOF 8
ENDMDL
MODEL 2
REMARK minimizedAffinity -9.14912415
REMARK  8 active torsions:
REMARK  status: ('A' for Active; 'I' for Inactive)
REMARK    1  A    between atoms: C2_2  and  C3_3 
REMARK       I    between atoms: C3_3  and  N1_5 
REMARK    2  A    between atoms: N1_5  and  C4_6 
REMARK    3  A    between atoms: C10_12  and  N2_13 
REMARK    4  A    between atoms: N2_13  and  C11_14 
REMARK    5  A    between atoms: C12_17  and  N4_18 
REMARK    6  A    between atoms: N4_18  and  C13_19 
REMARK    7  A    between atoms: C15_21  and  O2_22 
REMARK    8  A    between atoms: C21_32  and  C22_33 
ROOT
HETATM    1  C11 UNL     1      -0.819  52.051 -20.976  1.00  0.00     0.138 A 
HETATM    2  N3  UNL     1      -1.391  51.291 -21.928  1.00  0.00    -0.176 N 
ATOM      3  H3  UNL     1      -2.164  50.670 -21.689  1.00  0.00     0.186 HD
HETATM    4  C12 UNL     1      -0.948  51.350 -23.186  1.00  0.00     0.684 A 
HETATM    5  N6  UNL     1       0.062  52.145 -23.556  1.00  0.00    -0.201 N 
ATOM      6  H6  UNL     1       0.381  52.185 -24.524  1.00  0.00     0.183 HD
HETATM    7  C20 UNL     1       0.639  52.888 -22.595  1.00  0.00     0.126 A 
HETATM    8  C21 UNL     1       0.239  52.883 -21.277  1.00  0.00     0.108 A 
ENDROOT
BRANCH   1   9
HETATM    9  N2  UNL     1      -1.293  51.940 -19.654  1.00  0.00    -0.339 N 
HETATM   10  H11 UNL     1      -2.243  52.264 -19.507  1.00  0.00     0.167 HD
BRANCH   9  11
HETATM   11  C10 UNL     1      -0.838  51.041 -18.656  1.00  0.00     0.060 A 
HETATM   12  C4  UNL     1      -1.331  49.717 -18.575  1.00  0.00     0.062 A 
HETATM   13  C5  UNL     1      -0.885  48.883 -17.540  1.00  0.00     0.038 A 
HETATM   14  C6  UNL     1       0.066  49.324 -16.608  1.00  0.00    -0.060 A 
HETATM   15  C7  UNL     1       0.576  48.391 -15.547  1.00  0.00     0.048 C 
HETATM   16  C8  UNL     1       0.596  50.607 -16.731  1.00  0.00     0.009 A 
HETATM   17  C9  UNL     1       0.146  51.454 -17.743  1.00  0.00     0.032 A 
BRANCH  12  18
HETATM   18  N1  UNL     1      -2.198  49.251 -19.596  1.00  0.00    -0.322 N 
HETATM   19  C3  UNL     1      -1.910  48.330 -20.575  1.00  0.00     0.244 C 
HETATM   20  O1  UNL     1      -0.929  47.597 -20.641  1.00  0.00    -0.268 OA
HETATM   21  H4  UNL     1      -3.110  49.677 -19.624  1.00  0.00     0.169 HD
BRANCH  19  22
HETATM   22  C2  UNL     1      -2.980  48.174 -21.602  1.00  0.00     0.064 C 
HETATM   23  C1  UNL     1      -3.966  47.269 -21.569  1.00  0.00     0.017 C 
ENDBRANCH  19  22
ENDBRANCH  12  18
ENDBRANCH   9  11
ENDBRANCH   1   9
BRANCH   8  24
HETATM   24  C22 UNL     1       0.930  53.708 -20.261  1.00  0.00     0.422 C 
HETATM   25  F1  UNL     1       1.707  54.689 -20.799  1.00  0.00    -0.166 F 
HETATM   26  F2  UNL     1       1.751  52.984 -19.454  1.00  0.00    -0.166 F 
HETATM   27  F3  UNL     1       0.056  54.349 -19.428  1.00  0.00    -0.166 F 
ENDBRANCH   8  24
BRANCH   4  28
HETATM   28  N4  UNL     1      -1.503  50.579 -24.204  1.00  0.00    -0.191 N 
HETATM   29  H12 UNL     1      -1.491  49.613 -23.915  1.00  0.00     0.184 HD
BRANCH  28  30
HETATM   30  C13 UNL     1      -1.948  50.861 -25.505  1.00  0.00     0.060 A 
HETATM   31  C14 UNL     1      -1.742  52.099 -26.122  1.00  0.00     0.086 A 
HETATM   32  C15 UNL     1      -2.230  52.320 -27.401  1.00  0.00     0.143 A 
HETATM   33  N5  UNL     1      -2.913  51.404 -28.113  1.00  0.00    -0.346 N 
HETATM   34  C17 UNL     1      -3.118  50.219 -27.509  1.00  0.00     0.099 A 
ATOM     35  H5  UNL     1      -3.254  51.596 -29.055  1.00  0.00     0.167 HD
HETATM   36  C18 UNL     1      -2.670  49.890 -26.228  1.00  0.00    -0.019 A 
HETATM   37  C19 UNL     1      -2.991  48.534 -25.668  1.00  0.00     0.052 C 
BRANCH  32  38
HETATM   38  O2  UNL     1      -1.991  53.570 -27.938  1.00  0.00    -0.341 OA
HETATM   39  C16 UNL     1      -0.607  53.886 -28.029  1.00  0.00     0.211 C 
ENDBRANCH  32  38
ENDBRANCH  28  30
ENDBRANCH   4  28
TORSDOF 8
ENDMDL
MODEL 3
REMARK minimizedAffinity -8.80194569
REMARK  8 active torsions:
REMARK  status: ('A' for Active; 'I' for Inactive)
REMARK    1  A    between atoms: C2_2  and  C3_3 
REMARK       I    between atoms: C3_3  and  N1_5 
REMARK    2  A    between atoms: N1_5  and  C4_6 
REMARK    3  A    between atoms: C10_12  and  N2_13 
REMARK    4  A    between atoms: N2_13  and  C11_14 
REMARK    5  A    between atoms: C12_17  and  N4_18 
REMARK    6  A    between atoms: N4_18  and  C13_19 
REMARK    7  A    between atoms: C15_21  and  O2_22 
REMARK    8  A    between atoms: C21_32  and  C22_33 
ROOT
HETATM    1  C11 UNL     1      -3.526  51.113 -25.099  1.00  0.00     0.138 A 
HETATM    2  N3  UNL     1      -3.685  50.120 -25.994  1.00  0.00    -0.176 N 
ATOM      3  H3  UNL     1      -3.143  50.121 -26.858  1.00  0.00     0.186 HD
HETATM    4  C12 UNL     1      -4.553  49.135 -25.752  1.00  0.00     0.684 A 
HETATM    5  N6  UNL     1      -5.291  49.084 -24.638  1.00  0.00    -0.201 N 
ATOM      6  H6  UNL     1      -5.941  48.318 -24.464  1.00  0.00     0.183 HD
HETATM    7  C20 UNL     1      -5.136  50.088 -23.756  1.00  0.00     0.126 A 
HETATM    8  C21 UNL     1      -4.263  51.137 -23.934  1.00  0.00     0.108 A 
ENDROOT
BRANCH   1   9
HETATM    9  N2  UNL     1      -2.623  52.151 -25.401  1.00  0.00    -0.339 N 
HETATM   10  H11 UNL     1      -2.760  53.009 -24.878  1.00  0.00     0.167 HD
BRANCH   9  11
HETATM   11  C10 UNL     1      -1.319  52.018 -25.943  1.00  0.00     0.060 A 
HETATM   12  C4  UNL     1      -0.179  51.928 -25.111  1.00  0.00     0.062 A 
HETATM   13  C5  UNL     1       1.091  51.846 -25.698  1.00  0.00     0.038 A 
HETATM   14  C6  UNL     1       1.250  51.816 -27.091  1.00  0.00    -0.060 A 
HETATM   15  C7  UNL     1       2.616  51.665 -27.695  1.00  0.00     0.048 C 
HETATM   16  C8  UNL     1       0.120  51.841 -27.905  1.00  0.00     0.009 A 
HETATM   17  C9  UNL     1      -1.149  51.943 -27.336  1.00  0.00     0.032 A 
BRANCH  12  18
HETATM   18  N1  UNL     1      -0.367  51.836 -23.708  1.00  0.00    -0.322 N 
HETATM   19  C3  UNL     1       0.242  52.593 -22.736  1.00  0.00     0.244 C 
HETATM   20  O1  UNL     1       0.908  53.610 -22.894  1.00  0.00    -0.268 OA
HETATM   21  H4  UNL     1      -0.986  51.104 -23.397  1.00  0.00     0.169 HD
BRANCH  19  22
HETATM   22  C2  UNL     1      -0.041  52.142 -21.343  1.00  0.00     0.064 C 
HETATM   23  C1  UNL     1       0.498  52.658 -20.231  1.00  0.00     0.017 C 
ENDBRANCH  19  22
ENDBRANCH  12  18
ENDBRANCH   9  11
ENDBRANCH   1   9
BRANCH   8  24
HETATM   24  C22 UNL     1      -4.157  52.225 -22.936  1.00  0.00     0.422 C 
HETATM   25  F1  UNL     1      -4.096  51.776 -21.651  1.00  0.00    -0.166 F 
HETATM   26  F2  UNL     1      -5.203  53.092 -22.977  1.00  0.00    -0.166 F 
HETATM   27  F3  UNL     1      -3.034  52.984 -23.111  1.00  0.00    -0.166 F 
ENDBRANCH   8  24
BRANCH   4  28
HETATM   28  N4  UNL     1      -4.757  48.091 -26.651  1.00  0.00    -0.191 N 
HETATM   29  H12 UNL     1      -4.251  47.284 -26.321  1.00  0.00     0.184 HD
BRANCH  28  30
HETATM   30  C13 UNL     1      -5.402  47.989 -27.893  1.00  0.00     0.060 A 
HETATM   31  C14 UNL     1      -4.801  48.387 -29.091  1.00  0.00     0.086 A 
HETATM   32  C15 UNL     1      -5.505  48.283 -30.281  1.00  0.00     0.143 A 
HETATM   33  N5  UNL     1      -6.764  47.815 -30.371  1.00  0.00    -0.346 N 
HETATM   34  C17 UNL     1      -7.341  47.445 -29.213  1.00  0.00     0.099 A 
ATOM     35  H5  UNL     1      -7.252  47.746 -31.264  1.00  0.00     0.167 HD
HETATM   36  C18 UNL     1      -6.724  47.506 -27.961  1.00  0.00    -0.019 A 
HETATM   37  C19 UNL     1      -7.497  47.079 -26.746  1.00  0.00     0.052 C 
BRANCH  32  38
HETATM   38  O2  UNL     1      -4.845  48.703 -31.420  1.00  0.00    -0.341 OA
HETATM   39  C16 UNL     1      -5.003  47.815 -32.520  1.00  0.00     0.211 C 
ENDBRANCH  32  38
ENDBRANCH  28  30
ENDBRANCH   4  28
TORSDOF 8
ENDMDL
MODEL 4
REMARK minimizedAffinity -8.72800446
REMARK  8 active torsions:
REMARK  status: ('A' for Active; 'I' for Inactive)
REMARK    1  A    between atoms: C2_2  and  C3_3 
REMARK       I    between atoms: C3_3  and  N1_5 
REMARK    2  A    between atoms: N1_5  and  C4_6 
REMARK    3  A    between atoms: C10_12  and  N2_13 
REMARK    4  A    between atoms: N2_13  and  C11_14 
REMARK    5  A    between atoms: C12_17  and  N4_18 
REMARK    6  A    between atoms: N4_18  and  C13_19 
REMARK    7  A    between atoms: C15_21  and  O2_22 
REMARK    8  A    between atoms: C21_32  and  C22_33 
ROOT
HETATM    1  C11 UNL     1      -2.829  51.236 -23.164  1.00  0.00     0.138 A 
HETATM    2  N3  UNL     1      -1.747  51.050 -22.386  1.00  0.00    -0.176 N 
ATOM      3  H3  UNL     1      -0.821  51.304 -22.730  1.00  0.00     0.186 HD
HETATM    4  C12 UNL     1      -1.885  50.532 -21.163  1.00  0.00     0.684 A 
HETATM    5  N6  UNL     1      -3.073  50.179 -20.661  1.00  0.00    -0.201 N 
ATOM      6  H6  UNL     1      -3.162  49.795 -19.721  1.00  0.00     0.183 HD
HETATM    7  C20 UNL     1      -4.147  50.354 -21.452  1.00  0.00     0.126 A 
HETATM    8  C21 UNL     1      -4.086  50.882 -22.722  1.00  0.00     0.108 A 
ENDROOT
BRANCH   1   9
HETATM    9  N2  UNL     1      -2.642  51.757 -24.460  1.00  0.00    -0.339 N 
HETATM   10  H11 UNL     1      -3.285  52.493 -24.727  1.00  0.00     0.167 HD
BRANCH   9  11
HETATM   11  C10 UNL     1      -1.444  51.746 -25.220  1.00  0.00     0.060 A 
HETATM   12  C4  UNL     1      -1.125  50.669 -26.079  1.00  0.00     0.062 A 
HETATM   13  C5  UNL     1       0.093  50.685 -26.772  1.00  0.00     0.038 A 
HETATM   14  C6  UNL     1       0.984  51.762 -26.657  1.00  0.00    -0.060 A 
HETATM   15  C7  UNL     1       2.253  51.786 -27.458  1.00  0.00     0.048 C 
HETATM   16  C8  UNL     1       0.635  52.850 -25.859  1.00  0.00     0.009 A 
HETATM   17  C9  UNL     1      -0.565  52.839 -25.148  1.00  0.00     0.032 A 
BRANCH  12  18
HETATM   18  N1  UNL     1      -2.090  49.648 -26.277  1.00  0.00    -0.322 N 
HETATM   19  C3  UNL     1      -3.029  49.573 -27.278  1.00  0.00     0.244 C 
HETATM   20  O1  UNL     1      -3.091  50.259 -28.293  1.00  0.00    -0.268 OA
HETATM   21  H4  UNL     1      -2.108  48.923 -25.578  1.00  0.00     0.169 HD
BRANCH  19  22
HETATM   22  C2  UNL     1      -4.008  48.460 -27.117  1.00  0.00     0.064 C 
HETATM   23  C1  UNL     1      -4.926  48.091 -28.018  1.00  0.00     0.017 C 
ENDBRANCH  19  22
ENDBRANCH  12  18
ENDBRANCH   9  11
ENDBRANCH   1   9
BRANCH   8  24
HETATM   24  C22 UNL     1      -5.303  51.027 -23.553  1.00  0.00     0.422 C 
HETATM   25  F1  UNL     1      -6.458  50.835 -22.858  1.00  0.00    -0.166 F 
HETATM   26  F2  UNL     1      -5.346  50.154 -24.594  1.00  0.00    -0.166 F 
HETATM   27  F3  UNL     1      -5.411  52.273 -24.104  1.00  0.00    -0.166 F 
ENDBRANCH   8  24
BRANCH   4  28
HETATM   28  N4  UNL     1      -0.795  50.315 -20.323  1.00  0.00    -0.191 N 
HETATM   29  H12 UNL     1      -0.475  49.368 -20.455  1.00  0.00     0.184 HD
BRANCH  28  30
HETATM   30  C13 UNL     1      -0.171  51.077 -19.323  1.00  0.00     0.060 A 
HETATM   31  C14 UNL     1      -0.285  50.777 -17.962  1.00  0.00     0.086 A 
HETATM   32  C15 UNL     1       0.336  51.587 -17.025  1.00  0.00     0.143 A 
HETATM   33  N5  UNL     1       1.062  52.677 -17.337  1.00  0.00    -0.346 N 
HETATM   34  C17 UNL     1       1.158  52.967 -18.648  1.00  0.00     0.099 A 
ATOM     35  H5  UNL     1       1.512  53.249 -16.623  1.00  0.00     0.167 HD
HETATM   36  C18 UNL     1       0.575  52.220 -19.673  1.00  0.00    -0.019 A 
HETATM   37  C19 UNL     1       0.747  52.674 -21.095  1.00  0.00     0.052 C 
BRANCH  32  38
HETATM   38  O2  UNL     1       0.170  51.228 -15.701  1.00  0.00    -0.341 OA
HETATM   39  C16 UNL     1       0.928  52.030 -14.803  1.00  0.00     0.211 C 
ENDBRANCH  32  38
ENDBRANCH  28  30
ENDBRANCH   4  28
TORSDOF 8
ENDMDL
MODEL 5
REMARK minimizedAffinity -8.57052994
REMARK  8 active torsions:
REMARK  status: ('A' for Active; 'I' for Inactive)
REMARK    1  A    between atoms: C2_2  and  C3_3 
REMARK       I    between atoms: C3_3  and  N1_5 
REMARK    2  A    between atoms: N1_5  and  C4_6 
REMARK    3  A    between atoms: C10_12  and  N2_13 
REMARK    4  A    between atoms: N2_13  and  C11_14 
REMARK    5  A    between atoms: C12_17  and  N4_18 
REMARK    6  A    between atoms: N4_18  and  C13_19 
REMARK    7  A    between atoms: C15_21  and  O2_22 
REMARK    8  A    between atoms: C21_32  and  C22_33 
ROOT
HETATM    1  C11 UNL     1      -0.741  51.937 -20.386  1.00  0.00     0.138 A 
HETATM    2  N3  UNL     1      -1.449  50.924 -20.921  1.00  0.00    -0.176 N 
ATOM      3  H3  UNL     1      -2.105  50.400 -20.342  1.00  0.00     0.186 HD
HETATM    4  C12 UNL     1      -1.293  50.607 -22.208  1.00  0.00     0.684 A 
HETATM    5  N6  UNL     1      -0.447  51.260 -23.013  1.00  0.00    -0.201 N 
ATOM      6  H6  UNL     1      -0.349  51.011 -23.997  1.00  0.00     0.183 HD
HETATM    7  C20 UNL     1       0.268  52.260 -22.466  1.00  0.00     0.126 A 
HETATM    8  C21 UNL     1       0.163  52.646 -21.149  1.00  0.00     0.108 A 
ENDROOT
BRANCH   1   9
HETATM    9  N2  UNL     1      -0.909  52.224 -19.018  1.00  0.00    -0.339 N 
HETATM   10  H11 UNL     1      -1.101  53.196 -18.800  1.00  0.00     0.167 HD
BRANCH   9  11
HETATM   11  C10 UNL     1      -1.314  51.323 -18.000  1.00  0.00     0.060 A 
HETATM   12  C4  UNL     1      -0.391  50.805 -17.062  1.00  0.00     0.062 A 
HETATM   13  C5  UNL     1      -0.833  49.881 -16.105  1.00  0.00     0.038 A 
HETATM   14  C6  UNL     1      -2.179  49.490 -16.037  1.00  0.00    -0.060 A 
HETATM   15  C7  UNL     1      -2.640  48.547 -14.963  1.00  0.00     0.048 C 
HETATM   16  C8  UNL     1      -3.096  50.053 -16.922  1.00  0.00     0.009 A 
HETATM   17  C9  UNL     1      -2.666  50.957 -17.892  1.00  0.00     0.032 A 
BRANCH  12  18
HETATM   18  N1  UNL     1       0.937  51.303 -17.068  1.00  0.00    -0.322 N 
HETATM   19  C3  UNL     1       1.479  52.240 -16.220  1.00  0.00     0.244 C 
HETATM   20  O1  UNL     1       0.988  52.677 -15.185  1.00  0.00    -0.268 OA
HETATM   21  H4  UNL     1       1.530  50.958 -17.806  1.00  0.00     0.169 HD
BRANCH  19  22
HETATM   22  C2  UNL     1       2.856  52.676 -16.589  1.00  0.00     0.064 C 
HETATM   23  C1  UNL     1       3.980  52.337 -15.946  1.00  0.00     0.017 C 
ENDBRANCH  19  22
ENDBRANCH  12  18
ENDBRANCH   9  11
ENDBRANCH   1   9
BRANCH   8  24
HETATM   24  C22 UNL     1       0.996  53.740 -20.601  1.00  0.00     0.422 C 
HETATM   25  F1  UNL     1       1.898  53.319 -19.672  1.00  0.00    -0.166 F 
HETATM   26  F2  UNL     1       0.267  54.715 -19.996  1.00  0.00    -0.166 F 
HETATM   27  F3  UNL     1       1.732  54.368 -21.567  1.00  0.00    -0.166 F 
ENDBRANCH   8  24
BRANCH   4  28
HETATM   28  N4  UNL     1      -1.998  49.565 -22.805  1.00  0.00    -0.191 N 
HETATM   29  H12 UNL     1      -1.842  48.726 -22.267  1.00  0.00     0.184 HD
BRANCH  28  30
HETATM   30  C13 UNL     1      -2.745  49.448 -23.987  1.00  0.00     0.060 A 
HETATM   31  C14 UNL     1      -2.391  50.099 -25.172  1.00  0.00     0.086 A 
HETATM   32  C15 UNL     1      -3.189  49.961 -26.298  1.00  0.00     0.143 A 
HETATM   33  N5  UNL     1      -4.315  49.225 -26.335  1.00  0.00    -0.346 N 
HETATM   34  C17 UNL     1      -4.657  48.610 -25.187  1.00  0.00     0.099 A 
ATOM     35  H5  UNL     1      -4.877  49.139 -27.182  1.00  0.00     0.167 HD
HETATM   36  C18 UNL     1      -3.927  48.680 -23.999  1.00  0.00    -0.019 A 
HETATM   37  C19 UNL     1      -4.439  47.958 -22.785  1.00  0.00     0.052 C 
BRANCH  32  38
HETATM   38  O2  UNL     1      -2.775  50.642 -27.427  1.00  0.00    -0.341 OA
HETATM   39  C16 UNL     1      -2.557  52.029 -27.197  1.00  0.00     0.211 C 
ENDBRANCH  32  38
ENDBRANCH  28  30
ENDBRANCH   4  28
TORSDOF 8
ENDMDL
MODEL 6
REMARK minimizedAffinity -8.5595665
REMARK  8 active torsions:
REMARK  status: ('A' for Active; 'I' for Inactive)
REMARK    1  A    between atoms: C2_2  and  C3_3 
REMARK       I    between atoms: C3_3  and  N1_5 
REMARK    2  A    between atoms: N1_5  and  C4_6 
REMARK    3  A    between atoms: C10_12  and  N2_13 
REMARK    4  A    between atoms: N2_13  and  C11_14 
REMARK    5  A    between atoms: C12_17  and  N4_18 
REMARK    6  A    between atoms: N4_18  and  C13_19 
REMARK    7  A    between atoms: C15_21  and  O2_22 
REMARK    8  A    between atoms: C21_32  and  C22_33 
ROOT
HETATM    1  C11 UNL     1      -3.095  49.931 -24.138  1.00  0.00     0.138 A 
HETATM    2  N3  UNL     1      -3.698  50.229 -22.972  1.00  0.00    -0.176 N 
ATOM      3  H3  UNL     1      -3.192  50.748 -22.254  1.00  0.00     0.186 HD
HETATM    4  C12 UNL     1      -4.958  49.846 -22.754  1.00  0.00     0.684 A 
HETATM    5  N6  UNL     1      -5.669  49.164 -23.659  1.00  0.00    -0.201 N 
ATOM      6  H6  UNL     1      -6.634  48.889 -23.481  1.00  0.00     0.183 HD
HETATM    7  C20 UNL     1      -5.053  48.857 -24.815  1.00  0.00     0.126 A 
HETATM    8  C21 UNL     1      -3.757  49.216 -25.112  1.00  0.00     0.108 A 
ENDROOT
BRANCH   1   9
HETATM    9  N2  UNL     1      -1.755  50.325 -24.320  1.00  0.00    -0.339 N 
HETATM   10  H11 UNL     1      -1.418  50.284 -25.276  1.00  0.00     0.167 HD
BRANCH   9  11
HETATM   11  C10 UNL     1      -0.998  51.189 -23.488  1.00  0.00     0.060 A 
HETATM   12  C4  UNL     1      -0.133  52.167 -24.032  1.00  0.00     0.062 A 
HETATM   13  C5  UNL     1       0.629  52.964 -23.166  1.00  0.00     0.038 A 
HETATM   14  C6  UNL     1       0.523  52.835 -21.773  1.00  0.00    -0.060 A 
HETATM   15  C7  UNL     1       1.302  53.743 -20.866  1.00  0.00     0.048 C 
HETATM   16  C8  UNL     1      -0.378  51.914 -21.242  1.00  0.00     0.009 A 
HETATM   17  C9  UNL     1      -1.127  51.101 -22.092  1.00  0.00     0.032 A 
BRANCH  12  18
HETATM   18  N1  UNL     1      -0.130  52.367 -25.436  1.00  0.00    -0.322 N 
HETATM   19  C3  UNL     1      -0.060  53.566 -26.106  1.00  0.00     0.244 C 
HETATM   20  O1  UNL     1       0.208  54.666 -25.635  1.00  0.00    -0.268 OA
HETATM   21  H4  UNL     1      -0.233  51.536 -25.996  1.00  0.00     0.169 HD
BRANCH  19  22
HETATM   22  C2  UNL     1      -0.245  53.453 -27.581  1.00  0.00     0.064 C 
HETATM   23  C1  UNL     1       0.392  52.593 -28.385  1.00  0.00     0.017 C 
ENDBRANCH  19  22
ENDBRANCH  12  18
ENDBRANCH   9  11
ENDBRANCH   1   9
BRANCH   8  24
HETATM   24  C22 UNL     1      -3.128  48.827 -26.394  1.00  0.00     0.422 C 
HETATM   25  F1  UNL     1      -3.937  48.068 -27.185  1.00  0.00    -0.166 F 
HETATM   26  F2  UNL     1      -1.986  48.107 -26.232  1.00  0.00    -0.166 F 
HETATM   27  F3  UNL     1      -2.783  49.909 -27.155  1.00  0.00    -0.166 F 
ENDBRANCH   8  24
BRANCH   4  28
HETATM   28  N4  UNL     1      -5.622  50.125 -21.563  1.00  0.00    -0.191 N 
HETATM   29  H12 UNL     1      -6.214  50.928 -21.708  1.00  0.00     0.184 HD
BRANCH  28  30
HETATM   30  C13 UNL     1      -5.548  49.602 -20.263  1.00  0.00     0.060 A 
HETATM   31  C14 UNL     1      -4.417  49.746 -19.453  1.00  0.00     0.086 A 
HETATM   32  C15 UNL     1      -4.401  49.181 -18.187  1.00  0.00     0.143 A 
HETATM   33  N5  UNL     1      -5.424  48.480 -17.664  1.00  0.00    -0.346 N 
HETATM   34  C17 UNL     1      -6.505  48.335 -18.453  1.00  0.00     0.099 A 
ATOM     35  H5  UNL     1      -5.382  48.082 -16.726  1.00  0.00     0.167 HD
HETATM   36  C18 UNL     1      -6.628  48.862 -19.740  1.00  0.00    -0.019 A 
HETATM   37  C19 UNL     1      -7.887  48.603 -20.517  1.00  0.00     0.052 C 
BRANCH  32  38
HETATM   38  O2  UNL     1      -3.245  49.361 -17.453  1.00  0.00    -0.341 OA
HETATM   39  C16 UNL     1      -2.795  50.711 -17.437  1.00  0.00     0.211 C 
ENDBRANCH  32  38
ENDBRANCH  28  30
ENDBRANCH   4  28
TORSDOF 8
ENDMDL
MODEL 7
REMARK minimizedAffinity -8.54740143
REMARK  8 active torsions:
REMARK  status: ('A' for Active; 'I' for Inactive)
REMARK    1  A    between atoms: C2_2  and  C3_3 
REMARK       I    between atoms: C3_3  and  N1_5 
REMARK    2  A    between atoms: N1_5  and  C4_6 
REMARK    3  A    between atoms: C10_12  and  N2_13 
REMARK    4  A    between atoms: N2_13  and  C11_14 
REMARK    5  A    between atoms: C12_17  and  N4_18 
REMARK    6  A    between atoms: N4_18  and  C13_19 
REMARK    7  A    between atoms: C15_21  and  O2_22 
REMARK    8  A    between atoms: C21_32  and  C22_33 
ROOT
HETATM    1  C11 UNL     1       0.201  52.029 -21.479  1.00  0.00     0.138 A 
HETATM    2  N3  UNL     1       0.321  52.017 -20.138  1.00  0.00    -0.176 N 
ATOM      3  H3  UNL     1      -0.039  51.229 -19.601  1.00  0.00     0.186 HD
HETATM    4  C12 UNL     1       0.911  53.038 -19.512  1.00  0.00     0.684 A 
HETATM    5  N6  UNL     1       1.400  54.098 -20.166  1.00  0.00    -0.201 N 
ATOM      6  H6  UNL     1       1.858  54.863 -19.673  1.00  0.00     0.183 HD
HETATM    7  C20 UNL     1       1.261  54.108 -21.504  1.00  0.00     0.126 A 
HETATM    8  C21 UNL     1       0.666  53.094 -22.221  1.00  0.00     0.108 A 
ENDROOT
BRANCH   1   9
HETATM    9  N2  UNL     1      -0.455  50.949 -22.103  1.00  0.00    -0.339 N 
HETATM   10  H11 UNL     1      -0.146  50.743 -23.047  1.00  0.00     0.167 HD
BRANCH   9  11
HETATM   11  C10 UNL     1      -1.101  49.859 -21.466  1.00  0.00     0.060 A 
HETATM   12  C4  UNL     1      -2.127  49.130 -22.112  1.00  0.00     0.062 A 
HETATM   13  C5  UNL     1      -2.767  48.091 -21.421  1.00  0.00     0.038 A 
HETATM   14  C6  UNL     1      -2.386  47.740 -20.117  1.00  0.00    -0.060 A 
HETATM   15  C7  UNL     1      -3.044  46.584 -19.422  1.00  0.00     0.048 C 
HETATM   16  C8  UNL     1      -1.333  48.420 -19.510  1.00  0.00     0.009 A 
HETATM   17  C9  UNL     1      -0.700  49.468 -20.178  1.00  0.00     0.032 A 
BRANCH  12  18
HETATM   18  N1  UNL     1      -2.414  49.418 -23.471  1.00  0.00    -0.322 N 
HETATM   19  C3  UNL     1      -3.477  48.959 -24.212  1.00  0.00     0.244 C 
HETATM   20  O1  UNL     1      -4.476  48.379 -23.800  1.00  0.00    -0.268 OA
HETATM   21  H4  UNL     1      -1.736  49.989 -23.949  1.00  0.00     0.169 HD
BRANCH  19  22
HETATM   22  C2  UNL     1      -3.409  49.308 -25.660  1.00  0.00     0.064 C 
HETATM   23  C1  UNL     1      -3.121  48.460 -26.654  1.00  0.00     0.017 C 
ENDBRANCH  19  22
ENDBRANCH  12  18
ENDBRANCH   9  11
ENDBRANCH   1   9
BRANCH   8  24
HETATM   24  C22 UNL     1       0.522  53.176 -23.692  1.00  0.00     0.422 C 
HETATM   25  F1  UNL     1       1.012  54.332 -24.219  1.00  0.00    -0.166 F 
HETATM   26  F2  UNL     1      -0.770  53.095 -24.108  1.00  0.00    -0.166 F 
HETATM   27  F3  UNL     1       1.186  52.170 -24.336  1.00  0.00    -0.166 F 
ENDBRANCH   8  24
BRANCH   4  28
HETATM   28  N4  UNL     1       1.054  53.075 -18.127  1.00  0.00    -0.191 N 
HETATM   29  H12 UNL     1       1.291  54.016 -17.857  1.00  0.00     0.184 HD
BRANCH  28  30
HETATM   30  C13 UNL     1       1.033  52.096 -17.122  1.00  0.00     0.060 A 
HETATM   31  C14 UNL     1      -0.049  51.232 -16.930  1.00  0.00     0.086 A 
HETATM   32  C15 UNL     1      -0.015  50.305 -15.900  1.00  0.00     0.143 A 
HETATM   33  N5  UNL     1       1.015  50.171 -15.043  1.00  0.00    -0.346 N 
HETATM   34  C17 UNL     1       2.048  51.014 -15.226  1.00  0.00     0.099 A 
ATOM     35  H5  UNL     1       1.011  49.474 -14.298  1.00  0.00     0.167 HD
HETATM   36  C18 UNL     1       2.118  51.982 -16.229  1.00  0.00    -0.019 A 
HETATM   37  C19 UNL     1       3.327  52.871 -16.303  1.00  0.00     0.052 C 
BRANCH  32  38
HETATM   38  O2  UNL     1      -1.125  49.493 -15.772  1.00  0.00    -0.341 OA
HETATM   39  C16 UNL     1      -1.527  49.300 -14.420  1.00  0.00     0.211 C 
ENDBRANCH  32  38
ENDBRANCH  28  30
ENDBRANCH   4  28
TORSDOF 8
ENDMDL
MODEL 8
REMARK minimizedAffinity -8.52372646
REMARK  8 active torsions:
REMARK  status: ('A' for Active; 'I' for Inactive)
REMARK    1  A    between atoms: C2_2  and  C3_3 
REMARK       I    between atoms: C3_3  and  N1_5 
REMARK    2  A    between atoms: N1_5  and  C4_6 
REMARK    3  A    between atoms: C10_12  and  N2_13 
REMARK    4  A    between atoms: N2_13  and  C11_14 
REMARK    5  A    between atoms: C12_17  and  N4_18 
REMARK    6  A    between atoms: N4_18  and  C13_19 
REMARK    7  A    between atoms: C15_21  and  O2_22 
REMARK    8  A    between atoms: C21_32  and  C22_33 
ROOT
HETATM    1  C11 UNL     1      -0.958  51.936 -20.958  1.00  0.00     0.138 A 
HETATM    2  N3  UNL     1      -1.487  51.204 -21.956  1.00  0.00    -0.176 N 
ATOM      3  H3  UNL     1      -2.299  50.613 -21.781  1.00  0.00     0.186 HD
HETATM    4  C12 UNL     1      -0.950  51.253 -23.178  1.00  0.00     0.684 A 
HETATM    5  N6  UNL     1       0.115  52.011 -23.465  1.00  0.00    -0.201 N 
ATOM      6  H6  UNL     1       0.506  52.044 -24.406  1.00  0.00     0.183 HD
HETATM    7  C20 UNL     1       0.647  52.725 -22.457  1.00  0.00     0.126 A 
HETATM    8  C21 UNL     1       0.150  52.728 -21.173  1.00  0.00     0.108 A 
ENDROOT
BRANCH   1   9
HETATM    9  N2  UNL     1      -1.533  51.836 -19.676  1.00  0.00    -0.339 N 
HETATM   10  H11 UNL     1      -1.748  52.720 -19.228  1.00  0.00     0.167 HD
BRANCH   9  11
HETATM   11  C10 UNL     1      -2.267  50.741 -19.152  1.00  0.00     0.060 A 
HETATM   12  C4  UNL     1      -1.704  49.867 -18.192  1.00  0.00     0.062 A 
HETATM   13  C5  UNL     1      -2.455  48.772 -17.742  1.00  0.00     0.038 A 
HETATM   14  C6  UNL     1      -3.763  48.548 -18.196  1.00  0.00    -0.060 A 
HETATM   15  C7  UNL     1      -4.569  47.404 -17.651  1.00  0.00     0.048 C 
HETATM   16  C8  UNL     1      -4.335  49.448 -19.092  1.00  0.00     0.009 A 
HETATM   17  C9  UNL     1      -3.593  50.531 -19.564  1.00  0.00     0.032 A 
BRANCH  12  18
HETATM   18  N1  UNL     1      -0.429  50.178 -17.654  1.00  0.00    -0.322 N 
HETATM   19  C3  UNL     1      -0.159  50.769 -16.443  1.00  0.00     0.244 C 
HETATM   20  O1  UNL     1      -0.942  50.964 -15.519  1.00  0.00    -0.268 OA
HETATM   21  H4  UNL     1       0.358  49.977 -18.250  1.00  0.00     0.169 HD
BRANCH  19  22
HETATM   22  C2  UNL     1       1.277  51.114 -16.238  1.00  0.00     0.064 C 
HETATM   23  C1  UNL     1       1.753  52.329 -15.938  1.00  0.00     0.017 C 
ENDBRANCH  19  22
ENDBRANCH  12  18
ENDBRANCH   9  11
ENDBRANCH   1   9
BRANCH   8  24
HETATM   24  C22 UNL     1       0.795  53.519 -20.101  1.00  0.00     0.422 C 
HETATM   25  F1  UNL     1      -0.051  54.397 -19.494  1.00  0.00    -0.166 F 
HETATM   26  F2  UNL     1       1.846  54.260 -20.543  1.00  0.00    -0.166 F 
HETATM   27  F3  UNL     1       1.287  52.732 -19.098  1.00  0.00    -0.166 F 
ENDBRANCH   8  24
BRANCH   4  28
HETATM   28  N4  UNL     1      -1.457  50.511 -24.241  1.00  0.00    -0.191 N 
HETATM   29  H12 UNL     1      -1.390  49.533 -24.007  1.00  0.00     0.184 HD
BRANCH  28  30
HETATM   30  C13 UNL     1      -1.915  50.841 -25.526  1.00  0.00     0.060 A 
HETATM   31  C14 UNL     1      -1.687  52.090 -26.112  1.00  0.00     0.086 A 
HETATM   32  C15 UNL     1      -2.190  52.359 -27.376  1.00  0.00     0.143 A 
HETATM   33  N5  UNL     1      -2.905  51.480 -28.103  1.00  0.00    -0.346 N 
HETATM   34  C17 UNL     1      -3.130  50.284 -27.528  1.00  0.00     0.099 A 
ATOM     35  H5  UNL     1      -3.255  51.707 -29.033  1.00  0.00     0.167 HD
HETATM   36  C18 UNL     1      -2.671  49.908 -26.264  1.00  0.00    -0.019 A 
HETATM   37  C19 UNL     1      -3.017  48.544 -25.738  1.00  0.00     0.052 C 
BRANCH  32  38
HETATM   38  O2  UNL     1      -1.929  53.618 -27.882  1.00  0.00    -0.341 OA
HETATM   39  C16 UNL     1      -0.542  53.935 -27.910  1.00  0.00     0.211 C 
ENDBRANCH  32  38
ENDBRANCH  28  30
ENDBRANCH   4  28
TORSDOF 8
ENDMDL
MODEL 9
REMARK minimizedAffinity -8.51161575
REMARK  8 active torsions:
REMARK  status: ('A' for Active; 'I' for Inactive)
REMARK    1  A    between atoms: C2_2  and  C3_3 
REMARK       I    between atoms: C3_3  and  N1_5 
REMARK    2  A    between atoms: N1_5  and  C4_6 
REMARK    3  A    between atoms: C10_12  and  N2_13 
REMARK    4  A    between atoms: N2_13  and  C11_14 
REMARK    5  A    between atoms: C12_17  and  N4_18 
REMARK    6  A    between atoms: N4_18  and  C13_19 
REMARK    7  A    between atoms: C15_21  and  O2_22 
REMARK    8  A    between atoms: C21_32  and  C22_33 
ROOT
HETATM    1  C11 UNL     1      -3.459  50.092 -24.002  1.00  0.00     0.138 A 
HETATM    2  N3  UNL     1      -3.968  50.456 -22.811  1.00  0.00    -0.176 N 
ATOM      3  H3  UNL     1      -3.411  51.020 -22.168  1.00  0.00     0.186 HD
HETATM    4  C12 UNL     1      -5.203  50.080 -22.469  1.00  0.00     0.684 A 
HETATM    5  N6  UNL     1      -5.978  49.341 -23.271  1.00  0.00    -0.201 N 
ATOM      6  H6  UNL     1      -6.923  49.072 -22.999  1.00  0.00     0.183 HD
HETATM    7  C20 UNL     1      -5.454  48.968 -24.453  1.00  0.00     0.126 A 
HETATM    8  C21 UNL     1      -4.191  49.316 -24.876  1.00  0.00     0.108 A 
ENDROOT
BRANCH   1   9
HETATM    9  N2  UNL     1      -2.142  50.481 -24.316  1.00  0.00    -0.339 N 
HETATM   10  H11 UNL     1      -1.922  50.507 -25.305  1.00  0.00     0.167 HD
BRANCH   9  11
HETATM   11  C10 UNL     1      -1.273  51.271 -23.521  1.00  0.00     0.060 A 
HETATM   12  C4  UNL     1      -0.179  51.966 -24.089  1.00  0.00     0.062 A 
HETATM   13  C5  UNL     1       0.678  52.695 -23.253  1.00  0.00     0.038 A 
HETATM   14  C6  UNL     1       0.451  52.777 -21.871  1.00  0.00    -0.060 A 
HETATM   15  C7  UNL     1       1.347  53.615 -21.005  1.00  0.00     0.048 C 
HETATM   16  C8  UNL     1      -0.663  52.144 -21.325  1.00  0.00     0.009 A 
HETATM   17  C9  UNL     1      -1.513  51.399 -22.142  1.00  0.00     0.032 A 
BRANCH  12  18
HETATM   18  N1  UNL     1      -0.037  51.972 -25.500  1.00  0.00    -0.322 N 
HETATM   19  C3  UNL     1      -0.009  53.068 -26.329  1.00  0.00     0.244 C 
HETATM   20  O1  UNL     1       0.094  54.245 -26.002  1.00  0.00    -0.268 OA
HETATM   21  H4  UNL     1       0.006  51.066 -25.939  1.00  0.00     0.169 HD
BRANCH  19  22
HETATM   22  C2  UNL     1      -0.015  52.736 -27.783  1.00  0.00     0.064 C 
HETATM   23  C1  UNL     1       0.909  52.006 -28.420  1.00  0.00     0.017 C 
ENDBRANCH  19  22
ENDBRANCH  12  18
ENDBRANCH   9  11
ENDBRANCH   1   9
BRANCH   8  24
HETATM   24  C22 UNL     1      -3.663  48.854 -26.179  1.00  0.00     0.422 C 
HETATM   25  F1  UNL     1      -3.461  49.865 -27.069  1.00  0.00    -0.166 F 
HETATM   26  F2  UNL     1      -4.483  47.967 -26.804  1.00  0.00    -0.166 F 
HETATM   27  F3  UNL     1      -2.455  48.226 -26.058  1.00  0.00    -0.166 F 
ENDBRANCH   8  24
BRANCH   4  28
HETATM   28  N4  UNL     1      -5.772  50.427 -21.246  1.00  0.00    -0.191 N 
HETATM   29  H12 UNL     1      -5.865  51.430 -21.211  1.00  0.00     0.184 HD
BRANCH  28  30
HETATM   30  C13 UNL     1      -6.116  49.703 -20.095  1.00  0.00     0.060 A 
HETATM   31  C14 UNL     1      -7.442  49.446 -19.732  1.00  0.00     0.086 A 
HETATM   32  C15 UNL     1      -7.713  48.747 -18.566  1.00  0.00     0.143 A 
HETATM   33  N5  UNL     1      -6.766  48.283 -17.730  1.00  0.00    -0.346 N 
HETATM   34  C17 UNL     1      -5.492  48.544 -18.078  1.00  0.00     0.099 A 
ATOM     35  H5  UNL     1      -6.999  47.766 -16.882  1.00  0.00     0.167 HD
HETATM   36  C18 UNL     1      -5.107  49.237 -19.228  1.00  0.00    -0.019 A 
HETATM   37  C19 UNL     1      -3.645  49.475 -19.481  1.00  0.00     0.052 C 
BRANCH  32  38
HETATM   38  O2  UNL     1      -9.048  48.540 -18.274  1.00  0.00    -0.341 OA
HETATM   39  C16 UNL     1      -9.823  48.181 -19.412  1.00  0.00     0.211 C 
ENDBRANCH  32  38
ENDBRANCH  28  30
ENDBRANCH   4  28
TORSDOF 8
ENDMDL
