MODEL 1
REMARK minimizedAffinity -9.88228607
REMARK  5 active torsions:
REMARK  status: ('A' for Active; 'I' for Inactive)
REMARK    1  A    between atoms: C4_4  and  C5_5 
REMARK    2  A    between atoms: C8_11  and  N3_12 
REMARK       I    between atoms: N3_12  and  C9_13 
REMARK       I    between atoms: C9_13  and  N4_15 
REMARK    3  A    between atoms: N4_15  and  C10_16 
REMARK    4  A    between atoms: C10_16  and  C11_17 
REMARK    5  A    between atoms: C14_20  and  C15_21 
ROOT
HETATM    1  C5  UNL     1       0.249  52.928 -23.924  1.00  0.00     0.072 A 
HETATM    2  N1  UNL     1       1.040  53.629 -24.754  1.00  0.00    -0.299 N 
ATOM      3  H1  UNL     1       1.851  54.198 -24.512  1.00  0.00     0.187 HD
HETATM    4  N2  UNL     1       0.521  53.413 -25.973  1.00  0.00    -0.299 N 
HETATM    5  C6  UNL     1      -0.554  52.572 -25.981  1.00  0.00     0.065 A 
HETATM    6  C7  UNL     1      -1.349  52.088 -27.020  1.00  0.00     0.080 A 
HETATM    7  C8  UNL     1      -2.368  51.226 -26.635  1.00  0.00     0.111 A 
HETATM    8  N7  UNL     1      -2.587  50.854 -25.351  1.00  0.00    -0.351 N 
ATOM      9  H7  UNL     1      -3.349  50.212 -25.130  1.00  0.00     0.166 HD
HETATM   10  C20 UNL     1      -1.794  51.336 -24.358  1.00  0.00     0.105 A 
HETATM   11  C21 UNL     1      -0.758  52.223 -24.652  1.00  0.00     0.036 A 
HETATM   12  H5  UNL     1       0.955  53.868 -26.767  1.00  0.00     0.187 HD
ENDROOT
BRANCH   7  13
HETATM   13  N3  UNL     1      -3.263  50.642 -27.530  1.00  0.00    -0.295 N 
HETATM   14  C9  UNL     1      -3.670  49.336 -27.602  1.00  0.00     0.322 C 
HETATM   15  O1  UNL     1      -3.281  48.418 -26.891  1.00  0.00    -0.247 OA
HETATM   16  N4  UNL     1      -4.587  49.156 -28.614  1.00  0.00    -0.339 N 
HETATM   17  H8  UNL     1      -5.131  49.965 -28.873  1.00  0.00     0.164 HD
HETATM   18  H7  UNL     1      -3.554  51.279 -28.254  1.00  0.00     0.172 HD
BRANCH  16  19
HETATM   19  C10 UNL     1      -5.225  47.875 -28.826  1.00  0.00     0.162 C 
BRANCH  19  20
HETATM   20  C11 UNL     1      -5.796  47.781 -30.218  1.00  0.00    -0.040 A 
HETATM   21  C12 UNL     1      -7.074  48.271 -30.503  1.00  0.00     0.010 A 
HETATM   22  C13 UNL     1      -7.605  48.153 -31.792  1.00  0.00     0.016 A 
HETATM   23  C14 UNL     1      -6.880  47.542 -32.824  1.00  0.00     0.008 A 
HETATM   24  C18 UNL     1      -5.603  47.042 -32.531  1.00  0.00     0.016 A 
HETATM   25  C19 UNL     1      -5.069  47.159 -31.242  1.00  0.00     0.010 A 
BRANCH  23  26
HETATM   26  C15 UNL     1      -7.485  47.443 -34.159  1.00  0.00     0.115 A 
HETATM   27  N5  UNL     1      -8.703  47.000 -34.426  1.00  0.00    -0.350 N 
HETATM   28  C16 UNL     1      -8.859  47.081 -35.785  1.00  0.00     0.106 A 
ATOM     29  H5  UNL     1      -9.391  46.663 -33.753  1.00  0.00     0.166 HD
HETATM   30  C17 UNL     1      -7.726  47.586 -36.370  1.00  0.00     0.106 A 
HETATM   31  N6  UNL     1      -6.865  47.813 -35.333  1.00  0.00    -0.350 N 
HETATM   32  H15 UNL     1      -5.935  48.195 -35.409  1.00  0.00     0.166 HD
ENDBRANCH  23  26
ENDBRANCH  19  20
ENDBRANCH  16  19
ENDBRANCH   7  13
BRANCH   1  33
HETATM   33  C4  UNL     1       0.488  52.941 -22.482  1.00  0.00    -0.004 A 
HETATM   34  C3  UNL     1      -0.034  51.945 -21.652  1.00  0.00     0.038 A 
HETATM   35  C2  UNL     1       0.226  52.000 -20.287  1.00  0.00     0.005 A 
HETATM   36  C1  UNL     1      -0.328  50.949 -19.371  1.00  0.00     0.068 C 
HETATM   37  N8  UNL     1       0.967  52.982 -19.724  1.00  0.00    -0.369 N 
HETATM   38  C23 UNL     1       1.447  53.944 -20.541  1.00  0.00     0.089 A 
ATOM     39  H8  UNL     1       1.157  52.994 -18.722  1.00  0.00     0.165 HD
HETATM   40  C22 UNL     1       1.237  53.969 -21.907  1.00  0.00     0.031 A 
ENDBRANCH   1  33
TORSDOF 5
ENDMDL
MODEL 2
REMARK minimizedAffinity -9.81142902
REMARK  5 active torsions:
REMARK  status: ('A' for Active; 'I' for Inactive)
REMARK    1  A    between atoms: C4_4  and  C5_5 
REMARK    2  A    between atoms: C8_11  and  N3_12 
REMARK       I    between atoms: N3_12  and  C9_13 
REMARK       I    between atoms: C9_13  and  N4_15 
REMARK    3  A    between atoms: N4_15  and  C10_16 
REMARK    4  A    between atoms: C10_16  and  C11_17 
REMARK    5  A    between atoms: C14_20  and  C15_21 
ROOT
HETATM    1  C5  UNL     1      -1.806  50.424 -24.693  1.00  0.00     0.072 A 
HETATM    2  N1  UNL     1      -2.090  49.966 -23.462  1.00  0.00    -0.299 N 
ATOM      3  H1  UNL     1      -1.622  50.199 -22.586  1.00  0.00     0.187 HD
HETATM    4  N2  UNL     1      -3.128  49.134 -23.645  1.00  0.00    -0.299 N 
HETATM    5  C6  UNL     1      -3.558  49.055 -24.937  1.00  0.00     0.065 A 
HETATM    6  C7  UNL     1      -4.597  48.336 -25.529  1.00  0.00     0.080 A 
HETATM    7  C8  UNL     1      -4.739  48.519 -26.898  1.00  0.00     0.111 A 
HETATM    8  N7  UNL     1      -3.950  49.341 -27.629  1.00  0.00    -0.351 N 
ATOM      9  H7  UNL     1      -4.107  49.440 -28.633  1.00  0.00     0.166 HD
HETATM   10  C20 UNL     1      -2.948  50.035 -27.027  1.00  0.00     0.105 A 
HETATM   11  C21 UNL     1      -2.721  49.896 -25.657  1.00  0.00     0.036 A 
HETATM   12  H5  UNL     1      -3.504  48.652 -22.837  1.00  0.00     0.187 HD
ENDROOT
BRANCH   7  13
HETATM   13  N3  UNL     1      -5.719  47.887 -27.663  1.00  0.00    -0.295 N 
HETATM   14  C9  UNL     1      -5.892  47.912 -29.021  1.00  0.00     0.322 C 
HETATM   15  O1  UNL     1      -5.214  48.541 -29.824  1.00  0.00    -0.247 OA
HETATM   16  N4  UNL     1      -6.965  47.136 -29.400  1.00  0.00    -0.339 N 
HETATM   17  H8  UNL     1      -7.209  46.377 -28.783  1.00  0.00     0.164 HD
HETATM   18  H7  UNL     1      -6.421  47.438 -27.095  1.00  0.00     0.172 HD
BRANCH  16  19
HETATM   19  C10 UNL     1      -7.290  46.940 -30.796  1.00  0.00     0.162 C 
BRANCH  19  20
HETATM   20  C11 UNL     1      -6.488  45.806 -31.383  1.00  0.00    -0.040 A 
HETATM   21  C12 UNL     1      -5.288  46.051 -32.057  1.00  0.00     0.010 A 
HETATM   22  C13 UNL     1      -4.566  44.995 -32.622  1.00  0.00     0.016 A 
HETATM   23  C14 UNL     1      -5.023  43.673 -32.533  1.00  0.00     0.008 A 
HETATM   24  C18 UNL     1      -6.232  43.433 -31.866  1.00  0.00     0.016 A 
HETATM   25  C19 UNL     1      -6.957  44.489 -31.299  1.00  0.00     0.010 A 
BRANCH  23  26
HETATM   26  C15 UNL     1      -4.227  42.601 -33.145  1.00  0.00     0.115 A 
HETATM   27  N5  UNL     1      -3.284  41.895 -32.541  1.00  0.00    -0.350 N 
HETATM   28  C16 UNL     1      -2.805  41.009 -33.468  1.00  0.00     0.106 A 
ATOM     29  H5  UNL     1      -2.974  41.993 -31.575  1.00  0.00     0.166 HD
HETATM   30  C17 UNL     1      -3.461  41.160 -34.663  1.00  0.00     0.106 A 
HETATM   31  N6  UNL     1      -4.359  42.168 -34.447  1.00  0.00    -0.350 N 
HETATM   32  H15 UNL     1      -5.014  42.530 -35.121  1.00  0.00     0.166 HD
ENDBRANCH  23  26
ENDBRANCH  19  20
ENDBRANCH  16  19
ENDBRANCH   7  13
BRANCH   1  33
HETATM   33  C4  UNL     1      -0.696  51.351 -24.904  1.00  0.00    -0.004 A 
HETATM   34  C3  UNL     1       0.305  51.080 -25.842  1.00  0.00     0.038 A 
HETATM   35  C2  UNL     1       1.338  51.997 -26.008  1.00  0.00     0.005 A 
HETATM   36  C1  UNL     1       2.430  51.730 -27.001  1.00  0.00     0.068 C 
HETATM   37  N8  UNL     1       1.416  53.144 -25.297  1.00  0.00    -0.369 N 
HETATM   38  C23 UNL     1       0.450  53.378 -24.383  1.00  0.00     0.089 A 
ATOM     39  H8  UNL     1       2.176  53.809 -25.445  1.00  0.00     0.165 HD
HETATM   40  C22 UNL     1      -0.611  52.522 -24.152  1.00  0.00     0.031 A 
ENDBRANCH   1  33
TORSDOF 5
ENDMDL
MODEL 3
REMARK minimizedAffinity -9.77305317
REMARK  5 active torsions:
REMARK  status: ('A' for Active; 'I' for Inactive)
REMARK    1  A    between atoms: C4_4  and  C5_5 
REMARK    2  A    between atoms: C8_11  and  N3_12 
REMARK       I    between atoms: N3_12  and  C9_13 
REMARK       I    between atoms: C9_13  and  N4_15 
REMARK    3  A    between atoms: N4_15  and  C10_16 
REMARK    4  A    between atoms: C10_16  and  C11_17 
REMARK    5  A    between atoms: C14_20  and  C15_21 
ROOT
HETATM    1  C5  UNL     1      -5.129  48.400 -28.706  1.00  0.00     0.072 A 
HETATM    2  N1  UNL     1      -5.079  49.183 -29.798  1.00  0.00    -0.299 N 
ATOM      3  H1  UNL     1      -5.674  49.141 -30.625  1.00  0.00     0.187 HD
HETATM    4  N2  UNL     1      -4.068  50.032 -29.554  1.00  0.00    -0.299 N 
HETATM    5  C6  UNL     1      -3.478  49.863 -28.335  1.00  0.00     0.065 A 
HETATM    6  C7  UNL     1      -2.431  50.538 -27.707  1.00  0.00     0.080 A 
HETATM    7  C8  UNL     1      -2.107  50.077 -26.437  1.00  0.00     0.111 A 
HETATM    8  N7  UNL     1      -2.753  49.058 -25.824  1.00  0.00    -0.351 N 
ATOM      9  H7  UNL     1      -2.474  48.767 -24.886  1.00  0.00     0.166 HD
HETATM   10  C20 UNL     1      -3.774  48.420 -26.457  1.00  0.00     0.105 A 
HETATM   11  C21 UNL     1      -4.154  48.804 -27.743  1.00  0.00     0.036 A 
HETATM   12  H5  UNL     1      -3.833  50.715 -30.265  1.00  0.00     0.187 HD
ENDROOT
BRANCH   7  13
HETATM   13  N3  UNL     1      -1.092  50.625 -25.654  1.00  0.00    -0.295 N 
HETATM   14  C9  UNL     1      -0.994  51.894 -25.148  1.00  0.00     0.322 C 
HETATM   15  O1  UNL     1      -1.789  52.807 -25.328  1.00  0.00    -0.247 OA
HETATM   16  N4  UNL     1       0.154  52.043 -24.399  1.00  0.00    -0.339 N 
HETATM   17  H8  UNL     1       0.528  51.204 -23.983  1.00  0.00     0.164 HD
HETATM   18  H7  UNL     1      -0.308  50.000 -25.547  1.00  0.00     0.172 HD
BRANCH  16  19
HETATM   19  C10 UNL     1       0.430  53.274 -23.692  1.00  0.00     0.162 C 
BRANCH  19  20
HETATM   20  C11 UNL     1       0.510  53.036 -22.206  1.00  0.00    -0.040 A 
HETATM   21  C12 UNL     1       1.252  53.888 -21.382  1.00  0.00     0.010 A 
HETATM   22  C13 UNL     1       1.342  53.643 -20.008  1.00  0.00     0.016 A 
HETATM   23  C14 UNL     1       0.700  52.542 -19.423  1.00  0.00     0.008 A 
HETATM   24  C18 UNL     1      -0.035  51.685 -20.254  1.00  0.00     0.016 A 
HETATM   25  C19 UNL     1      -0.127  51.928 -21.630  1.00  0.00     0.010 A 
BRANCH  23  26
HETATM   26  C15 UNL     1       0.827  52.330 -17.975  1.00  0.00     0.115 A 
HETATM   27  N5  UNL     1       1.611  53.014 -17.158  1.00  0.00    -0.350 N 
HETATM   28  C16 UNL     1       1.419  52.494 -15.906  1.00  0.00     0.106 A 
ATOM     29  H5  UNL     1       2.236  53.779 -17.411  1.00  0.00     0.166 HD
HETATM   30  C17 UNL     1       0.500  51.477 -15.943  1.00  0.00     0.106 A 
HETATM   31  N6  UNL     1       0.131  51.383 -17.255  1.00  0.00    -0.350 N 
HETATM   32  H15 UNL     1      -0.542  50.735 -17.635  1.00  0.00     0.166 HD
ENDBRANCH  23  26
ENDBRANCH  19  20
ENDBRANCH  16  19
ENDBRANCH   7  13
BRANCH   1  33
HETATM   33  C4  UNL     1      -6.105  47.316 -28.614  1.00  0.00    -0.004 A 
HETATM   34  C3  UNL     1      -6.852  47.112 -27.450  1.00  0.00     0.038 A 
HETATM   35  C2  UNL     1      -7.772  46.069 -27.414  1.00  0.00     0.005 A 
HETATM   36  C1  UNL     1      -8.582  45.822 -26.177  1.00  0.00     0.068 C 
HETATM   37  N8  UNL     1      -7.975  45.239 -28.462  1.00  0.00    -0.369 N 
HETATM   38  C23 UNL     1      -7.229  45.441 -29.570  1.00  0.00     0.089 A 
ATOM     39  H8  UNL     1      -8.664  44.488 -28.418  1.00  0.00     0.165 HD
HETATM   40  C22 UNL     1      -6.293  46.451 -29.692  1.00  0.00     0.031 A 
ENDBRANCH   1  33
TORSDOF 5
ENDMDL
MODEL 4
REMARK minimizedAffinity -9.7531023
REMARK  5 active torsions:
REMARK  status: ('A' for Active; 'I' for Inactive)
REMARK    1  A    between atoms: C4_4  and  C5_5 
REMARK    2  A    between atoms: C8_11  and  N3_12 
REMARK       I    between atoms: N3_12  and  C9_13 
REMARK       I    between atoms: C9_13  and  N4_15 
REMARK    3  A    between atoms: N4_15  and  C10_16 
REMARK    4  A    between atoms: C10_16  and  C11_17 
REMARK    5  A    between atoms: C14_20  and  C15_21 
ROOT
HETATM    1  C5  UNL     1      -1.119  50.955 -24.647  1.00  0.00     0.072 A 
HETATM    2  N1  UNL     1      -0.414  51.482 -25.663  1.00  0.00    -0.299 N 
ATOM      3  H1  UNL     1       0.419  52.067 -25.608  1.00  0.00     0.187 HD
HETATM    4  N2  UNL     1      -1.054  51.064 -26.767  1.00  0.00    -0.299 N 
HETATM    5  C6  UNL     1      -2.126  50.257 -26.518  1.00  0.00     0.065 A 
HETATM    6  C7  UNL     1      -3.024  49.614 -27.371  1.00  0.00     0.080 A 
HETATM    7  C8  UNL     1      -4.000  48.855 -26.740  1.00  0.00     0.111 A 
HETATM    8  N7  UNL     1      -4.091  48.720 -25.396  1.00  0.00    -0.351 N 
ATOM      9  H7  UNL     1      -4.828  48.143 -24.989  1.00  0.00     0.166 HD
HETATM   10  C20 UNL     1      -3.200  49.354 -24.588  1.00  0.00     0.105 A 
HETATM   11  C21 UNL     1      -2.197  50.154 -25.136  1.00  0.00     0.036 A 
HETATM   12  H5  UNL     1      -0.700  51.362 -27.668  1.00  0.00     0.187 HD
ENDROOT
BRANCH   7  13
HETATM   13  N3  UNL     1      -4.983  48.140 -27.424  1.00  0.00    -0.295 N 
HETATM   14  C9  UNL     1      -5.327  48.213 -28.747  1.00  0.00     0.322 C 
HETATM   15  O1  UNL     1      -4.840  48.966 -29.580  1.00  0.00    -0.247 OA
HETATM   16  N4  UNL     1      -6.336  47.323 -29.048  1.00  0.00    -0.339 N 
HETATM   17  H8  UNL     1      -6.404  46.508 -28.459  1.00  0.00     0.164 HD
HETATM   18  H7  UNL     1      -5.546  47.574 -26.809  1.00  0.00     0.172 HD
BRANCH  16  19
HETATM   19  C10 UNL     1      -6.807  47.159 -30.406  1.00  0.00     0.162 C 
BRANCH  19  20
HETATM   20  C11 UNL     1      -6.121  45.998 -31.079  1.00  0.00    -0.040 A 
HETATM   21  C12 UNL     1      -4.932  46.182 -31.790  1.00  0.00     0.010 A 
HETATM   22  C13 UNL     1      -4.318  45.103 -32.434  1.00  0.00     0.016 A 
HETATM   23  C14 UNL     1      -4.875  43.818 -32.390  1.00  0.00     0.008 A 
HETATM   24  C18 UNL     1      -6.074  43.639 -31.684  1.00  0.00     0.016 A 
HETATM   25  C19 UNL     1      -6.690  44.718 -31.038  1.00  0.00     0.010 A 
BRANCH  23  26
HETATM   26  C15 UNL     1      -4.191  42.719 -33.084  1.00  0.00     0.115 A 
HETATM   27  N5  UNL     1      -3.264  41.932 -32.563  1.00  0.00    -0.350 N 
HETATM   28  C16 UNL     1      -2.902  41.051 -33.547  1.00  0.00     0.106 A 
ATOM     29  H5  UNL     1      -2.892  41.973 -31.615  1.00  0.00     0.166 HD
HETATM   30  C17 UNL     1      -3.615  41.290 -34.694  1.00  0.00     0.106 A 
HETATM   31  N6  UNL     1      -4.428  42.345 -34.389  1.00  0.00    -0.350 N 
HETATM   32  H15 UNL     1      -5.096  42.775 -35.010  1.00  0.00     0.166 HD
ENDBRANCH  23  26
ENDBRANCH  19  20
ENDBRANCH  16  19
ENDBRANCH   7  13
BRANCH   1  33
HETATM   33  C4  UNL     1      -0.735  51.218 -23.261  1.00  0.00    -0.004 A 
HETATM   34  C3  UNL     1       0.060  52.317 -22.926  1.00  0.00     0.038 A 
HETATM   35  C2  UNL     1       0.394  52.525 -21.592  1.00  0.00     0.005 A 
HETATM   36  C1  UNL     1       1.251  53.692 -21.203  1.00  0.00     0.068 C 
HETATM   37  N8  UNL     1      -0.020  51.705 -20.600  1.00  0.00    -0.369 N 
HETATM   38  C23 UNL     1      -0.772  50.637 -20.947  1.00  0.00     0.089 A 
ATOM     39  H8  UNL     1       0.226  51.884 -19.626  1.00  0.00     0.165 HD
HETATM   40  C22 UNL     1      -1.149  50.354 -22.246  1.00  0.00     0.031 A 
ENDBRANCH   1  33
TORSDOF 5
ENDMDL
MODEL 5
REMARK minimizedAffinity -9.74927425
REMARK  5 active torsions:
REMARK  status: ('A' for Active; 'I' for Inactive)
REMARK    1  A    between atoms: C4_4  and  C5_5 
REMARK    2  A    between atoms: C8_11  and  N3_12 
REMARK       I    between atoms: N3_12  and  C9_13 
REMARK       I    between atoms: C9_13  and  N4_15 
REMARK    3  A    between atoms: N4_15  and  C10_16 
REMARK    4  A    between atoms: C10_16  and  C11_17 
REMARK    5  A    between atoms: C14_20  and  C15_21 
ROOT
HETATM    1  C5  UNL     1      -1.256  51.200 -24.037  1.00  0.00     0.072 A 
HETATM    2  N1  UNL     1      -1.562  50.236 -23.152  1.00  0.00    -0.299 N 
ATOM      3  H1  UNL     1      -1.251  50.155 -22.184  1.00  0.00     0.187 HD
HETATM    4  N2  UNL     1      -2.368  49.402 -23.829  1.00  0.00    -0.299 N 
HETATM    5  C6  UNL     1      -2.632  49.799 -25.108  1.00  0.00     0.065 A 
HETATM    6  C7  UNL     1      -3.420  49.235 -26.112  1.00  0.00     0.080 A 
HETATM    7  C8  UNL     1      -3.454  49.943 -27.306  1.00  0.00     0.111 A 
HETATM    8  N7  UNL     1      -2.790  51.107 -27.505  1.00  0.00    -0.351 N 
ATOM      9  H7  UNL     1      -2.858  51.586 -28.403  1.00  0.00     0.166 HD
HETATM   10  C20 UNL     1      -2.033  51.637 -26.508  1.00  0.00     0.105 A 
HETATM   11  C21 UNL     1      -1.926  50.982 -25.280  1.00  0.00     0.036 A 
HETATM   12  H5  UNL     1      -2.713  48.577 -23.353  1.00  0.00     0.187 HD
ENDROOT
BRANCH   7  13
HETATM   13  N3  UNL     1      -4.186  49.539 -28.422  1.00  0.00    -0.295 N 
HETATM   14  C9  UNL     1      -5.049  48.483 -28.540  1.00  0.00     0.322 C 
HETATM   15  O1  UNL     1      -5.311  47.662 -27.670  1.00  0.00    -0.247 OA
HETATM   16  N4  UNL     1      -5.598  48.429 -29.803  1.00  0.00    -0.339 N 
HETATM   17  H8  UNL     1      -5.652  49.301 -30.305  1.00  0.00     0.164 HD
HETATM   18  H7  UNL     1      -3.951  50.066 -29.248  1.00  0.00     0.172 HD
BRANCH  16  19
HETATM   19  C10 UNL     1      -6.605  47.446 -30.139  1.00  0.00     0.162 C 
BRANCH  19  20
HETATM   20  C11 UNL     1      -5.998  46.281 -30.878  1.00  0.00    -0.040 A 
HETATM   21  C12 UNL     1      -4.821  46.436 -31.616  1.00  0.00     0.010 A 
HETATM   22  C13 UNL     1      -4.281  45.355 -32.321  1.00  0.00     0.016 A 
HETATM   23  C14 UNL     1      -4.901  44.098 -32.311  1.00  0.00     0.008 A 
HETATM   24  C18 UNL     1      -6.087  43.950 -31.578  1.00  0.00     0.016 A 
HETATM   25  C19 UNL     1      -6.630  45.030 -30.871  1.00  0.00     0.010 A 
BRANCH  23  26
HETATM   26  C15 UNL     1      -4.293  42.997 -33.069  1.00  0.00     0.115 A 
HETATM   27  N5  UNL     1      -4.292  42.870 -34.385  1.00  0.00    -0.350 N 
HETATM   28  C16 UNL     1      -3.619  41.711 -34.667  1.00  0.00     0.106 A 
ATOM     29  H5  UNL     1      -4.712  43.509 -35.060  1.00  0.00     0.166 HD
HETATM   30  C17 UNL     1      -3.190  41.111 -33.510  1.00  0.00     0.106 A 
HETATM   31  N6  UNL     1      -3.619  41.933 -32.507  1.00  0.00    -0.350 N 
HETATM   32  H15 UNL     1      -3.465  41.792 -31.520  1.00  0.00     0.166 HD
ENDBRANCH  23  26
ENDBRANCH  19  20
ENDBRANCH  16  19
ENDBRANCH   7  13
BRANCH   1  33
HETATM   33  C4  UNL     1      -0.359  52.292 -23.666  1.00  0.00    -0.004 A 
HETATM   34  C3  UNL     1       0.074  52.458 -22.347  1.00  0.00     0.038 A 
HETATM   35  C2  UNL     1       0.932  53.511 -22.047  1.00  0.00     0.005 A 
HETATM   36  C1  UNL     1       1.407  53.718 -20.640  1.00  0.00     0.068 C 
HETATM   37  N8  UNL     1       1.367  54.387 -22.981  1.00  0.00    -0.369 N 
HETATM   38  C23 UNL     1       0.921  54.220 -24.246  1.00  0.00     0.089 A 
ATOM     39  H8  UNL     1       2.006  55.144 -22.741  1.00  0.00     0.165 HD
HETATM   40  C22 UNL     1       0.069  53.204 -24.632  1.00  0.00     0.031 A 
ENDBRANCH   1  33
TORSDOF 5
ENDMDL
MODEL 6
REMARK minimizedAffinity -9.51836491
REMARK  5 active torsions:
REMARK  status: ('A' for Active; 'I' for Inactive)
REMARK    1  A    between atoms: C4_4  and  C5_5 
REMARK    2  A    between atoms: C8_11  and  N3_12 
REMARK       I    between atoms: N3_12  and  C9_13 
REMARK       I    between atoms: C9_13  and  N4_15 
REMARK    3  A    between atoms: N4_15  and  C10_16 
REMARK    4  A    between atoms: C10_16  and  C11_17 
REMARK    5  A    between atoms: C14_20  and  C15_21 
ROOT
HETATM    1  C5  UNL     1       0.232  52.981 -23.907  1.00  0.00     0.072 A 
HETATM    2  N1  UNL     1       1.013  53.667 -24.760  1.00  0.00    -0.299 N 
ATOM      3  H1  UNL     1       1.833  54.232 -24.539  1.00  0.00     0.187 HD
HETATM    4  N2  UNL     1       0.470  53.442 -25.967  1.00  0.00    -0.299 N 
HETATM    5  C6  UNL     1      -0.611  52.609 -25.945  1.00  0.00     0.065 A 
HETATM    6  C7  UNL     1      -1.428  52.120 -26.965  1.00  0.00     0.080 A 
HETATM    7  C8  UNL     1      -2.446  51.271 -26.552  1.00  0.00     0.111 A 
HETATM    8  N7  UNL     1      -2.646  50.914 -25.261  1.00  0.00    -0.351 N 
ATOM      9  H7  UNL     1      -3.408  50.280 -25.019  1.00  0.00     0.166 HD
HETATM   10  C20 UNL     1      -1.831  51.401 -24.288  1.00  0.00     0.105 A 
HETATM   11  C21 UNL     1      -0.794  52.277 -24.610  1.00  0.00     0.036 A 
HETATM   12  H5  UNL     1       0.894  53.885 -26.774  1.00  0.00     0.187 HD
ENDROOT
BRANCH   7  13
HETATM   13  N3  UNL     1      -3.362  50.684 -27.424  1.00  0.00    -0.295 N 
HETATM   14  C9  UNL     1      -3.611  49.353 -27.634  1.00  0.00     0.322 C 
HETATM   15  O1  UNL     1      -3.031  48.417 -27.099  1.00  0.00    -0.247 OA
HETATM   16  N4  UNL     1      -4.612  49.175 -28.563  1.00  0.00    -0.339 N 
HETATM   17  H8  UNL     1      -5.278  49.927 -28.653  1.00  0.00     0.164 HD
HETATM   18  H7  UNL     1      -3.813  51.359 -28.021  1.00  0.00     0.172 HD
BRANCH  16  19
HETATM   19  C10 UNL     1      -5.108  47.855 -28.885  1.00  0.00     0.162 C 
BRANCH  19  20
HETATM   20  C11 UNL     1      -6.596  47.768 -28.660  1.00  0.00    -0.040 A 
HETATM   21  C12 UNL     1      -7.495  48.195 -29.642  1.00  0.00     0.010 A 
HETATM   22  C13 UNL     1      -8.874  48.136 -29.413  1.00  0.00     0.016 A 
HETATM   23  C14 UNL     1      -9.389  47.655 -28.201  1.00  0.00     0.008 A 
HETATM   24  C18 UNL     1      -8.483  47.237 -27.215  1.00  0.00     0.016 A 
HETATM   25  C19 UNL     1      -7.102  47.295 -27.442  1.00  0.00     0.010 A 
BRANCH  23  26
HETATM   26  C15 UNL     1     -10.845  47.615 -28.011  1.00  0.00     0.115 A 
HETATM   27  N5  UNL     1     -11.554  48.457 -27.277  1.00  0.00    -0.350 N 
HETATM   28  C16 UNL     1     -12.860  48.060 -27.380  1.00  0.00     0.106 A 
ATOM     29  H5  UNL     1     -11.197  49.247 -26.740  1.00  0.00     0.166 HD
HETATM   30  C17 UNL     1     -12.967  46.960 -28.191  1.00  0.00     0.106 A 
HETATM   31  N6  UNL     1     -11.687  46.688 -28.586  1.00  0.00    -0.350 N 
HETATM   32  H15 UNL     1     -11.404  45.941 -29.202  1.00  0.00     0.166 HD
ENDBRANCH  23  26
ENDBRANCH  19  20
ENDBRANCH  16  19
ENDBRANCH   7  13
BRANCH   1  33
HETATM   33  C4  UNL     1       0.498  53.008 -22.470  1.00  0.00    -0.004 A 
HETATM   34  C3  UNL     1      -0.003  52.015 -21.623  1.00  0.00     0.038 A 
HETATM   35  C2  UNL     1       0.282  52.083 -20.263  1.00  0.00     0.005 A 
HETATM   36  C1  UNL     1      -0.247  51.037 -19.329  1.00  0.00     0.068 C 
HETATM   37  N8  UNL     1       1.027  53.075 -19.723  1.00  0.00    -0.369 N 
HETATM   38  C23 UNL     1       1.485  54.034 -20.556  1.00  0.00     0.089 A 
ATOM     39  H8  UNL     1       1.234  53.098 -18.724  1.00  0.00     0.165 HD
HETATM   40  C22 UNL     1       1.249  54.046 -21.918  1.00  0.00     0.031 A 
ENDBRANCH   1  33
TORSDOF 5
ENDMDL
MODEL 7
REMARK minimizedAffinity -9.44954014
REMARK  5 active torsions:
REMARK  status: ('A' for Active; 'I' for Inactive)
REMARK    1  A    between atoms: C4_4  and  C5_5 
REMARK    2  A    between atoms: C8_11  and  N3_12 
REMARK       I    between atoms: N3_12  and  C9_13 
REMARK       I    between atoms: C9_13  and  N4_15 
REMARK    3  A    between atoms: N4_15  and  C10_16 
REMARK    4  A    between atoms: C10_16  and  C11_17 
REMARK    5  A    between atoms: C14_20  and  C15_21 
ROOT
HETATM    1  C5  UNL     1      -1.556  51.667 -24.315  1.00  0.00     0.072 A 
HETATM    2  N1  UNL     1      -1.381  52.933 -24.734  1.00  0.00    -0.299 N 
ATOM      3  H1  UNL     1      -0.923  53.697 -24.238  1.00  0.00     0.187 HD
HETATM    4  N2  UNL     1      -1.946  52.963 -25.951  1.00  0.00    -0.299 N 
HETATM    5  C6  UNL     1      -2.450  51.763 -26.363  1.00  0.00     0.065 A 
HETATM    6  C7  UNL     1      -3.086  51.378 -27.543  1.00  0.00     0.080 A 
HETATM    7  C8  UNL     1      -3.459  50.041 -27.605  1.00  0.00     0.111 A 
HETATM    8  N7  UNL     1      -3.223  49.152 -26.612  1.00  0.00    -0.351 N 
ATOM      9  H7  UNL     1      -3.516  48.180 -26.718  1.00  0.00     0.166 HD
HETATM   10  C20 UNL     1      -2.598  49.553 -25.474  1.00  0.00     0.105 A 
HETATM   11  C21 UNL     1      -2.205  50.883 -25.318  1.00  0.00     0.036 A 
HETATM   12  H5  UNL     1      -1.947  53.841 -26.457  1.00  0.00     0.187 HD
ENDROOT
BRANCH   7  13
HETATM   13  N3  UNL     1      -4.103  49.471 -28.703  1.00  0.00    -0.295 N 
HETATM   14  C9  UNL     1      -5.014  48.449 -28.723  1.00  0.00     0.322 C 
HETATM   15  O1  UNL     1      -5.410  47.815 -27.753  1.00  0.00    -0.247 OA
HETATM   16  N4  UNL     1      -5.440  48.188 -30.007  1.00  0.00    -0.339 N 
HETATM   17  H8  UNL     1      -5.391  48.956 -30.659  1.00  0.00     0.164 HD
HETATM   18  H7  UNL     1      -3.756  49.826 -29.580  1.00  0.00     0.172 HD
BRANCH  16  19
HETATM   19  C10 UNL     1      -6.470  47.206 -30.268  1.00  0.00     0.162 C 
BRANCH  19  20
HETATM   20  C11 UNL     1      -5.903  46.009 -30.988  1.00  0.00    -0.040 A 
HETATM   21  C12 UNL     1      -4.778  46.133 -31.809  1.00  0.00     0.010 A 
HETATM   22  C13 UNL     1      -4.277  45.022 -32.495  1.00  0.00     0.016 A 
HETATM   23  C14 UNL     1      -4.886  43.764 -32.384  1.00  0.00     0.008 A 
HETATM   24  C18 UNL     1      -6.020  43.647 -31.568  1.00  0.00     0.016 A 
HETATM   25  C19 UNL     1      -6.523  44.757 -30.880  1.00  0.00     0.010 A 
BRANCH  23  26
HETATM   26  C15 UNL     1      -4.320  42.630 -33.126  1.00  0.00     0.115 A 
HETATM   27  N5  UNL     1      -3.713  41.581 -32.595  1.00  0.00    -0.350 N 
HETATM   28  C16 UNL     1      -3.347  40.771 -33.636  1.00  0.00     0.106 A 
ATOM     29  H5  UNL     1      -3.549  41.410 -31.603  1.00  0.00     0.166 HD
HETATM   30  C17 UNL     1      -3.736  41.320 -34.832  1.00  0.00     0.106 A 
HETATM   31  N6  UNL     1      -4.351  42.493 -34.497  1.00  0.00    -0.350 N 
HETATM   32  H15 UNL     1      -4.766  43.148 -35.142  1.00  0.00     0.166 HD
ENDBRANCH  23  26
ENDBRANCH  19  20
ENDBRANCH  16  19
ENDBRANCH   7  13
BRANCH   1  33
HETATM   33  C4  UNL     1      -1.088  51.250 -22.994  1.00  0.00    -0.004 A 
HETATM   34  C3  UNL     1      -1.314  49.954 -22.522  1.00  0.00     0.038 A 
HETATM   35  C2  UNL     1      -0.845  49.606 -21.260  1.00  0.00     0.005 A 
HETATM   36  C1  UNL     1      -1.079  48.225 -20.723  1.00  0.00     0.068 C 
HETATM   37  N8  UNL     1      -0.175  50.472 -20.466  1.00  0.00    -0.369 N 
HETATM   38  C23 UNL     1       0.017  51.725 -20.933  1.00  0.00     0.089 A 
ATOM     39  H8  UNL     1       0.172  50.190 -19.549  1.00  0.00     0.165 HD
HETATM   40  C22 UNL     1      -0.416  52.156 -22.173  1.00  0.00     0.031 A 
ENDBRANCH   1  33
TORSDOF 5
ENDMDL
MODEL 8
REMARK minimizedAffinity -9.34886551
REMARK  5 active torsions:
REMARK  status: ('A' for Active; 'I' for Inactive)
REMARK    1  A    between atoms: C4_4  and  C5_5 
REMARK    2  A    between atoms: C8_11  and  N3_12 
REMARK       I    between atoms: N3_12  and  C9_13 
REMARK       I    between atoms: C9_13  and  N4_15 
REMARK    3  A    between atoms: N4_15  and  C10_16 
REMARK    4  A    between atoms: C10_16  and  C11_17 
REMARK    5  A    between atoms: C14_20  and  C15_21 
ROOT
HETATM    1  C5  UNL     1       0.482  53.642 -24.568  1.00  0.00     0.072 A 
HETATM    2  N1  UNL     1       1.056  54.854 -24.664  1.00  0.00    -0.299 N 
ATOM      3  H1  UNL     1       1.159  55.432 -25.498  1.00  0.00     0.187 HD
HETATM    4  N2  UNL     1       1.464  55.130 -23.415  1.00  0.00    -0.299 N 
HETATM    5  C6  UNL     1       1.150  54.168 -22.500  1.00  0.00     0.065 A 
HETATM    6  C7  UNL     1       1.374  54.084 -21.125  1.00  0.00     0.080 A 
HETATM    7  C8  UNL     1       0.892  52.933 -20.516  1.00  0.00     0.111 A 
HETATM    8  N7  UNL     1       0.236  51.953 -21.182  1.00  0.00    -0.351 N 
ATOM      9  H7  UNL     1      -0.100  51.131 -20.678  1.00  0.00     0.166 HD
HETATM   10  C20 UNL     1       0.027  52.062 -22.520  1.00  0.00     0.105 A 
HETATM   11  C21 UNL     1       0.494  53.177 -23.217  1.00  0.00     0.036 A 
HETATM   12  H5  UNL     1       1.951  56.004 -23.252  1.00  0.00     0.187 HD
ENDROOT
BRANCH   7  13
HETATM   13  N3  UNL     1       1.020  52.671 -19.152  1.00  0.00    -0.295 N 
HETATM   14  C9  UNL     1       0.528  51.613 -18.436  1.00  0.00     0.322 C 
HETATM   15  O1  UNL     1      -0.161  50.700 -18.875  1.00  0.00    -0.247 OA
HETATM   16  N4  UNL     1       0.891  51.699 -17.109  1.00  0.00    -0.339 N 
HETATM   17  H8  UNL     1       1.734  52.214 -16.909  1.00  0.00     0.164 HD
HETATM   18  H7  UNL     1       1.462  53.428 -18.655  1.00  0.00     0.172 HD
BRANCH  16  19
HETATM   19  C10 UNL     1       0.558  50.648 -16.173  1.00  0.00     0.162 C 
BRANCH  19  20
HETATM   20  C11 UNL     1      -0.199  51.198 -14.991  1.00  0.00    -0.040 A 
HETATM   21  C12 UNL     1      -1.583  51.030 -14.884  1.00  0.00     0.010 A 
HETATM   22  C13 UNL     1      -2.279  51.569 -13.798  1.00  0.00     0.016 A 
HETATM   23  C14 UNL     1      -1.616  52.290 -12.795  1.00  0.00     0.008 A 
HETATM   24  C18 UNL     1      -0.230  52.465 -12.911  1.00  0.00     0.016 A 
HETATM   25  C19 UNL     1       0.470  51.926 -13.998  1.00  0.00     0.010 A 
BRANCH  23  26
HETATM   26  C15 UNL     1      -2.395  52.835 -11.675  1.00  0.00     0.115 A 
HETATM   27  N5  UNL     1      -3.635  53.292 -11.744  1.00  0.00    -0.350 N 
HETATM   28  C16 UNL     1      -3.973  53.698 -10.480  1.00  0.00     0.106 A 
ATOM     29  H5  UNL     1      -4.223  53.335 -12.576  1.00  0.00     0.166 HD
HETATM   30  C17 UNL     1      -2.932  53.486  -9.613  1.00  0.00     0.106 A 
HETATM   31  N6  UNL     1      -1.941  52.939 -10.378  1.00  0.00    -0.350 N 
HETATM   32  H15 UNL     1      -1.032  52.650 -10.050  1.00  0.00     0.166 HD
ENDBRANCH  23  26
ENDBRANCH  19  20
ENDBRANCH  16  19
ENDBRANCH   7  13
BRANCH   1  33
HETATM   33  C4  UNL     1      -0.068  52.985 -25.752  1.00  0.00    -0.004 A 
HETATM   34  C3  UNL     1      -0.884  51.856 -25.640  1.00  0.00     0.038 A 
HETATM   35  C2  UNL     1      -1.386  51.270 -26.798  1.00  0.00     0.005 A 
HETATM   36  C1  UNL     1      -2.258  50.053 -26.709  1.00  0.00     0.068 C 
HETATM   37  N8  UNL     1      -1.117  51.748 -28.034  1.00  0.00    -0.369 N 
HETATM   38  C23 UNL     1      -0.311  52.829 -28.121  1.00  0.00     0.089 A 
ATOM     39  H8  UNL     1      -1.507  51.310 -28.868  1.00  0.00     0.165 HD
HETATM   40  C22 UNL     1       0.232  53.473 -27.025  1.00  0.00     0.031 A 
ENDBRANCH   1  33
TORSDOF 5
ENDMDL
MODEL 9
REMARK minimizedAffinity -9.11730576
REMARK  5 active torsions:
REMARK  status: ('A' for Active; 'I' for Inactive)
REMARK    1  A    between atoms: C4_4  and  C5_5 
REMARK    2  A    between atoms: C8_11  and  N3_12 
REMARK       I    between atoms: N3_12  and  C9_13 
REMARK       I    between atoms: C9_13  and  N4_15 
REMARK    3  A    between atoms: N4_15  and  C10_16 
REMARK    4  A    between atoms: C10_16  and  C11_17 
REMARK    5  A    between atoms: C14_20  and  C15_21 
ROOT
HETATM    1  C5  UNL     1       0.667  53.211 -23.711  1.00  0.00     0.072 A 
HETATM    2  N1  UNL     1       1.198  54.422 -23.954  1.00  0.00    -0.299 N 
ATOM      3  H1  UNL     1       1.302  54.890 -24.854  1.00  0.00     0.187 HD
HETATM    4  N2  UNL     1       1.560  54.877 -22.744  1.00  0.00    -0.299 N 
HETATM    5  C6  UNL     1       1.257  54.032 -21.716  1.00  0.00     0.065 A 
HETATM    6  C7  UNL     1       1.445  54.139 -20.338  1.00  0.00     0.080 A 
HETATM    7  C8  UNL     1       0.990  53.059 -19.592  1.00  0.00     0.111 A 
HETATM    8  N7  UNL     1       0.391  51.973 -20.137  1.00  0.00    -0.351 N 
ATOM      9  H7  UNL     1       0.072  51.212 -19.537  1.00  0.00     0.166 HD
HETATM   10  C20 UNL     1       0.215  51.897 -21.483  1.00  0.00     0.105 A 
HETATM   11  C21 UNL     1       0.660  52.929 -22.311  1.00  0.00     0.036 A 
HETATM   12  H5  UNL     1       2.008  55.785 -22.687  1.00  0.00     0.187 HD
ENDROOT
BRANCH   7  13
HETATM   13  N3  UNL     1       1.089  52.984 -18.204  1.00  0.00    -0.295 N 
HETATM   14  C9  UNL     1       0.800  51.928 -17.382  1.00  0.00     0.322 C 
HETATM   15  O1  UNL     1       0.357  50.841 -17.731  1.00  0.00    -0.247 OA
HETATM   16  N4  UNL     1       1.053  52.239 -16.064  1.00  0.00    -0.339 N 
HETATM   17  H8  UNL     1       1.749  52.950 -15.898  1.00  0.00     0.164 HD
HETATM   18  H7  UNL     1       1.322  53.871 -17.786  1.00  0.00     0.172 HD
BRANCH  16  19
HETATM   19  C10 UNL     1       0.904  51.250 -15.019  1.00  0.00     0.162 C 
BRANCH  19  20
HETATM   20  C11 UNL     1       1.097  51.868 -13.659  1.00  0.00    -0.040 A 
HETATM   21  C12 UNL     1       0.068  52.590 -13.046  1.00  0.00     0.010 A 
HETATM   22  C13 UNL     1       0.267  53.183 -11.796  1.00  0.00     0.016 A 
HETATM   23  C14 UNL     1       1.495  53.077 -11.128  1.00  0.00     0.008 A 
HETATM   24  C18 UNL     1       2.527  52.361 -11.750  1.00  0.00     0.016 A 
HETATM   25  C19 UNL     1       2.331  51.765 -13.002  1.00  0.00     0.010 A 
BRANCH  23  26
HETATM   26  C15 UNL     1       1.651  53.720  -9.816  1.00  0.00     0.115 A 
HETATM   27  N5  UNL     1       2.593  53.448  -8.927  1.00  0.00    -0.350 N 
HETATM   28  C16 UNL     1       2.371  54.273  -7.858  1.00  0.00     0.106 A 
ATOM     29  H5  UNL     1       3.338  52.758  -9.020  1.00  0.00     0.166 HD
HETATM   30  C17 UNL     1       1.280  55.073  -8.085  1.00  0.00     0.106 A 
HETATM   31  N6  UNL     1       0.834  54.716  -9.327  1.00  0.00    -0.350 N 
HETATM   32  H15 UNL     1       0.046  55.118  -9.810  1.00  0.00     0.166 HD
ENDBRANCH  23  26
ENDBRANCH  19  20
ENDBRANCH  16  19
ENDBRANCH   7  13
BRANCH   1  33
HETATM   33  C4  UNL     1       0.176  52.381 -24.810  1.00  0.00    -0.004 A 
HETATM   34  C3  UNL     1       0.781  52.416 -26.070  1.00  0.00     0.038 A 
HETATM   35  C2  UNL     1       0.279  51.603 -27.081  1.00  0.00     0.005 A 
HETATM   36  C1  UNL     1       0.902  51.624 -28.444  1.00  0.00     0.068 C 
HETATM   37  N8  UNL     1      -0.777  50.777 -26.896  1.00  0.00    -0.369 N 
HETATM   38  C23 UNL     1      -1.358  50.773 -25.677  1.00  0.00     0.089 A 
ATOM     39  H8  UNL     1      -1.120  50.180 -27.648  1.00  0.00     0.165 HD
HETATM   40  C22 UNL     1      -0.926  51.548 -24.617  1.00  0.00     0.031 A 
ENDBRANCH   1  33
TORSDOF 5
ENDMDL
