MODEL 1
REMARK minimizedAffinity -8.96349907
REMARK CNNscore 0.501090765
REMARK CNNaffinity 7.5269084
REMARK  7 active torsions:
REMARK  status: ('A' for Active; 'I' for Inactive)
REMARK       I    between atoms: C1_2  and  N1_3 
REMARK    1  A    between atoms: C1_2  and  C8_12 
REMARK    2  A    between atoms: N1_3  and  C2_4 
REMARK    3  A    between atoms: C5_7  and  O2_8 
REMARK    4  A    between atoms: N2_15  and  C11_16 
REMARK    5  A    between atoms: C11_16  and  C12_17 
REMARK       I    between atoms: C12_17  and  N3_19 
REMARK    6  A    between atoms: N4_22  and  C15_23 
REMARK    7  A    between atoms: C18_26  and  C19_27 
ROOT
HETATM    1  C11 UNL     1      -5.643  48.508 -21.959  1.00  0.00     0.374 C 
ENDROOT
BRANCH   1   2
HETATM    2  N2  UNL     1      -5.063  49.058 -23.197  1.00  0.00     0.098 N 
HETATM    3  C10 UNL     1      -5.545  48.423 -24.420  1.00  0.00     0.274 C 
HETATM    4  C9  UNL     1      -4.541  48.926 -25.441  1.00  0.00     0.046 C 
HETATM    5  C8  UNL     1      -3.208  48.858 -24.701  1.00  0.00     0.108 C 
HETATM    6  C27 UNL     1      -3.596  48.941 -23.219  1.00  0.00     0.287 C 
BRANCH   5   7
HETATM    7  C1  UNL     1      -2.194  49.917 -25.124  1.00  0.00     0.228 C 
HETATM    8  O1  UNL     1      -1.806  50.014 -26.283  1.00  0.00    -0.273 OA
HETATM    9  N1  UNL     1      -1.865  50.780 -24.088  1.00  0.00    -0.327 N 
HETATM   10  H1  UNL     1      -2.304  50.603 -23.193  1.00  0.00     0.169 HD
BRANCH   9  11
HETATM   11  C2  UNL     1      -0.981  51.880 -24.129  1.00  0.00     0.036 A 
HETATM   12  C3  UNL     1      -0.770  52.674 -25.260  1.00  0.00     0.032 A 
HETATM   13  C4  UNL     1       0.126  53.749 -25.222  1.00  0.00     0.040 A 
HETATM   14  C5  UNL     1       0.815  54.032 -24.050  1.00  0.00     0.087 A 
HETATM   15  C6  UNL     1       0.615  53.248 -22.916  1.00  0.00     0.069 A 
HETATM   16 CL1  UNL     1       1.467  53.591 -21.456  1.00  0.00    -0.081 Cl
HETATM   17  C7  UNL     1      -0.278  52.176 -22.952  1.00  0.00     0.056 A 
BRANCH  14  18
HETATM   18  O2  UNL     1       1.678  55.091 -24.063  1.00  0.00    -0.359 OA
HETATM   19  H4  UNL     1       2.078  55.150 -23.177  1.00  0.00     0.217 HD
ENDBRANCH  14  18
ENDBRANCH   9  11
ENDBRANCH   5   7
ENDBRANCH   1   2
BRANCH   1  20
HETATM   20  C12 UNL     1      -4.659  47.641 -21.145  1.00  0.00     0.248 C 
HETATM   21  O3  UNL     1      -4.391  46.473 -21.433  1.00  0.00    -0.271 OA
HETATM   22  N3  UNL     1      -4.061  48.261 -20.041  1.00  0.00    -0.348 N 
HETATM   23  C13 UNL     1      -3.055  47.496 -19.291  1.00  0.00     0.145 C 
HETATM   24  C26 UNL     1      -3.856  49.713 -19.942  1.00  0.00     0.145 C 
HETATM   25  C14 UNL     1      -1.637  47.830 -19.800  1.00  0.00     0.143 C 
HETATM   26  N4  UNL     1      -1.393  49.301 -19.736  1.00  0.00    -0.378 N 
HETATM   27  C25 UNL     1      -2.437  50.089 -20.431  1.00  0.00     0.143 C 
BRANCH  26  28
HETATM   28  C15 UNL     1      -0.791  49.786 -18.573  1.00  0.00     0.030 A 
HETATM   29  C16 UNL     1      -0.597  48.934 -17.474  1.00  0.00     0.030 A 
HETATM   30  C17 UNL     1       0.016  49.370 -16.290  1.00  0.00     0.015 A 
HETATM   31  C18 UNL     1       0.478  50.682 -16.167  1.00  0.00    -0.019 A 
HETATM   32  C23 UNL     1       0.308  51.539 -17.257  1.00  0.00     0.015 A 
HETATM   33  C24 UNL     1      -0.307  51.093 -18.438  1.00  0.00     0.030 A 
BRANCH  31  34
HETATM   34  C19 UNL     1       1.109  51.129 -14.918  1.00  0.00     0.015 A 
HETATM   35  C20 UNL     1       2.448  51.095 -14.569  1.00  0.00     0.020 A 
HETATM   36  C21 UNL     1       2.694  51.633 -13.272  1.00  0.00     0.008 A 
HETATM   37  C22 UNL     1       1.537  52.073 -12.671  1.00  0.00     0.050 A 
HETATM   38  S1  UNL     1       0.169  51.836 -13.667  1.00  0.00    -0.101 SA
ENDBRANCH  31  34
ENDBRANCH  26  28
ENDBRANCH   1  20
TORSDOF 7
ENDMDL
MODEL 2
REMARK minimizedAffinity -8.8788166
REMARK CNNscore 0.498058915
REMARK CNNaffinity 6.20183372
REMARK  7 active torsions:
REMARK  status: ('A' for Active; 'I' for Inactive)
REMARK       I    between atoms: C1_2  and  N1_3 
REMARK    1  A    between atoms: C1_2  and  C8_12 
REMARK    2  A    between atoms: N1_3  and  C2_4 
REMARK    3  A    between atoms: C5_7  and  O2_8 
REMARK    4  A    between atoms: N2_15  and  C11_16 
REMARK    5  A    between atoms: C11_16  and  C12_17 
REMARK       I    between atoms: C12_17  and  N3_19 
REMARK    6  A    between atoms: N4_22  and  C15_23 
REMARK    7  A    between atoms: C18_26  and  C19_27 
ROOT
HETATM    1  C11 UNL     1      -7.653  47.086 -26.977  1.00  0.00     0.374 C 
ENDROOT
BRANCH   1   2
HETATM    2  N2  UNL     1      -6.494  47.976 -27.168  1.00  0.00     0.098 N 
HETATM    3  C10 UNL     1      -5.628  47.603 -28.282  1.00  0.00     0.274 C 
HETATM    4  C9  UNL     1      -4.394  48.442 -28.003  1.00  0.00     0.046 C 
HETATM    5  C8  UNL     1      -4.226  48.344 -26.490  1.00  0.00     0.108 C 
HETATM    6  C27 UNL     1      -5.636  48.029 -25.973  1.00  0.00     0.287 C 
BRANCH   5   7
HETATM    7  C1  UNL     1      -3.604  49.578 -25.842  1.00  0.00     0.228 C 
HETATM    8  O1  UNL     1      -4.182  50.210 -24.964  1.00  0.00    -0.273 OA
HETATM    9  N1  UNL     1      -2.311  49.816 -26.288  1.00  0.00    -0.327 N 
HETATM   10  H1  UNL     1      -1.947  49.178 -26.985  1.00  0.00     0.169 HD
BRANCH   9  11
HETATM   11  C2  UNL     1      -1.438  50.852 -25.891  1.00  0.00     0.036 A 
HETATM   12  C3  UNL     1      -1.829  51.956 -25.128  1.00  0.00     0.032 A 
HETATM   13  C4  UNL     1      -0.902  52.944 -24.773  1.00  0.00     0.040 A 
HETATM   14  C5  UNL     1       0.420  52.829 -25.182  1.00  0.00     0.087 A 
HETATM   15  C6  UNL     1       0.822  51.735 -25.945  1.00  0.00     0.069 A 
HETATM   16 CL1  UNL     1       2.462  51.584 -26.458  1.00  0.00    -0.081 Cl
HETATM   17  C7  UNL     1      -0.100  50.749 -26.299  1.00  0.00     0.056 A 
BRANCH  14  18
HETATM   18  O2  UNL     1       1.286  53.819 -24.811  1.00  0.00    -0.359 OA
HETATM   19  H4  UNL     1       2.160  53.592 -25.178  1.00  0.00     0.217 HD
ENDBRANCH  14  18
ENDBRANCH   9  11
ENDBRANCH   5   7
ENDBRANCH   1   2
BRANCH   1  20
HETATM   20  C12 UNL     1      -8.817  47.364 -27.951  1.00  0.00     0.248 C 
HETATM   21  O3  UNL     1      -8.656  47.561 -29.157  1.00  0.00    -0.271 OA
HETATM   22  N3  UNL     1     -10.100  47.373 -27.391  1.00  0.00    -0.348 N 
HETATM   23  C13 UNL     1     -11.240  47.549 -28.300  1.00  0.00     0.145 C 
HETATM   24  C26 UNL     1     -10.456  46.626 -26.176  1.00  0.00     0.145 C 
HETATM   25  C14 UNL     1     -11.815  46.178 -28.715  1.00  0.00     0.143 C 
HETATM   26  N4  UNL     1     -12.172  45.376 -27.508  1.00  0.00    -0.378 N 
HETATM   27  C25 UNL     1     -11.050  45.246 -26.549  1.00  0.00     0.143 C 
BRANCH  26  28
HETATM   28  C15 UNL     1     -13.488  45.481 -27.054  1.00  0.00     0.030 A 
HETATM   29  C16 UNL     1     -13.756  46.041 -25.795  1.00  0.00     0.030 A 
HETATM   30  C17 UNL     1     -15.061  46.181 -25.301  1.00  0.00     0.015 A 
HETATM   31  C18 UNL     1     -16.159  45.777 -26.063  1.00  0.00    -0.019 A 
HETATM   32  C23 UNL     1     -15.914  45.232 -27.325  1.00  0.00     0.015 A 
HETATM   33  C24 UNL     1     -14.603  45.096 -27.811  1.00  0.00     0.030 A 
BRANCH  31  34
HETATM   34  C19 UNL     1     -17.521  45.919 -25.530  1.00  0.00     0.015 A 
HETATM   35  C20 UNL     1     -17.967  46.746 -24.513  1.00  0.00     0.020 A 
HETATM   36  C21 UNL     1     -19.367  46.625 -24.278  1.00  0.00     0.008 A 
HETATM   37  C22 UNL     1     -19.954  45.717 -25.128  1.00  0.00     0.050 A 
HETATM   38  S1  UNL     1     -18.821  45.018 -26.200  1.00  0.00    -0.101 SA
ENDBRANCH  31  34
ENDBRANCH  26  28
ENDBRANCH   1  20
TORSDOF 7
ENDMDL
MODEL 3
REMARK minimizedAffinity -8.12083435
REMARK CNNscore 0.406718105
REMARK CNNaffinity 6.09132147
REMARK  7 active torsions:
REMARK  status: ('A' for Active; 'I' for Inactive)
REMARK       I    between atoms: C1_2  and  N1_3 
REMARK    1  A    between atoms: C1_2  and  C8_12 
REMARK    2  A    between atoms: N1_3  and  C2_4 
REMARK    3  A    between atoms: C5_7  and  O2_8 
REMARK    4  A    between atoms: N2_15  and  C11_16 
REMARK    5  A    between atoms: C11_16  and  C12_17 
REMARK       I    between atoms: C12_17  and  N3_19 
REMARK    6  A    between atoms: N4_22  and  C15_23 
REMARK    7  A    between atoms: C18_26  and  C19_27 
ROOT
HETATM    1  C11 UNL     1      -7.550  47.104 -28.028  1.00  0.00     0.374 C 
ENDROOT
BRANCH   1   2
HETATM    2  N2  UNL     1      -6.412  48.039 -28.022  1.00  0.00     0.098 N 
HETATM    3  C10 UNL     1      -5.568  47.965 -29.211  1.00  0.00     0.274 C 
HETATM    4  C9  UNL     1      -4.342  48.740 -28.763  1.00  0.00     0.046 C 
HETATM    5  C8  UNL     1      -4.134  48.284 -27.321  1.00  0.00     0.108 C 
HETATM    6  C27 UNL     1      -5.525  47.822 -26.868  1.00  0.00     0.287 C 
BRANCH   5   7
HETATM    7  C1  UNL     1      -3.517  49.339 -26.407  1.00  0.00     0.228 C 
HETATM    8  O1  UNL     1      -3.979  49.587 -25.299  1.00  0.00    -0.273 OA
HETATM    9  N1  UNL     1      -2.353  49.882 -26.935  1.00  0.00    -0.327 N 
HETATM   10  H1  UNL     1      -2.067  49.543 -27.845  1.00  0.00     0.169 HD
BRANCH   9  11
HETATM   11  C2  UNL     1      -1.518  50.862 -26.356  1.00  0.00     0.036 A 
HETATM   12  C3  UNL     1      -1.985  51.949 -25.611  1.00  0.00     0.032 A 
HETATM   13  C4  UNL     1      -1.092  52.880 -25.068  1.00  0.00     0.040 A 
HETATM   14  C5  UNL     1       0.273  52.726 -25.269  1.00  0.00     0.087 A 
HETATM   15  C6  UNL     1       0.752  51.649 -26.011  1.00  0.00     0.069 A 
HETATM   16 CL1  UNL     1       2.446  51.450 -26.267  1.00  0.00    -0.081 Cl
HETATM   17  C7  UNL     1      -0.137  50.719 -26.553  1.00  0.00     0.056 A 
BRANCH  14  18
HETATM   18  O2  UNL     1       1.103  53.662 -24.719  1.00  0.00    -0.359 OA
HETATM   19  H4  UNL     1       2.016  53.413 -24.955  1.00  0.00     0.217 HD
ENDBRANCH  14  18
ENDBRANCH   9  11
ENDBRANCH   5   7
ENDBRANCH   1   2
BRANCH   1  20
HETATM   20  C12 UNL     1      -8.889  47.757 -28.433  1.00  0.00     0.248 C 
HETATM   21  O3  UNL     1      -8.962  48.763 -29.140  1.00  0.00    -0.271 OA
HETATM   22  N3  UNL     1     -10.047  47.132 -27.955  1.00  0.00    -0.348 N 
HETATM   23  C13 UNL     1     -11.342  47.673 -28.390  1.00  0.00     0.145 C 
HETATM   24  C26 UNL     1     -10.116  45.701 -27.623  1.00  0.00     0.145 C 
HETATM   25  C14 UNL     1     -11.861  46.904 -29.623  1.00  0.00     0.143 C 
HETATM   26  N4  UNL     1     -11.927  45.442 -29.335  1.00  0.00    -0.378 N 
HETATM   27  C25 UNL     1     -10.645  44.894 -28.833  1.00  0.00     0.143 C 
BRANCH  26  28
HETATM   28  C15 UNL     1     -13.145  44.951 -28.862  1.00  0.00     0.030 A 
HETATM   29  C16 UNL     1     -13.241  43.626 -28.406  1.00  0.00     0.030 A 
HETATM   30  C17 UNL     1     -14.438  43.092 -27.908  1.00  0.00     0.015 A 
HETATM   31  C18 UNL     1     -15.592  43.875 -27.831  1.00  0.00    -0.019 A 
HETATM   32  C23 UNL     1     -15.512  45.201 -28.265  1.00  0.00     0.015 A 
HETATM   33  C24 UNL     1     -14.308  45.727 -28.762  1.00  0.00     0.030 A 
BRANCH  31  34
HETATM   34  C19 UNL     1     -16.842  43.301 -27.317  1.00  0.00     0.015 A 
HETATM   35  C20 UNL     1     -17.093  42.000 -26.919  1.00  0.00     0.020 A 
HETATM   36  C21 UNL     1     -18.429  41.810 -26.458  1.00  0.00     0.008 A 
HETATM   37  C22 UNL     1     -19.158  42.976 -26.509  1.00  0.00     0.050 A 
HETATM   38  S1  UNL     1     -18.235  44.284 -27.107  1.00  0.00    -0.101 SA
ENDBRANCH  31  34
ENDBRANCH  26  28
ENDBRANCH   1  20
TORSDOF 7
ENDMDL
MODEL 4
REMARK minimizedAffinity -9.15162659
REMARK CNNscore 0.374269903
REMARK CNNaffinity 6.56434011
REMARK  7 active torsions:
REMARK  status: ('A' for Active; 'I' for Inactive)
REMARK       I    between atoms: C1_2  and  N1_3 
REMARK    1  A    between atoms: C1_2  and  C8_12 
REMARK    2  A    between atoms: N1_3  and  C2_4 
REMARK    3  A    between atoms: C5_7  and  O2_8 
REMARK    4  A    between atoms: N2_15  and  C11_16 
REMARK    5  A    between atoms: C11_16  and  C12_17 
REMARK       I    between atoms: C12_17  and  N3_19 
REMARK    6  A    between atoms: N4_22  and  C15_23 
REMARK    7  A    between atoms: C18_26  and  C19_27 
ROOT
HETATM    1  C11 UNL     1      -3.641  48.465 -27.402  1.00  0.00     0.374 C 
ENDROOT
BRANCH   1   2
HETATM    2  N2  UNL     1      -3.360  49.858 -27.011  1.00  0.00     0.098 N 
HETATM    3  C10 UNL     1      -3.118  50.758 -28.134  1.00  0.00     0.274 C 
HETATM    4  C9  UNL     1      -2.523  51.966 -27.433  1.00  0.00     0.046 C 
HETATM    5  C8  UNL     1      -1.598  51.355 -26.384  1.00  0.00     0.108 C 
HETATM    6  C27 UNL     1      -2.181  49.958 -26.135  1.00  0.00     0.287 C 
BRANCH   5   7
HETATM    7  C1  UNL     1      -1.449  52.186 -25.112  1.00  0.00     0.228 C 
HETATM    8  O1  UNL     1      -2.367  52.872 -24.675  1.00  0.00    -0.273 OA
HETATM    9  N1  UNL     1      -0.224  51.988 -24.490  1.00  0.00    -0.327 N 
HETATM   10  H1  UNL     1       0.418  51.352 -24.946  1.00  0.00     0.169 HD
BRANCH   9  11
HETATM   11  C2  UNL     1       0.241  52.575 -23.293  1.00  0.00     0.036 A 
HETATM   12  C3  UNL     1       0.990  53.754 -23.238  1.00  0.00     0.032 A 
HETATM   13  C4  UNL     1       1.416  54.274 -22.011  1.00  0.00     0.040 A 
HETATM   14  C5  UNL     1       1.093  53.614 -20.832  1.00  0.00     0.087 A 
HETATM   15  C6  UNL     1       0.349  52.437 -20.872  1.00  0.00     0.069 A 
HETATM   16 CL1  UNL     1      -0.056  51.610 -19.414  1.00  0.00    -0.081 Cl
HETATM   17  C7  UNL     1      -0.077  51.917 -22.096  1.00  0.00     0.056 A 
BRANCH  14  18
HETATM   18  O2  UNL     1       1.532  54.161 -19.660  1.00  0.00    -0.359 OA
HETATM   19  H4  UNL     1       1.229  53.581 -18.938  1.00  0.00     0.217 HD
ENDBRANCH  14  18
ENDBRANCH   9  11
ENDBRANCH   5   7
ENDBRANCH   1   2
BRANCH   1  20
HETATM   20  C12 UNL     1      -5.114  48.050 -27.205  1.00  0.00     0.248 C 
HETATM   21  O3  UNL     1      -5.732  48.231 -26.155  1.00  0.00    -0.271 OA
HETATM   22  N3  UNL     1      -5.737  47.450 -28.307  1.00  0.00    -0.348 N 
HETATM   23  C13 UNL     1      -7.163  47.119 -28.187  1.00  0.00     0.145 C 
HETATM   24  C26 UNL     1      -5.329  47.695 -29.698  1.00  0.00     0.145 C 
HETATM   25  C14 UNL     1      -8.031  48.258 -28.763  1.00  0.00     0.143 C 
HETATM   26  N4  UNL     1      -7.634  48.553 -30.171  1.00  0.00    -0.378 N 
HETATM   27  C25 UNL     1      -6.185  48.824 -30.318  1.00  0.00     0.143 C 
BRANCH  26  28
HETATM   28  C15 UNL     1      -8.339  47.883 -31.173  1.00  0.00     0.030 A 
HETATM   29  C16 UNL     1      -7.899  47.946 -32.506  1.00  0.00     0.030 A 
HETATM   30  C17 UNL     1      -8.564  47.279 -33.545  1.00  0.00     0.015 A 
HETATM   31  C18 UNL     1      -9.694  46.501 -33.285  1.00  0.00    -0.019 A 
HETATM   32  C23 UNL     1     -10.137  46.413 -31.963  1.00  0.00     0.015 A 
HETATM   33  C24 UNL     1      -9.464  47.085 -30.929  1.00  0.00     0.030 A 
BRANCH  31  34
HETATM   34  C19 UNL     1     -10.388  45.816 -34.384  1.00  0.00     0.015 A 
HETATM   35  C20 UNL     1     -11.597  45.142 -34.352  1.00  0.00     0.020 A 
HETATM   36  C21 UNL     1     -11.967  44.612 -35.622  1.00  0.00     0.008 A 
HETATM   37  C22 UNL     1     -11.035  44.904 -36.591  1.00  0.00     0.050 A 
HETATM   38  S1  UNL     1      -9.726  45.810 -35.969  1.00  0.00    -0.101 SA
ENDBRANCH  31  34
ENDBRANCH  26  28
ENDBRANCH   1  20
TORSDOF 7
ENDMDL
MODEL 5
REMARK minimizedAffinity -8.97430229
REMARK CNNscore 0.351654023
REMARK CNNaffinity 7.32381821
REMARK  7 active torsions:
REMARK  status: ('A' for Active; 'I' for Inactive)
REMARK       I    between atoms: C1_2  and  N1_3 
REMARK    1  A    between atoms: C1_2  and  C8_12 
REMARK    2  A    between atoms: N1_3  and  C2_4 
REMARK    3  A    between atoms: C5_7  and  O2_8 
REMARK    4  A    between atoms: N2_15  and  C11_16 
REMARK    5  A    between atoms: C11_16  and  C12_17 
REMARK       I    between atoms: C12_17  and  N3_19 
REMARK    6  A    between atoms: N4_22  and  C15_23 
REMARK    7  A    between atoms: C18_26  and  C19_27 
ROOT
HETATM    1  C11 UNL     1      -6.012  48.073 -23.894  1.00  0.00     0.374 C 
ENDROOT
BRANCH   1   2
HETATM    2  N2  UNL     1      -5.228  48.735 -24.952  1.00  0.00     0.098 N 
HETATM    3  C10 UNL     1      -5.377  48.134 -26.274  1.00  0.00     0.274 C 
HETATM    4  C9  UNL     1      -4.223  48.770 -27.029  1.00  0.00     0.046 C 
HETATM    5  C8  UNL     1      -3.082  48.762 -26.016  1.00  0.00     0.108 C 
HETATM    6  C27 UNL     1      -3.786  48.733 -24.654  1.00  0.00     0.287 C 
BRANCH   5   7
HETATM    7  C1  UNL     1      -2.096  49.918 -26.166  1.00  0.00     0.228 C 
HETATM    8  O1  UNL     1      -1.684  50.280 -27.262  1.00  0.00    -0.273 OA
HETATM    9  N1  UNL     1      -1.822  50.541 -24.956  1.00  0.00    -0.327 N 
HETATM   10  H1  UNL     1      -2.276  50.158 -24.135  1.00  0.00     0.169 HD
BRANCH   9  11
HETATM   11  C2  UNL     1      -0.976  51.648 -24.727  1.00  0.00     0.036 A 
HETATM   12  C3  UNL     1      -0.701  52.633 -25.680  1.00  0.00     0.032 A 
HETATM   13  C4  UNL     1       0.150  53.702 -25.376  1.00  0.00     0.040 A 
HETATM   14  C5  UNL     1       0.730  53.788 -24.117  1.00  0.00     0.087 A 
HETATM   15  C6  UNL     1       0.465  52.812 -23.159  1.00  0.00     0.069 A 
HETATM   16 CL1  UNL     1       1.181  52.909 -21.593  1.00  0.00    -0.081 Cl
HETATM   17  C7  UNL     1      -0.384  51.745 -23.460  1.00  0.00     0.056 A 
BRANCH  14  18
HETATM   18  O2  UNL     1       1.553  54.850 -23.870  1.00  0.00    -0.359 OA
HETATM   19  H4  UNL     1       1.877  54.759 -22.955  1.00  0.00     0.217 HD
ENDBRANCH  14  18
ENDBRANCH   9  11
ENDBRANCH   5   7
ENDBRANCH   1   2
BRANCH   1  20
HETATM   20  C12 UNL     1      -6.270  48.966 -22.662  1.00  0.00     0.248 C 
HETATM   21  O3  UNL     1      -7.400  49.251 -22.260  1.00  0.00    -0.271 OA
HETATM   22  N3  UNL     1      -5.133  49.442 -21.997  1.00  0.00    -0.348 N 
HETATM   23  C13 UNL     1      -5.338  50.224 -20.771  1.00  0.00     0.145 C 
HETATM   24  C26 UNL     1      -3.837  48.749 -22.016  1.00  0.00     0.145 C 
HETATM   25  C14 UNL     1      -5.248  49.312 -19.529  1.00  0.00     0.143 C 
HETATM   26  N4  UNL     1      -3.953  48.571 -19.519  1.00  0.00    -0.378 N 
HETATM   27  C25 UNL     1      -3.701  47.831 -20.778  1.00  0.00     0.143 C 
BRANCH  26  28
HETATM   28  C15 UNL     1      -2.899  49.163 -18.818  1.00  0.00     0.030 A 
HETATM   29  C16 UNL     1      -3.121  49.705 -17.542  1.00  0.00     0.030 A 
HETATM   30  C17 UNL     1      -2.093  50.297 -16.793  1.00  0.00     0.015 A 
HETATM   31  C18 UNL     1      -0.789  50.352 -17.289  1.00  0.00    -0.019 A 
HETATM   32  C23 UNL     1      -0.546  49.803 -18.551  1.00  0.00     0.015 A 
HETATM   33  C24 UNL     1      -1.582  49.212 -19.293  1.00  0.00     0.030 A 
BRANCH  31  34
HETATM   34  C19 UNL     1       0.277  50.983 -16.500  1.00  0.00     0.015 A 
HETATM   35  C20 UNL     1       1.193  51.941 -16.899  1.00  0.00     0.020 A 
HETATM   36  C21 UNL     1       2.074  52.333 -15.850  1.00  0.00     0.008 A 
HETATM   37  C22 UNL     1       1.801  51.670 -14.676  1.00  0.00     0.050 A 
HETATM   38  S1  UNL     1       0.490  50.586 -14.843  1.00  0.00    -0.101 SA
ENDBRANCH  31  34
ENDBRANCH  26  28
ENDBRANCH   1  20
TORSDOF 7
ENDMDL
MODEL 6
REMARK minimizedAffinity -7.61993742
REMARK CNNscore 0.283945173
REMARK CNNaffinity 5.97629929
REMARK  7 active torsions:
REMARK  status: ('A' for Active; 'I' for Inactive)
REMARK       I    between atoms: C1_2  and  N1_3 
REMARK    1  A    between atoms: C1_2  and  C8_12 
REMARK    2  A    between atoms: N1_3  and  C2_4 
REMARK    3  A    between atoms: C5_7  and  O2_8 
REMARK    4  A    between atoms: N2_15  and  C11_16 
REMARK    5  A    between atoms: C11_16  and  C12_17 
REMARK       I    between atoms: C12_17  and  N3_19 
REMARK    6  A    between atoms: N4_22  and  C15_23 
REMARK    7  A    between atoms: C18_26  and  C19_27 
ROOT
HETATM    1  C11 UNL     1      -5.790  46.489 -20.006  1.00  0.00     0.374 C 
ENDROOT
BRANCH   1   2
HETATM    2  N2  UNL     1      -5.389  47.594 -20.895  1.00  0.00     0.098 N 
HETATM    3  C10 UNL     1      -5.533  47.302 -22.318  1.00  0.00     0.274 C 
HETATM    4  C9  UNL     1      -4.732  48.430 -22.943  1.00  0.00     0.046 C 
HETATM    5  C8  UNL     1      -3.512  48.553 -22.034  1.00  0.00     0.108 C 
HETATM    6  C27 UNL     1      -3.984  47.984 -20.690  1.00  0.00     0.287 C 
BRANCH   5   7
HETATM    7  C1  UNL     1      -2.941  49.965 -21.929  1.00  0.00     0.228 C 
HETATM    8  O1  UNL     1      -3.665  50.955 -21.892  1.00  0.00    -0.273 OA
HETATM    9  N1  UNL     1      -1.561  49.970 -21.785  1.00  0.00    -0.327 N 
HETATM   10  H1  UNL     1      -1.102  49.067 -21.786  1.00  0.00     0.169 HD
BRANCH   9  11
HETATM   11  C2  UNL     1      -0.712  51.088 -21.642  1.00  0.00     0.036 A 
HETATM   12  C3  UNL     1      -0.247  51.861 -22.711  1.00  0.00     0.032 A 
HETATM   13  C4  UNL     1       0.594  52.957 -22.487  1.00  0.00     0.040 A 
HETATM   14  C5  UNL     1       0.973  53.284 -21.192  1.00  0.00     0.087 A 
HETATM   15  C6  UNL     1       0.518  52.522 -20.118  1.00  0.00     0.069 A 
HETATM   16 CL1  UNL     1       0.985  52.920 -18.506  1.00  0.00    -0.081 Cl
HETATM   17  C7  UNL     1      -0.321  51.429 -20.339  1.00  0.00     0.056 A 
BRANCH  14  18
HETATM   18  O2  UNL     1       1.795  54.363 -21.027  1.00  0.00    -0.359 OA
HETATM   19  H4  UNL     1       1.967  54.452 -20.071  1.00  0.00     0.217 HD
ENDBRANCH  14  18
ENDBRANCH   9  11
ENDBRANCH   5   7
ENDBRANCH   1   2
BRANCH   1  20
HETATM   20  C12 UNL     1      -6.767  46.914 -18.889  1.00  0.00     0.248 C 
HETATM   21  O3  UNL     1      -6.413  47.521 -17.877  1.00  0.00    -0.271 OA
HETATM   22  N3  UNL     1      -8.112  46.580 -19.089  1.00  0.00    -0.348 N 
HETATM   23  C13 UNL     1      -9.085  47.042 -18.089  1.00  0.00     0.145 C 
HETATM   24  C26 UNL     1      -8.712  46.398 -20.419  1.00  0.00     0.145 C 
HETATM   25  C14 UNL     1      -9.718  48.378 -18.532  1.00  0.00     0.143 C 
HETATM   26  N4  UNL     1     -10.322  48.244 -19.890  1.00  0.00    -0.378 N 
HETATM   27  C25 UNL     1      -9.370  47.715 -20.895  1.00  0.00     0.143 C 
BRANCH  26  28
HETATM   28  C15 UNL     1     -11.675  47.903 -19.942  1.00  0.00     0.030 A 
HETATM   29  C16 UNL     1     -12.649  48.822 -19.519  1.00  0.00     0.030 A 
HETATM   30  C17 UNL     1     -14.020  48.533 -19.565  1.00  0.00     0.015 A 
HETATM   31  C18 UNL     1     -14.475  47.308 -20.058  1.00  0.00    -0.019 A 
HETATM   32  C23 UNL     1     -13.522  46.387 -20.500  1.00  0.00     0.015 A 
HETATM   33  C24 UNL     1     -12.150  46.687 -20.449  1.00  0.00     0.030 A 
BRANCH  31  34
HETATM   34  C19 UNL     1     -15.913  47.013 -20.092  1.00  0.00     0.015 A 
HETATM   35  C20 UNL     1     -16.878  47.319 -19.148  1.00  0.00     0.020 A 
HETATM   36  C21 UNL     1     -18.181  46.887 -19.530  1.00  0.00     0.008 A 
HETATM   37  C22 UNL     1     -18.177  46.270 -20.761  1.00  0.00     0.050 A 
HETATM   38  S1  UNL     1     -16.612  46.217 -21.445  1.00  0.00    -0.101 SA
ENDBRANCH  31  34
ENDBRANCH  26  28
ENDBRANCH   1  20
TORSDOF 7
ENDMDL
MODEL 7
REMARK minimizedAffinity -8.04531384
REMARK CNNscore 0.224374771
REMARK CNNaffinity 5.10163498
REMARK  7 active torsions:
REMARK  status: ('A' for Active; 'I' for Inactive)
REMARK       I    between atoms: C1_2  and  N1_3 
REMARK    1  A    between atoms: C1_2  and  C8_12 
REMARK    2  A    between atoms: N1_3  and  C2_4 
REMARK    3  A    between atoms: C5_7  and  O2_8 
REMARK    4  A    between atoms: N2_15  and  C11_16 
REMARK    5  A    between atoms: C11_16  and  C12_17 
REMARK       I    between atoms: C12_17  and  N3_19 
REMARK    6  A    between atoms: N4_22  and  C15_23 
REMARK    7  A    between atoms: C18_26  and  C19_27 
ROOT
HETATM    1  C11 UNL     1       5.563  65.645 -33.653  1.00  0.00     0.374 C 
ENDROOT
BRANCH   1   2
HETATM    2  N2  UNL     1       6.014  64.429 -34.352  1.00  0.00     0.098 N 
HETATM    3  C10 UNL     1       5.164  63.262 -34.135  1.00  0.00     0.274 C 
HETATM    4  C9  UNL     1       6.047  62.141 -34.652  1.00  0.00     0.046 C 
HETATM    5  C8  UNL     1       7.437  62.513 -34.142  1.00  0.00     0.108 C 
HETATM    6  C27 UNL     1       7.373  64.034 -33.949  1.00  0.00     0.287 C 
BRANCH   5   7
HETATM    7  C1  UNL     1       8.583  62.062 -35.044  1.00  0.00     0.228 C 
HETATM    8  O1  UNL     1       8.660  60.915 -35.469  1.00  0.00    -0.273 OA
HETATM    9  N1  UNL     1       9.431  63.107 -35.386  1.00  0.00    -0.327 N 
HETATM   10  H1  UNL     1       9.213  64.015 -34.994  1.00  0.00     0.169 HD
BRANCH   9  11
HETATM   11  C2  UNL     1      10.573  63.055 -36.214  1.00  0.00     0.036 A 
HETATM   12  C3  UNL     1      10.895  61.973 -37.038  1.00  0.00     0.032 A 
HETATM   13  C4  UNL     1      12.048  61.997 -37.831  1.00  0.00     0.040 A 
HETATM   14  C5  UNL     1      12.884  63.106 -37.801  1.00  0.00     0.087 A 
HETATM   15  C6  UNL     1      12.576  64.190 -36.983  1.00  0.00     0.069 A 
HETATM   16 CL1  UNL     1      13.609  65.571 -36.938  1.00  0.00    -0.081 Cl
HETATM   17  C7  UNL     1      11.427  64.168 -36.191  1.00  0.00     0.056 A 
BRANCH  14  18
HETATM   18  O2  UNL     1      13.997  63.081 -38.593  1.00  0.00    -0.359 OA
HETATM   19  H4  UNL     1      14.472  63.921 -38.452  1.00  0.00     0.217 HD
ENDBRANCH  14  18
ENDBRANCH   9  11
ENDBRANCH   5   7
ENDBRANCH   1   2
BRANCH   1  20
HETATM   20  C12 UNL     1       5.561  66.908 -34.541  1.00  0.00     0.248 C 
HETATM   21  O3  UNL     1       6.513  67.687 -34.607  1.00  0.00    -0.271 OA
HETATM   22  N3  UNL     1       4.403  67.127 -35.296  1.00  0.00    -0.348 N 
HETATM   23  C13 UNL     1       4.397  68.271 -36.218  1.00  0.00     0.145 C 
HETATM   24  C26 UNL     1       3.503  66.048 -35.729  1.00  0.00     0.145 C 
HETATM   25  C14 UNL     1       4.810  67.823 -37.635  1.00  0.00     0.143 C 
HETATM   26  N4  UNL     1       3.933  66.711 -38.107  1.00  0.00    -0.378 N 
HETATM   27  C25 UNL     1       3.876  65.577 -37.154  1.00  0.00     0.143 C 
BRANCH  26  28
HETATM   28  C15 UNL     1       2.807  67.074 -38.850  1.00  0.00     0.030 A 
HETATM   29  C16 UNL     1       2.959  67.651 -40.121  1.00  0.00     0.030 A 
HETATM   30  C17 UNL     1       1.861  68.019 -40.911  1.00  0.00     0.015 A 
HETATM   31  C18 UNL     1       0.556  67.805 -40.462  1.00  0.00    -0.019 A 
HETATM   32  C23 UNL     1       0.385  67.217 -39.207  1.00  0.00     0.015 A 
HETATM   33  C24 UNL     1       1.492  66.852 -38.423  1.00  0.00     0.030 A 
BRANCH  31  34
HETATM   34  C19 UNL     1      -0.587  68.204 -41.295  1.00  0.00     0.015 A 
HETATM   35  C20 UNL     1      -1.083  67.587 -42.430  1.00  0.00     0.020 A 
HETATM   36  C21 UNL     1      -2.222  68.254 -42.968  1.00  0.00     0.008 A 
HETATM   37  C22 UNL     1      -2.570  69.357 -42.222  1.00  0.00     0.050 A 
HETATM   38  S1  UNL     1      -1.528  69.582 -40.887  1.00  0.00    -0.101 SA
ENDBRANCH  31  34
ENDBRANCH  26  28
ENDBRANCH   1  20
TORSDOF 7
ENDMDL
MODEL 8
REMARK minimizedAffinity -8.53620911
REMARK CNNscore 0.211177751
REMARK CNNaffinity 5.46680307
REMARK  7 active torsions:
REMARK  status: ('A' for Active; 'I' for Inactive)
REMARK       I    between atoms: C1_2  and  N1_3 
REMARK    1  A    between atoms: C1_2  and  C8_12 
REMARK    2  A    between atoms: N1_3  and  C2_4 
REMARK    3  A    between atoms: C5_7  and  O2_8 
REMARK    4  A    between atoms: N2_15  and  C11_16 
REMARK    5  A    between atoms: C11_16  and  C12_17 
REMARK       I    between atoms: C12_17  and  N3_19 
REMARK    6  A    between atoms: N4_22  and  C15_23 
REMARK    7  A    between atoms: C18_26  and  C19_27 
ROOT
HETATM    1  C11 UNL     1      -9.365  45.768 -31.790  1.00  0.00     0.374 C 
ENDROOT
BRANCH   1   2
HETATM    2  N2  UNL     1     -10.079  46.041 -33.050  1.00  0.00     0.098 N 
HETATM    3  C10 UNL     1     -11.215  45.159 -33.299  1.00  0.00     0.274 C 
HETATM    4  C9  UNL     1     -11.497  45.433 -34.766  1.00  0.00     0.046 C 
HETATM    5  C8  UNL     1     -10.107  45.523 -35.389  1.00  0.00     0.108 C 
HETATM    6  C27 UNL     1      -9.195  45.922 -34.222  1.00  0.00     0.287 C 
BRANCH   5   7
HETATM    7  C1  UNL     1     -10.011  46.467 -36.585  1.00  0.00     0.228 C 
HETATM    8  O1  UNL     1     -11.006  46.971 -37.094  1.00  0.00    -0.273 OA
HETATM    9  N1  UNL     1      -8.697  46.745 -36.937  1.00  0.00    -0.327 N 
HETATM   10  H1  UNL     1      -7.976  46.289 -36.392  1.00  0.00     0.169 HD
BRANCH   9  11
HETATM   11  C2  UNL     1      -8.241  47.587 -37.974  1.00  0.00     0.036 A 
HETATM   12  C3  UNL     1      -7.208  48.518 -37.831  1.00  0.00     0.032 A 
HETATM   13  C4  UNL     1      -6.813  49.318 -38.909  1.00  0.00     0.040 A 
HETATM   14  C5  UNL     1      -7.451  49.189 -40.135  1.00  0.00     0.087 A 
HETATM   15  C6  UNL     1      -8.483  48.267 -40.292  1.00  0.00     0.069 A 
HETATM   16 CL1  UNL     1      -9.283  48.101 -41.810  1.00  0.00    -0.081 Cl
HETATM   17  C7  UNL     1      -8.879  47.468 -39.218  1.00  0.00     0.056 A 
BRANCH  14  18
HETATM   18  O2  UNL     1      -7.029  49.993 -41.156  1.00  0.00    -0.359 OA
HETATM   19  H4  UNL     1      -7.576  49.784 -41.935  1.00  0.00     0.217 HD
ENDBRANCH  14  18
ENDBRANCH   9  11
ENDBRANCH   5   7
ENDBRANCH   1   2
BRANCH   1  20
HETATM   20  C12 UNL     1      -9.536  46.874 -30.727  1.00  0.00     0.248 C 
HETATM   21  O3  UNL     1     -10.635  47.250 -30.316  1.00  0.00    -0.271 OA
HETATM   22  N3  UNL     1      -8.355  47.438 -30.230  1.00  0.00    -0.348 N 
HETATM   23  C13 UNL     1      -8.475  48.433 -29.155  1.00  0.00     0.145 C 
HETATM   24  C26 UNL     1      -7.070  46.726 -30.201  1.00  0.00     0.145 C 
HETATM   25  C14 UNL     1      -8.315  47.758 -27.777  1.00  0.00     0.143 C 
HETATM   26  N4  UNL     1      -7.029  47.004 -27.711  1.00  0.00    -0.378 N 
HETATM   27  C25 UNL     1      -6.865  46.044 -28.827  1.00  0.00     0.143 C 
BRANCH  26  28
HETATM   28  C15 UNL     1      -5.928  47.690 -27.194  1.00  0.00     0.030 A 
HETATM   29  C16 UNL     1      -4.911  48.138 -28.053  1.00  0.00     0.030 A 
HETATM   30  C17 UNL     1      -3.793  48.843 -27.584  1.00  0.00     0.015 A 
HETATM   31  C18 UNL     1      -3.658  49.145 -26.227  1.00  0.00    -0.019 A 
HETATM   32  C23 UNL     1      -4.667  48.721 -25.359  1.00  0.00     0.015 A 
HETATM   33  C24 UNL     1      -5.783  48.016 -25.839  1.00  0.00     0.030 A 
BRANCH  31  34
HETATM   34  C19 UNL     1      -2.477  49.875 -25.746  1.00  0.00     0.015 A 
HETATM   35  C20 UNL     1      -1.417  50.378 -26.481  1.00  0.00     0.020 A 
HETATM   36  C21 UNL     1      -0.453  51.047 -25.672  1.00  0.00     0.008 A 
HETATM   37  C22 UNL     1      -0.809  51.045 -24.343  1.00  0.00     0.050 A 
HETATM   38  S1  UNL     1      -2.294  50.242 -24.079  1.00  0.00    -0.101 SA
ENDBRANCH  31  34
ENDBRANCH  26  28
ENDBRANCH   1  20
TORSDOF 7
ENDMDL
MODEL 9
REMARK minimizedAffinity -8.08889675
REMARK CNNscore 0.210550949
REMARK CNNaffinity 6.19670486
REMARK  7 active torsions:
REMARK  status: ('A' for Active; 'I' for Inactive)
REMARK       I    between atoms: C1_2  and  N1_3 
REMARK    1  A    between atoms: C1_2  and  C8_12 
REMARK    2  A    between atoms: N1_3  and  C2_4 
REMARK    3  A    between atoms: C5_7  and  O2_8 
REMARK    4  A    between atoms: N2_15  and  C11_16 
REMARK    5  A    between atoms: C11_16  and  C12_17 
REMARK       I    between atoms: C12_17  and  N3_19 
REMARK    6  A    between atoms: N4_22  and  C15_23 
REMARK    7  A    between atoms: C18_26  and  C19_27 
ROOT
HETATM    1  C11 UNL     1      -2.644  50.432 -12.715  1.00  0.00     0.374 C 
ENDROOT
BRANCH   1   2
HETATM    2  N2  UNL     1      -2.711  51.442 -11.645  1.00  0.00     0.098 N 
HETATM    3  C10 UNL     1      -4.066  51.860 -11.299  1.00  0.00     0.274 C 
HETATM    4  C9  UNL     1      -3.799  53.108 -10.476  1.00  0.00     0.046 C 
HETATM    5  C8  UNL     1      -2.667  53.801 -11.230  1.00  0.00     0.108 C 
HETATM    6  C27 UNL     1      -1.974  52.667 -11.996  1.00  0.00     0.287 C 
BRANCH   5   7
HETATM    7  C1  UNL     1      -1.718  54.605 -10.345  1.00  0.00     0.228 C 
HETATM    8  O1  UNL     1      -2.120  55.255  -9.386  1.00  0.00    -0.273 OA
HETATM    9  N1  UNL     1      -0.387  54.426 -10.696  1.00  0.00    -0.327 N 
HETATM   10  H1  UNL     1      -0.203  53.819 -11.485  1.00  0.00     0.169 HD
BRANCH   9  11
HETATM   11  C2  UNL     1       0.751  54.997 -10.085  1.00  0.00     0.036 A 
HETATM   12  C3  UNL     1       0.806  55.393  -8.745  1.00  0.00     0.032 A 
HETATM   13  C4  UNL     1       1.973  55.952  -8.213  1.00  0.00     0.040 A 
HETATM   14  C5  UNL     1       3.090  56.117  -9.020  1.00  0.00     0.087 A 
HETATM   15  C6  UNL     1       3.049  55.729 -10.357  1.00  0.00     0.069 A 
HETATM   16 CL1  UNL     1       4.432  55.931 -11.368  1.00  0.00    -0.081 Cl
HETATM   17  C7  UNL     1       1.886  55.170 -10.890  1.00  0.00     0.056 A 
BRANCH  14  18
HETATM   18  O2  UNL     1       4.205  56.668  -8.453  1.00  0.00    -0.359 OA
HETATM   19  H4  UNL     1       4.888  56.719  -9.146  1.00  0.00     0.217 HD
ENDBRANCH  14  18
ENDBRANCH   9  11
ENDBRANCH   5   7
ENDBRANCH   1   2
BRANCH   1  20
HETATM   20  C12 UNL     1      -1.275  50.371 -13.427  1.00  0.00     0.248 C 
HETATM   21  O3  UNL     1      -0.250  49.956 -12.884  1.00  0.00    -0.271 OA
HETATM   22  N3  UNL     1      -1.253  50.810 -14.756  1.00  0.00    -0.348 N 
HETATM   23  C13 UNL     1       0.012  50.687 -15.493  1.00  0.00     0.145 C 
HETATM   24  C26 UNL     1      -2.427  50.774 -15.639  1.00  0.00     0.145 C 
HETATM   25  C14 UNL     1       0.040  49.371 -16.299  1.00  0.00     0.143 C 
HETATM   26  N4  UNL     1      -1.149  49.284 -17.196  1.00  0.00    -0.378 N 
HETATM   27  C25 UNL     1      -2.430  49.473 -16.476  1.00  0.00     0.143 C 
BRANCH  26  28
HETATM   28  C15 UNL     1      -0.987  49.761 -18.498  1.00  0.00     0.030 A 
HETATM   29  C16 UNL     1      -0.837  51.138 -18.730  1.00  0.00     0.030 A 
HETATM   30  C17 UNL     1      -0.658  51.664 -20.017  1.00  0.00     0.015 A 
HETATM   31  C18 UNL     1      -0.602  50.824 -21.130  1.00  0.00    -0.019 A 
HETATM   32  C23 UNL     1      -0.733  49.449 -20.918  1.00  0.00     0.015 A 
HETATM   33  C24 UNL     1      -0.913  48.931 -19.625  1.00  0.00     0.030 A 
BRANCH  31  34
HETATM   34  C19 UNL     1      -0.424  51.388 -22.475  1.00  0.00     0.015 A 
HETATM   35  C20 UNL     1      -1.010  50.986 -23.663  1.00  0.00     0.020 A 
HETATM   36  C21 UNL     1      -0.610  51.784 -24.774  1.00  0.00     0.008 A 
HETATM   37  C22 UNL     1       0.264  52.779 -24.402  1.00  0.00     0.050 A 
HETATM   38  S1  UNL     1       0.596  52.747 -22.725  1.00  0.00    -0.101 SA
ENDBRANCH  31  34
ENDBRANCH  26  28
ENDBRANCH   1  20
TORSDOF 7
ENDMDL
