MODEL 1
REMARK minimizedAffinity -9.68746662
REMARK CNNscore 0.565817893
REMARK CNNaffinity 7.07717562
REMARK  4 active torsions:
REMARK  status: ('A' for Active; 'I' for Inactive)
REMARK    1  A    between atoms: C2_2  and  N1_3 
REMARK    2  A    between atoms: C2_2  and  C17_26 
REMARK       I    between atoms: N1_3  and  C3_4 
REMARK       I    between atoms: C3_4  and  N2_6 
REMARK    3  A    between atoms: N2_6  and  C4_7 
REMARK    4  A    between atoms: C7_13  and  C8_14 
ROOT
HETATM    1  C8  UNL     1      -0.573  52.404 -24.675  1.00  0.00    -0.007 A 
HETATM    2  C9  UNL     1      -1.960  52.599 -24.751  1.00  0.00     0.015 A 
HETATM    3  C10 UNL     1      -2.719  51.924 -25.715  1.00  0.00     0.023 A 
HETATM    4  C11 UNL     1      -2.100  51.043 -26.609  1.00  0.00     0.044 A 
HETATM    5  C12 UNL     1      -2.879  50.352 -27.594  1.00  0.00     0.099 C 
HETATM    6  N5  UNL     1      -3.513  49.796 -28.392  1.00  0.00    -0.191 NA
HETATM    7  C13 UNL     1      -0.720  50.836 -26.532  1.00  0.00     0.023 A 
HETATM    8  C14 UNL     1       0.037  51.510 -25.568  1.00  0.00     0.015 A 
ENDROOT
BRANCH   1   9
HETATM    9  C7  UNL     1       0.233  53.102 -23.674  1.00  0.00     0.072 A 
HETATM   10  N4  UNL     1       1.069  54.090 -24.038  1.00  0.00    -0.299 N 
HETATM   11  N3  UNL     1       1.648  54.479 -22.892  1.00  0.00    -0.299 N 
ATOM     12  H4  UNL     1       1.228  54.461 -24.975  1.00  0.00     0.187 HD
HETATM   13  C6  UNL     1       1.209  53.805 -21.788  1.00  0.00     0.065 A 
HETATM   14  H8  UNL     1       2.337  55.221 -22.928  1.00  0.00     0.187 HD
HETATM   15  C5  UNL     1       1.542  53.915 -20.438  1.00  0.00     0.080 A 
HETATM   16  C15 UNL     1       0.270  52.898 -22.261  1.00  0.00     0.036 A 
HETATM   17  C4  UNL     1       0.858  53.056 -19.588  1.00  0.00     0.111 A 
HETATM   18  N6  UNL     1      -0.069  52.164 -20.012  1.00  0.00    -0.351 N 
HETATM   19  C16 UNL     1      -0.376  52.080 -21.332  1.00  0.00     0.105 A 
ATOM     20  H6  UNL     1      -0.535  51.555 -19.340  1.00  0.00     0.166 HD
BRANCH  17  21
HETATM   21  N2  UNL     1       1.059  53.014 -18.208  1.00  0.00    -0.295 N 
HETATM   22  C3  UNL     1       0.698  52.032 -17.325  1.00  0.00     0.322 C 
HETATM   23  N1  UNL     1       1.039  52.371 -16.036  1.00  0.00    -0.335 N 
HETATM   24  O1  UNL     1       0.153  50.972 -17.602  1.00  0.00    -0.247 OA
HETATM   25  H5  UNL     1       1.187  53.348 -15.835  1.00  0.00     0.165 HD
HETATM   26  H6  UNL     1       1.641  53.769 -17.882  1.00  0.00     0.172 HD
BRANCH  23  27
HETATM   27  C2  UNL     1       0.711  51.511 -14.910  1.00  0.00     0.115 C 
HETATM   28  C1  UNL     1       0.036  52.302 -13.783  1.00  0.00     0.037 C 
BRANCH  27  29
HETATM   29  C17 UNL     1       1.965  50.778 -14.469  1.00  0.00    -0.034 A 
HETATM   30  C18 UNL     1       3.254  51.303 -14.660  1.00  0.00     0.009 A 
HETATM   31  C19 UNL     1       4.386  50.585 -14.267  1.00  0.00     0.002 A 
HETATM   32  C20 UNL     1       4.249  49.325 -13.685  1.00  0.00     0.024 A 
HETATM   33  C21 UNL     1       2.978  48.786 -13.505  1.00  0.00     0.034 A 
HETATM   34 CL1  UNL     1       2.804  47.226 -12.799  1.00  0.00    -0.084 Cl
HETATM   35  C22 UNL     1       1.844  49.500 -13.896  1.00  0.00     0.033 A 
ENDBRANCH  27  29
ENDBRANCH  23  27
ENDBRANCH  17  21
ENDBRANCH   1   9
TORSDOF 4
ENDMDL
MODEL 2
REMARK minimizedAffinity -9.6054163
REMARK CNNscore 0.463569999
REMARK CNNaffinity 6.83931923
REMARK  4 active torsions:
REMARK  status: ('A' for Active; 'I' for Inactive)
REMARK    1  A    between atoms: C2_2  and  N1_3 
REMARK    2  A    between atoms: C2_2  and  C17_26 
REMARK       I    between atoms: N1_3  and  C3_4 
REMARK       I    between atoms: C3_4  and  N2_6 
REMARK    3  A    between atoms: N2_6  and  C4_7 
REMARK    4  A    between atoms: C7_13  and  C8_14 
ROOT
HETATM    1  C8  UNL     1      -0.578  52.443 -24.676  1.00  0.00    -0.007 A 
HETATM    2  C9  UNL     1      -1.960  52.657 -24.779  1.00  0.00     0.015 A 
HETATM    3  C10 UNL     1      -2.705  52.009 -25.772  1.00  0.00     0.023 A 
HETATM    4  C11 UNL     1      -2.078  51.136 -26.666  1.00  0.00     0.044 A 
HETATM    5  C12 UNL     1      -2.843  50.472 -27.681  1.00  0.00     0.099 C 
HETATM    6  N5  UNL     1      -3.465  49.938 -28.503  1.00  0.00    -0.191 NA
HETATM    7  C13 UNL     1      -0.702  50.909 -26.562  1.00  0.00     0.023 A 
HETATM    8  C14 UNL     1       0.040  51.556 -25.570  1.00  0.00     0.015 A 
ENDROOT
BRANCH   1   9
HETATM    9  C7  UNL     1       0.214  53.113 -23.644  1.00  0.00     0.072 A 
HETATM   10  N4  UNL     1       1.076  54.090 -23.972  1.00  0.00    -0.299 N 
HETATM   11  N3  UNL     1       1.631  54.453 -22.806  1.00  0.00    -0.299 N 
ATOM     12  H4  UNL     1       1.266  54.471 -24.899  1.00  0.00     0.187 HD
HETATM   13  C6  UNL     1       1.152  53.772 -21.724  1.00  0.00     0.065 A 
HETATM   14  H8  UNL     1       2.334  55.184 -22.814  1.00  0.00     0.187 HD
HETATM   15  C5  UNL     1       1.452  53.858 -20.364  1.00  0.00     0.080 A 
HETATM   16  C15 UNL     1       0.211  52.889 -22.233  1.00  0.00     0.036 A 
HETATM   17  C4  UNL     1       0.732  52.999 -19.544  1.00  0.00     0.111 A 
HETATM   18  N6  UNL     1      -0.199  52.130 -20.004  1.00  0.00    -0.351 N 
HETATM   19  C16 UNL     1      -0.474  52.070 -21.333  1.00  0.00     0.105 A 
ATOM     20  H6  UNL     1      -0.693  51.520 -19.353  1.00  0.00     0.166 HD
BRANCH  17  21
HETATM   21  N2  UNL     1       0.896  52.935 -18.160  1.00  0.00    -0.295 N 
HETATM   22  C3  UNL     1       0.711  51.862 -17.330  1.00  0.00     0.322 C 
HETATM   23  N1  UNL     1       0.940  52.203 -16.017  1.00  0.00    -0.335 N 
HETATM   24  O1  UNL     1       0.395  50.730 -17.669  1.00  0.00    -0.247 OA
HETATM   25  H5  UNL     1       0.886  53.179 -15.773  1.00  0.00     0.165 HD
HETATM   26  H6  UNL     1       1.307  53.774 -17.783  1.00  0.00     0.172 HD
BRANCH  23  27
HETATM   27  C2  UNL     1       0.755  51.245 -14.938  1.00  0.00     0.115 C 
HETATM   28  C1  UNL     1      -0.677  50.698 -14.917  1.00  0.00     0.037 C 
BRANCH  27  29
HETATM   29  C17 UNL     1       1.178  51.889 -13.630  1.00  0.00    -0.034 A 
HETATM   30  C18 UNL     1       2.460  51.715 -13.082  1.00  0.00     0.009 A 
HETATM   31  C19 UNL     1       2.802  52.301 -11.860  1.00  0.00     0.002 A 
HETATM   32  C20 UNL     1       1.866  53.061 -11.162  1.00  0.00     0.024 A 
HETATM   33  C21 UNL     1       0.587  53.228 -11.686  1.00  0.00     0.034 A 
HETATM   34 CL1  UNL     1      -0.576  54.156 -10.821  1.00  0.00    -0.084 Cl
HETATM   35  C22 UNL     1       0.240  52.646 -12.906  1.00  0.00     0.033 A 
ENDBRANCH  27  29
ENDBRANCH  23  27
ENDBRANCH  17  21
ENDBRANCH   1   9
TORSDOF 4
ENDMDL
MODEL 3
REMARK minimizedAffinity -9.1850481
REMARK CNNscore 0.420128524
REMARK CNNaffinity 6.96968889
REMARK  4 active torsions:
REMARK  status: ('A' for Active; 'I' for Inactive)
REMARK    1  A    between atoms: C2_2  and  N1_3 
REMARK    2  A    between atoms: C2_2  and  C17_26 
REMARK       I    between atoms: N1_3  and  C3_4 
REMARK       I    between atoms: C3_4  and  N2_6 
REMARK    3  A    between atoms: N2_6  and  C4_7 
REMARK    4  A    between atoms: C7_13  and  C8_14 
ROOT
HETATM    1  C8  UNL     1      -0.823  51.406 -23.953  1.00  0.00    -0.007 A 
HETATM    2  C9  UNL     1      -1.857  50.622 -23.421  1.00  0.00     0.015 A 
HETATM    3  C10 UNL     1      -2.600  49.773 -24.249  1.00  0.00     0.023 A 
HETATM    4  C11 UNL     1      -2.313  49.694 -25.616  1.00  0.00     0.044 A 
HETATM    5  C12 UNL     1      -3.075  48.822 -26.463  1.00  0.00     0.099 C 
HETATM    6  N5  UNL     1      -3.695  48.118 -27.145  1.00  0.00    -0.191 NA
HETATM    7  C13 UNL     1      -1.277  50.465 -26.151  1.00  0.00     0.023 A 
HETATM    8  C14 UNL     1      -0.535  51.312 -25.322  1.00  0.00     0.015 A 
ENDROOT
BRANCH   1   9
HETATM    9  C7  UNL     1      -0.037  52.299 -23.100  1.00  0.00     0.072 A 
HETATM   10  N4  UNL     1       0.681  53.300 -23.637  1.00  0.00    -0.299 N 
HETATM   11  N3  UNL     1       1.277  53.886 -22.588  1.00  0.00    -0.299 N 
ATOM     12  H4  UNL     1       0.756  53.556 -24.622  1.00  0.00     0.187 HD
HETATM   13  C6  UNL     1       0.961  53.327 -21.383  1.00  0.00     0.065 A 
HETATM   14  H8  UNL     1       1.889  54.675 -22.761  1.00  0.00     0.187 HD
HETATM   15  C5  UNL     1       1.350  53.643 -20.081  1.00  0.00     0.080 A 
HETATM   16  C15 UNL     1       0.090  52.287 -21.677  1.00  0.00     0.036 A 
HETATM   17  C4  UNL     1       0.795  52.846 -19.088  1.00  0.00     0.111 A 
HETATM   18  N6  UNL     1      -0.062  51.828 -19.337  1.00  0.00    -0.351 N 
HETATM   19  C16 UNL     1      -0.427  51.544 -20.614  1.00  0.00     0.105 A 
ATOM     20  H6  UNL     1      -0.433  51.274 -18.565  1.00  0.00     0.166 HD
BRANCH  17  21
HETATM   21  N2  UNL     1       1.069  53.005 -17.729  1.00  0.00    -0.295 N 
HETATM   22  C3  UNL     1       1.165  52.040 -16.763  1.00  0.00     0.322 C 
HETATM   23  N1  UNL     1       1.415  52.594 -15.528  1.00  0.00    -0.335 N 
HETATM   24  O1  UNL     1       1.061  50.832 -16.930  1.00  0.00    -0.247 OA
HETATM   25  H5  UNL     1       1.182  53.567 -15.399  1.00  0.00     0.165 HD
HETATM   26  H6  UNL     1       1.328  53.951 -17.497  1.00  0.00     0.172 HD
BRANCH  23  27
HETATM   27  C2  UNL     1       1.506  51.776 -14.330  1.00  0.00     0.115 C 
HETATM   28  C1  UNL     1       1.692  50.295 -14.679  1.00  0.00     0.037 C 
BRANCH  27  29
HETATM   29  C17 UNL     1       0.294  52.046 -13.456  1.00  0.00    -0.034 A 
HETATM   30  C18 UNL     1       0.317  52.968 -12.397  1.00  0.00     0.009 A 
HETATM   31  C19 UNL     1      -0.810  53.168 -11.596  1.00  0.00     0.002 A 
HETATM   32  C20 UNL     1      -1.976  52.441 -11.834  1.00  0.00     0.024 A 
HETATM   33  C21 UNL     1      -2.006  51.511 -12.870  1.00  0.00     0.034 A 
HETATM   34 CL1  UNL     1      -3.439  50.602 -13.159  1.00  0.00    -0.084 Cl
HETATM   35  C22 UNL     1      -0.883  51.309 -13.673  1.00  0.00     0.033 A 
ENDBRANCH  27  29
ENDBRANCH  23  27
ENDBRANCH  17  21
ENDBRANCH   1   9
TORSDOF 4
ENDMDL
MODEL 4
REMARK minimizedAffinity -8.02591419
REMARK CNNscore 0.393179029
REMARK CNNaffinity 6.61901617
REMARK  4 active torsions:
REMARK  status: ('A' for Active; 'I' for Inactive)
REMARK    1  A    between atoms: C2_2  and  N1_3 
REMARK    2  A    between atoms: C2_2  and  C17_26 
REMARK       I    between atoms: N1_3  and  C3_4 
REMARK       I    between atoms: C3_4  and  N2_6 
REMARK    3  A    between atoms: N2_6  and  C4_7 
REMARK    4  A    between atoms: C7_13  and  C8_14 
ROOT
HETATM    1  C8  UNL     1      -1.597  51.087 -22.894  1.00  0.00    -0.007 A 
HETATM    2  C9  UNL     1      -1.721  49.706 -22.684  1.00  0.00     0.015 A 
HETATM    3  C10 UNL     1      -2.677  48.965 -23.390  1.00  0.00     0.023 A 
HETATM    4  C11 UNL     1      -3.513  49.595 -24.317  1.00  0.00     0.044 A 
HETATM    5  C12 UNL     1      -4.489  48.834 -25.041  1.00  0.00     0.099 C 
HETATM    6  N5  UNL     1      -5.280  48.215 -25.622  1.00  0.00    -0.191 NA
HETATM    7  C13 UNL     1      -3.387  50.969 -24.540  1.00  0.00     0.023 A 
HETATM    8  C14 UNL     1      -2.432  51.708 -23.835  1.00  0.00     0.015 A 
ENDROOT
BRANCH   1   9
HETATM    9  C7  UNL     1      -0.604  51.876 -22.164  1.00  0.00     0.072 A 
HETATM   10  N4  UNL     1       0.222  52.709 -22.819  1.00  0.00    -0.299 N 
HETATM   11  N3  UNL     1       0.995  53.239 -21.859  1.00  0.00    -0.299 N 
ATOM     12  H4  UNL     1       0.254  52.897 -23.821  1.00  0.00     0.187 HD
HETATM   13  C6  UNL     1       0.694  52.807 -20.599  1.00  0.00     0.065 A 
HETATM   14  H8  UNL     1       1.713  53.902 -22.129  1.00  0.00     0.187 HD
HETATM   15  C5  UNL     1       1.240  53.119 -19.354  1.00  0.00     0.080 A 
HETATM   16  C15 UNL     1      -0.359  51.917 -20.757  1.00  0.00     0.036 A 
HETATM   17  C4  UNL     1       0.647  52.482 -18.271  1.00  0.00     0.111 A 
HETATM   18  N6  UNL     1      -0.385  51.614 -18.387  1.00  0.00    -0.351 N 
HETATM   19  C16 UNL     1      -0.900  51.330 -19.612  1.00  0.00     0.105 A 
ATOM     20  H6  UNL     1      -0.776  51.173 -17.554  1.00  0.00     0.166 HD
BRANCH  17  21
HETATM   21  N2  UNL     1       1.058  52.662 -16.950  1.00  0.00    -0.295 N 
HETATM   22  C3  UNL     1       0.694  51.948 -15.841  1.00  0.00     0.322 C 
HETATM   23  N1  UNL     1       1.287  52.452 -14.706  1.00  0.00    -0.335 N 
HETATM   24  O1  UNL     1      -0.050  50.977 -15.815  1.00  0.00    -0.247 OA
HETATM   25  H5  UNL     1       1.618  53.404 -14.738  1.00  0.00     0.165 HD
HETATM   26  H6  UNL     1       1.797  53.342 -16.868  1.00  0.00     0.172 HD
BRANCH  23  27
HETATM   27  C2  UNL     1       1.012  51.896 -13.391  1.00  0.00     0.115 C 
HETATM   28  C1  UNL     1       0.392  52.944 -12.460  1.00  0.00     0.037 C 
BRANCH  27  29
HETATM   29  C17 UNL     1       2.285  51.275 -12.844  1.00  0.00    -0.034 A 
HETATM   30  C18 UNL     1       3.087  50.405 -13.601  1.00  0.00     0.009 A 
HETATM   31  C19 UNL     1       4.237  49.830 -13.052  1.00  0.00     0.002 A 
HETATM   32  C20 UNL     1       4.597  50.107 -11.734  1.00  0.00     0.024 A 
HETATM   33  C21 UNL     1       3.802  50.955 -10.968  1.00  0.00     0.034 A 
HETATM   34 CL1  UNL     1       4.236  51.291  -9.336  1.00  0.00    -0.084 Cl
HETATM   35  C22 UNL     1       2.653  51.532 -11.511  1.00  0.00     0.033 A 
ENDBRANCH  27  29
ENDBRANCH  23  27
ENDBRANCH  17  21
ENDBRANCH   1   9
TORSDOF 4
ENDMDL
MODEL 5
REMARK minimizedAffinity -9.67887878
REMARK CNNscore 0.347250789
REMARK CNNaffinity 6.70551062
REMARK  4 active torsions:
REMARK  status: ('A' for Active; 'I' for Inactive)
REMARK    1  A    between atoms: C2_2  and  N1_3 
REMARK    2  A    between atoms: C2_2  and  C17_26 
REMARK       I    between atoms: N1_3  and  C3_4 
REMARK       I    between atoms: C3_4  and  N2_6 
REMARK    3  A    between atoms: N2_6  and  C4_7 
REMARK    4  A    between atoms: C7_13  and  C8_14 
ROOT
HETATM    1  C8  UNL     1      -0.539  52.440 -24.656  1.00  0.00    -0.007 A 
HETATM    2  C9  UNL     1       0.078  51.591 -25.586  1.00  0.00     0.015 A 
HETATM    3  C10 UNL     1      -0.680  50.953 -26.575  1.00  0.00     0.023 A 
HETATM    4  C11 UNL     1      -2.061  51.163 -26.649  1.00  0.00     0.044 A 
HETATM    5  C12 UNL     1      -2.835  50.510 -27.665  1.00  0.00     0.099 C 
HETATM    6  N5  UNL     1      -3.459  49.978 -28.486  1.00  0.00    -0.191 NA
HETATM    7  C13 UNL     1      -2.681  52.017 -25.733  1.00  0.00     0.023 A 
HETATM    8  C14 UNL     1      -1.923  52.654 -24.746  1.00  0.00     0.015 A 
ENDROOT
BRANCH   1   9
HETATM    9  C7  UNL     1       0.239  53.114 -23.616  1.00  0.00     0.072 A 
HETATM   10  N4  UNL     1       1.088  54.106 -23.933  1.00  0.00    -0.299 N 
HETATM   11  N3  UNL     1       1.633  54.468 -22.762  1.00  0.00    -0.299 N 
ATOM     12  H4  UNL     1       1.276  54.497 -24.856  1.00  0.00     0.187 HD
HETATM   13  C6  UNL     1       1.159  53.772 -21.687  1.00  0.00     0.065 A 
HETATM   14  H8  UNL     1       2.325  55.209 -22.761  1.00  0.00     0.187 HD
HETATM   15  C5  UNL     1       1.453  53.851 -20.326  1.00  0.00     0.080 A 
HETATM   16  C15 UNL     1       0.233  52.879 -22.207  1.00  0.00     0.036 A 
HETATM   17  C4  UNL     1       0.741  52.976 -19.515  1.00  0.00     0.111 A 
HETATM   18  N6  UNL     1      -0.175  52.096 -19.986  1.00  0.00    -0.351 N 
HETATM   19  C16 UNL     1      -0.443  52.042 -21.317  1.00  0.00     0.105 A 
ATOM     20  H6  UNL     1      -0.662  51.474 -19.342  1.00  0.00     0.166 HD
BRANCH  17  21
HETATM   21  N2  UNL     1       0.901  52.903 -18.131  1.00  0.00    -0.295 N 
HETATM   22  C3  UNL     1       0.735  51.819 -17.311  1.00  0.00     0.322 C 
HETATM   23  N1  UNL     1       0.951  52.153 -15.994  1.00  0.00    -0.335 N 
HETATM   24  O1  UNL     1       0.444  50.683 -17.661  1.00  0.00    -0.247 OA
HETATM   25  H5  UNL     1       0.875  53.127 -15.742  1.00  0.00     0.165 HD
HETATM   26  H6  UNL     1       1.292  53.747 -17.745  1.00  0.00     0.172 HD
BRANCH  23  27
HETATM   27  C2  UNL     1       0.782  51.183 -14.925  1.00  0.00     0.115 C 
HETATM   28  C1  UNL     1       1.018  49.753 -15.426  1.00  0.00     0.037 C 
BRANCH  27  29
HETATM   29  C17 UNL     1      -0.582  51.384 -14.288  1.00  0.00    -0.034 A 
HETATM   30  C18 UNL     1      -1.764  50.882 -14.859  1.00  0.00     0.009 A 
HETATM   31  C19 UNL     1      -3.004  51.113 -14.258  1.00  0.00     0.002 A 
HETATM   32  C20 UNL     1      -3.084  51.859 -13.083  1.00  0.00     0.024 A 
HETATM   33  C21 UNL     1      -1.923  52.376 -12.516  1.00  0.00     0.034 A 
HETATM   34 CL1  UNL     1      -2.019  53.308 -11.072  1.00  0.00    -0.084 Cl
HETATM   35  C22 UNL     1      -0.682  52.148 -13.112  1.00  0.00     0.033 A 
ENDBRANCH  27  29
ENDBRANCH  23  27
ENDBRANCH  17  21
ENDBRANCH   1   9
TORSDOF 4
ENDMDL
MODEL 6
REMARK minimizedAffinity -8.9756794
REMARK CNNscore 0.264178038
REMARK CNNaffinity 6.3597703
REMARK  4 active torsions:
REMARK  status: ('A' for Active; 'I' for Inactive)
REMARK    1  A    between atoms: C2_2  and  N1_3 
REMARK    2  A    between atoms: C2_2  and  C17_26 
REMARK       I    between atoms: N1_3  and  C3_4 
REMARK       I    between atoms: C3_4  and  N2_6 
REMARK    3  A    between atoms: N2_6  and  C4_7 
REMARK    4  A    between atoms: C7_13  and  C8_14 
ROOT
HETATM    1  C8  UNL     1       0.101  52.428 -22.647  1.00  0.00    -0.007 A 
HETATM    2  C9  UNL     1       0.621  53.110 -23.756  1.00  0.00     0.015 A 
HETATM    3  C10 UNL     1       0.234  52.752 -25.053  1.00  0.00     0.023 A 
HETATM    4  C11 UNL     1      -0.680  51.713 -25.254  1.00  0.00     0.044 A 
HETATM    5  C12 UNL     1      -1.076  51.348 -26.584  1.00  0.00     0.099 C 
HETATM    6  N5  UNL     1      -1.392  51.055 -27.661  1.00  0.00    -0.191 NA
HETATM    7  C13 UNL     1      -1.211  51.036 -24.153  1.00  0.00     0.023 A 
HETATM    8  C14 UNL     1      -0.825  51.395 -22.858  1.00  0.00     0.015 A 
ENDROOT
BRANCH   1   9
HETATM    9  C7  UNL     1       0.495  52.790 -21.285  1.00  0.00     0.072 A 
HETATM   10  N4  UNL     1       1.222  53.897 -21.056  1.00  0.00    -0.299 N 
HETATM   11  N3  UNL     1       1.413  53.904 -19.728  1.00  0.00    -0.299 N 
ATOM     12  H4  UNL     1       1.555  54.578 -21.739  1.00  0.00     0.187 HD
HETATM   13  C6  UNL     1       0.821  52.863 -19.074  1.00  0.00     0.065 A 
HETATM   14  H8  UNL     1       1.956  54.659 -19.324  1.00  0.00     0.187 HD
HETATM   15  C5  UNL     1       0.771  52.522 -17.722  1.00  0.00     0.080 A 
HETATM   16  C15 UNL     1       0.198  52.114 -20.063  1.00  0.00     0.036 A 
HETATM   17  C4  UNL     1       0.041  51.377 -17.427  1.00  0.00     0.111 A 
HETATM   18  N6  UNL     1      -0.584  50.626 -18.364  1.00  0.00    -0.351 N 
HETATM   19  C16 UNL     1      -0.522  50.983 -19.673  1.00  0.00     0.105 A 
ATOM     20  H6  UNL     1      -1.102  49.792 -18.086  1.00  0.00     0.166 HD
BRANCH  17  21
HETATM   21  N2  UNL     1      -0.117  50.875 -16.135  1.00  0.00    -0.295 N 
HETATM   22  C3  UNL     1       0.234  51.458 -14.947  1.00  0.00     0.322 C 
HETATM   23  N1  UNL     1      -0.053  50.633 -13.883  1.00  0.00    -0.335 N 
HETATM   24  O1  UNL     1       0.731  52.566 -14.801  1.00  0.00    -0.247 OA
HETATM   25  H5  UNL     1      -0.158  49.649 -14.073  1.00  0.00     0.165 HD
HETATM   26  H6  UNL     1      -0.660  50.027 -16.117  1.00  0.00     0.172 HD
BRANCH  23  27
HETATM   27  C2  UNL     1       0.279  51.007 -12.518  1.00  0.00     0.115 C 
HETATM   28  C1  UNL     1       0.718  49.790 -11.696  1.00  0.00     0.037 C 
BRANCH  27  29
HETATM   29  C17 UNL     1      -0.897  51.755 -11.913  1.00  0.00    -0.034 A 
HETATM   30  C18 UNL     1      -2.192  51.213 -11.865  1.00  0.00     0.009 A 
HETATM   31  C19 UNL     1      -3.255  51.944 -11.327  1.00  0.00     0.002 A 
HETATM   32  C20 UNL     1      -3.042  53.232 -10.838  1.00  0.00     0.024 A 
HETATM   33  C21 UNL     1      -1.766  53.786 -10.894  1.00  0.00     0.034 A 
HETATM   34 CL1  UNL     1      -1.501  55.381 -10.302  1.00  0.00    -0.084 Cl
HETATM   35  C22 UNL     1      -0.702  53.061 -11.430  1.00  0.00     0.033 A 
ENDBRANCH  27  29
ENDBRANCH  23  27
ENDBRANCH  17  21
ENDBRANCH   1   9
TORSDOF 4
ENDMDL
MODEL 7
REMARK minimizedAffinity -8.81166267
REMARK CNNscore 0.236841947
REMARK CNNaffinity 6.16515779
REMARK  4 active torsions:
REMARK  status: ('A' for Active; 'I' for Inactive)
REMARK    1  A    between atoms: C2_2  and  N1_3 
REMARK    2  A    between atoms: C2_2  and  C17_26 
REMARK       I    between atoms: N1_3  and  C3_4 
REMARK       I    between atoms: C3_4  and  N2_6 
REMARK    3  A    between atoms: N2_6  and  C4_7 
REMARK    4  A    between atoms: C7_13  and  C8_14 
ROOT
HETATM    1  C8  UNL     1      -0.220  51.849 -21.508  1.00  0.00    -0.007 A 
HETATM    2  C9  UNL     1      -1.086  51.428 -22.528  1.00  0.00     0.015 A 
HETATM    3  C10 UNL     1      -1.016  52.006 -23.801  1.00  0.00     0.023 A 
HETATM    4  C11 UNL     1      -0.076  53.006 -24.070  1.00  0.00     0.044 A 
HETATM    5  C12 UNL     1      -0.005  53.596 -25.375  1.00  0.00     0.099 C 
HETATM    6  N5  UNL     1       0.047  54.073 -26.431  1.00  0.00    -0.191 NA
HETATM    7  C13 UNL     1       0.797  53.423 -23.061  1.00  0.00     0.023 A 
HETATM    8  C14 UNL     1       0.727  52.844 -21.790  1.00  0.00     0.015 A 
ENDROOT
BRANCH   1   9
HETATM    9  C7  UNL     1      -0.281  51.254 -20.173  1.00  0.00     0.072 A 
HETATM   10  N4  UNL     1      -0.939  50.101 -19.968  1.00  0.00    -0.299 N 
HETATM   11  N3  UNL     1      -0.808  49.869 -18.653  1.00  0.00    -0.299 N 
ATOM     12  H4  UNL     1      -1.428  49.529 -20.657  1.00  0.00     0.187 HD
HETATM   13  C6  UNL     1      -0.071  50.809 -17.991  1.00  0.00     0.065 A 
HETATM   14  H8  UNL     1      -1.244  49.040 -18.265  1.00  0.00     0.187 HD
HETATM   15  C5  UNL     1       0.300  50.925 -16.652  1.00  0.00     0.080 A 
HETATM   16  C15 UNL     1       0.302  51.731 -18.959  1.00  0.00     0.036 A 
HETATM   17  C4  UNL     1       1.085  52.030 -16.349  1.00  0.00     0.111 A 
HETATM   18  N6  UNL     1       1.474  52.946 -17.267  1.00  0.00    -0.351 N 
HETATM   19  C16 UNL     1       1.100  52.807 -18.566  1.00  0.00     0.105 A 
ATOM     20  H6  UNL     1       2.047  53.741 -16.983  1.00  0.00     0.166 HD
BRANCH  17  21
HETATM   21  N2  UNL     1       1.549  52.318 -15.065  1.00  0.00    -0.295 N 
HETATM   22  C3  UNL     1       0.861  52.277 -13.883  1.00  0.00     0.322 C 
HETATM   23  N1  UNL     1       1.657  52.665 -12.829  1.00  0.00    -0.335 N 
HETATM   24  O1  UNL     1      -0.305  51.937 -13.733  1.00  0.00    -0.247 OA
HETATM   25  H5  UNL     1       2.473  53.216 -13.041  1.00  0.00     0.165 HD
HETATM   26  H6  UNL     1       2.546  52.464 -15.041  1.00  0.00     0.172 HD
BRANCH  23  27
HETATM   27  C2  UNL     1       1.136  52.755 -11.474  1.00  0.00     0.115 C 
HETATM   28  C1  UNL     1       0.248  53.993 -11.300  1.00  0.00     0.037 C 
BRANCH  27  29
HETATM   29  C17 UNL     1       2.296  52.699 -10.496  1.00  0.00    -0.034 A 
HETATM   30  C18 UNL     1       2.387  51.725  -9.488  1.00  0.00     0.009 A 
HETATM   31  C19 UNL     1       3.455  51.723  -8.588  1.00  0.00     0.002 A 
HETATM   32  C20 UNL     1       4.446  52.700  -8.674  1.00  0.00     0.024 A 
HETATM   33  C21 UNL     1       4.359  53.681  -9.659  1.00  0.00     0.034 A 
HETATM   34 CL1  UNL     1       5.573  54.897  -9.762  1.00  0.00    -0.084 Cl
HETATM   35  C22 UNL     1       3.294  53.687 -10.560  1.00  0.00     0.033 A 
ENDBRANCH  27  29
ENDBRANCH  23  27
ENDBRANCH  17  21
ENDBRANCH   1   9
TORSDOF 4
ENDMDL
MODEL 8
REMARK minimizedAffinity -9.42433453
REMARK CNNscore 0.232566506
REMARK CNNaffinity 6.38496208
REMARK  4 active torsions:
REMARK  status: ('A' for Active; 'I' for Inactive)
REMARK    1  A    between atoms: C2_2  and  N1_3 
REMARK    2  A    between atoms: C2_2  and  C17_26 
REMARK       I    between atoms: N1_3  and  C3_4 
REMARK       I    between atoms: C3_4  and  N2_6 
REMARK    3  A    between atoms: N2_6  and  C4_7 
REMARK    4  A    between atoms: C7_13  and  C8_14 
ROOT
HETATM    1  C8  UNL     1      -0.029  51.619 -20.906  1.00  0.00    -0.007 A 
HETATM    2  C9  UNL     1      -0.739  51.047 -21.971  1.00  0.00     0.015 A 
HETATM    3  C10 UNL     1      -0.645  51.588 -23.259  1.00  0.00     0.023 A 
HETATM    4  C11 UNL     1       0.166  52.703 -23.496  1.00  0.00     0.044 A 
HETATM    5  C12 UNL     1       0.263  53.255 -24.816  1.00  0.00     0.099 C 
HETATM    6  N5  UNL     1       0.337  53.700 -25.885  1.00  0.00    -0.191 NA
HETATM    7  C13 UNL     1       0.885  53.273 -22.442  1.00  0.00     0.023 A 
HETATM    8  C14 UNL     1       0.790  52.730 -21.156  1.00  0.00     0.015 A 
ENDROOT
BRANCH   1   9
HETATM    9  C7  UNL     1      -0.118  51.065 -19.555  1.00  0.00     0.072 A 
HETATM   10  N4  UNL     1      -0.733  49.890 -19.337  1.00  0.00    -0.299 N 
HETATM   11  N3  UNL     1      -0.646  49.706 -18.012  1.00  0.00    -0.299 N 
ATOM     12  H4  UNL     1      -1.168  49.276 -20.026  1.00  0.00     0.187 HD
HETATM   13  C6  UNL     1       0.022  50.699 -17.353  1.00  0.00     0.065 A 
HETATM   14  H8  UNL     1      -1.060  48.871 -17.613  1.00  0.00     0.187 HD
HETATM   15  C5  UNL     1       0.334  50.873 -16.005  1.00  0.00     0.080 A 
HETATM   16  C15 UNL     1       0.394  51.606 -18.336  1.00  0.00     0.036 A 
HETATM   17  C4  UNL     1       1.057  52.021 -15.708  1.00  0.00     0.111 A 
HETATM   18  N6  UNL     1       1.443  52.925 -16.641  1.00  0.00    -0.351 N 
HETATM   19  C16 UNL     1       1.128  52.728 -17.948  1.00  0.00     0.105 A 
ATOM     20  H6  UNL     1       1.969  53.753 -16.362  1.00  0.00     0.166 HD
BRANCH  17  21
HETATM   21  N2  UNL     1       1.456  52.371 -14.418  1.00  0.00    -0.295 N 
HETATM   22  C3  UNL     1       0.673  52.604 -13.320  1.00  0.00     0.322 C 
HETATM   23  N1  UNL     1       1.435  52.959 -12.230  1.00  0.00    -0.335 N 
HETATM   24  O1  UNL     1      -0.546  52.510 -13.264  1.00  0.00    -0.247 OA
HETATM   25  H5  UNL     1       2.361  53.318 -12.408  1.00  0.00     0.165 HD
HETATM   26  H6  UNL     1       2.456  52.328 -14.301  1.00  0.00     0.172 HD
BRANCH  23  27
HETATM   27  C2  UNL     1       0.827  53.310 -10.957  1.00  0.00     0.115 C 
HETATM   28  C1  UNL     1      -0.639  53.720 -11.133  1.00  0.00     0.037 C 
BRANCH  27  29
HETATM   29  C17 UNL     1       1.677  54.372 -10.282  1.00  0.00    -0.034 A 
HETATM   30  C18 UNL     1       2.996  54.649 -10.679  1.00  0.00     0.009 A 
HETATM   31  C19 UNL     1       3.757  55.614 -10.013  1.00  0.00     0.002 A 
HETATM   32  C20 UNL     1       3.215  56.310  -8.934  1.00  0.00     0.024 A 
HETATM   33  C21 UNL     1       1.915  56.033  -8.520  1.00  0.00     0.034 A 
HETATM   34 CL1  UNL     1       1.247  56.881  -7.179  1.00  0.00    -0.084 Cl
HETATM   35  C22 UNL     1       1.151  55.071  -9.181  1.00  0.00     0.033 A 
ENDBRANCH  27  29
ENDBRANCH  23  27
ENDBRANCH  17  21
ENDBRANCH   1   9
TORSDOF 4
ENDMDL
MODEL 9
REMARK minimizedAffinity -8.06356621
REMARK CNNscore 0.222383872
REMARK CNNaffinity 6.29730606
REMARK  4 active torsions:
REMARK  status: ('A' for Active; 'I' for Inactive)
REMARK    1  A    between atoms: C2_2  and  N1_3 
REMARK    2  A    between atoms: C2_2  and  C17_26 
REMARK       I    between atoms: N1_3  and  C3_4 
REMARK       I    between atoms: C3_4  and  N2_6 
REMARK    3  A    between atoms: N2_6  and  C4_7 
REMARK    4  A    between atoms: C7_13  and  C8_14 
ROOT
HETATM    1  C8  UNL     1       0.111  52.454 -22.453  1.00  0.00    -0.007 A 
HETATM    2  C9  UNL     1      -0.843  51.472 -22.758  1.00  0.00     0.015 A 
HETATM    3  C10 UNL     1      -1.159  51.180 -24.091  1.00  0.00     0.023 A 
HETATM    4  C11 UNL     1      -0.520  51.863 -25.132  1.00  0.00     0.044 A 
HETATM    5  C12 UNL     1      -0.844  51.561 -26.496  1.00  0.00     0.099 C 
HETATM    6  N5  UNL     1      -1.111  51.317 -27.598  1.00  0.00    -0.191 NA
HETATM    7  C13 UNL     1       0.439  52.835 -24.835  1.00  0.00     0.023 A 
HETATM    8  C14 UNL     1       0.754  53.125 -23.504  1.00  0.00     0.015 A 
ENDROOT
BRANCH   1   9
HETATM    9  C7  UNL     1       0.452  52.770 -21.066  1.00  0.00     0.072 A 
HETATM   10  N4  UNL     1       1.049  53.934 -20.758  1.00  0.00    -0.299 N 
HETATM   11  N3  UNL     1       1.227  53.878 -19.429  1.00  0.00    -0.299 N 
ATOM     12  H4  UNL     1       1.308  54.690 -21.391  1.00  0.00     0.187 HD
HETATM   13  C6  UNL     1       0.750  52.737 -18.850  1.00  0.00     0.065 A 
HETATM   14  H8  UNL     1       1.680  54.661 -18.971  1.00  0.00     0.187 HD
HETATM   15  C5  UNL     1       0.729  52.307 -17.523  1.00  0.00     0.080 A 
HETATM   16  C15 UNL     1       0.223  51.988 -19.893  1.00  0.00     0.036 A 
HETATM   17  C4  UNL     1       0.130  51.072 -17.310  1.00  0.00     0.111 A 
HETATM   18  N6  UNL     1      -0.400  50.317 -18.302  1.00  0.00    -0.351 N 
HETATM   19  C16 UNL     1      -0.369  50.762 -19.585  1.00  0.00     0.105 A 
ATOM     20  H6  UNL     1      -0.823  49.415 -18.085  1.00  0.00     0.166 HD
BRANCH  17  21
HETATM   21  N2  UNL     1       0.019  50.474 -16.055  1.00  0.00    -0.295 N 
HETATM   22  C3  UNL     1       0.047  51.071 -14.823  1.00  0.00     0.322 C 
HETATM   23  N1  UNL     1      -0.059  50.139 -13.816  1.00  0.00    -0.335 N 
HETATM   24  O1  UNL     1       0.140  52.270 -14.600  1.00  0.00    -0.247 OA
HETATM   25  H5  UNL     1       0.179  49.185 -14.038  1.00  0.00     0.165 HD
HETATM   26  H6  UNL     1      -0.218  49.497 -16.115  1.00  0.00     0.172 HD
BRANCH  23  27
HETATM   27  C2  UNL     1      -0.000  50.523 -12.415  1.00  0.00     0.115 C 
HETATM   28  C1  UNL     1      -0.798  51.806 -12.153  1.00  0.00     0.037 C 
BRANCH  27  29
HETATM   29  C17 UNL     1       1.455  50.616 -11.990  1.00  0.00    -0.034 A 
HETATM   30  C18 UNL     1       2.338  49.527 -12.078  1.00  0.00     0.009 A 
HETATM   31  C19 UNL     1       3.663  49.644 -11.650  1.00  0.00     0.002 A 
HETATM   32  C20 UNL     1       4.124  50.848 -11.118  1.00  0.00     0.024 A 
HETATM   33  C21 UNL     1       3.254  51.929 -11.011  1.00  0.00     0.034 A 
HETATM   34 CL1  UNL     1       3.816  53.414 -10.344  1.00  0.00    -0.084 Cl
HETATM   35  C22 UNL     1       1.930  51.818 -11.437  1.00  0.00     0.033 A 
ENDBRANCH  27  29
ENDBRANCH  23  27
ENDBRANCH  17  21
ENDBRANCH   1   9
TORSDOF 4
ENDMDL
