MODEL 1
REMARK minimizedAffinity -8.4600544
REMARK  7 active torsions:
REMARK  status: ('A' for Active; 'I' for Inactive)
REMARK    1  A    between atoms: C2_2  and  C3_3 
REMARK       I    between atoms: C3_3  and  N1_5 
REMARK    2  A    between atoms: N1_5  and  C4_6 
REMARK    3  A    between atoms: C9_11  and  N2_12 
REMARK    4  A    between atoms: N2_12  and  C10_13 
REMARK    5  A    between atoms: C11_16  and  N4_17 
REMARK    6  A    between atoms: N4_17  and  C12_18 
REMARK    7  A    between atoms: C18_27  and  C19_28 
ROOT
HETATM    1  C10 UNL     1      -2.297  50.489 -25.752  1.00  0.00     0.103 A 
HETATM    2  N3  UNL     1      -2.668  49.899 -26.909  1.00  0.00    -0.322 N 
ATOM      3  H3  UNL     1      -2.399  50.298 -27.808  1.00  0.00     0.169 HD
HETATM    4  C11 UNL     1      -3.398  48.778 -26.848  1.00  0.00     0.158 A 
HETATM    5  N5  UNL     1      -3.782  48.212 -25.702  1.00  0.00    -0.342 N 
ATOM      6  H5  UNL     1      -4.331  47.353 -25.691  1.00  0.00     0.167 HD
HETATM    7  C17 UNL     1      -3.410  48.824 -24.565  1.00  0.00     0.110 A 
HETATM    8  C18 UNL     1      -2.649  49.970 -24.524  1.00  0.00     0.101 A 
ENDROOT
BRANCH   1   9
HETATM    9  N2  UNL     1      -1.560  51.688 -25.881  1.00  0.00    -0.243 NA
HETATM   10  H9  UNL     1      -2.146  52.398 -26.319  1.00  0.00     0.135 HD
BRANCH   9  11
HETATM   11  C9  UNL     1      -0.248  51.738 -26.448  1.00  0.00     0.041 A 
HETATM   12  C4  UNL     1       0.926  51.871 -25.664  1.00  0.00     0.056 A 
HETATM   13  C5  UNL     1       2.175  51.853 -26.297  1.00  0.00     0.031 A 
HETATM   14  C6  UNL     1       2.273  51.731 -27.685  1.00  0.00     0.002 A 
HETATM   15  C7  UNL     1       1.125  51.637 -28.461  1.00  0.00     0.002 A 
HETATM   16  C8  UNL     1      -0.127  51.647 -27.849  1.00  0.00     0.026 A 
BRANCH  12  17
HETATM   17  N1  UNL     1       0.788  52.086 -24.273  1.00  0.00    -0.322 N 
HETATM   18  C3  UNL     1       0.832  53.277 -23.592  1.00  0.00     0.244 C 
HETATM   19  O1  UNL     1       1.125  54.382 -24.034  1.00  0.00    -0.268 OA
HETATM   20  H4  UNL     1       0.680  51.238 -23.720  1.00  0.00     0.169 HD
BRANCH  18  21
HETATM   21  C2  UNL     1       0.545  53.154 -22.137  1.00  0.00     0.064 C 
HETATM   22  C1  UNL     1       1.321  53.663 -21.170  1.00  0.00     0.017 C 
ENDBRANCH  18  21
ENDBRANCH  12  17
ENDBRANCH   9  11
ENDBRANCH   1   9
BRANCH   8  23
HETATM   23  C19 UNL     1      -2.277  50.582 -23.227  1.00  0.00     0.421 C 
HETATM   24  F1  UNL     1      -2.349  51.938 -23.227  1.00  0.00    -0.166 F 
HETATM   25  F2  UNL     1      -1.005  50.269 -22.839  1.00  0.00    -0.166 F 
HETATM   26  F3  UNL     1      -3.072  50.171 -22.198  1.00  0.00    -0.166 F 
ENDBRANCH   8  23
BRANCH   4  27
HETATM   27  N4  UNL     1      -3.745  48.223 -28.062  1.00  0.00    -0.259 NA
HETATM   28  H10 UNL     1      -3.433  47.259 -28.065  1.00  0.00     0.131 HD
BRANCH  27  29
HETATM   29  C12 UNL     1      -5.088  48.469 -28.571  1.00  0.00     0.067 C 
HETATM   30  C13 UNL     1      -6.123  47.598 -27.853  1.00  0.00     0.046 C 
HETATM   31  C14 UNL     1      -7.483  47.746 -28.521  1.00  0.00     0.169 C 
HETATM   32  O2  UNL     1      -7.400  47.414 -29.906  1.00  0.00    -0.391 OA
HETATM   33  C15 UNL     1      -6.517  48.280 -30.618  1.00  0.00     0.169 C 
HETATM   34  C16 UNL     1      -5.102  48.163 -30.072  1.00  0.00     0.046 C 
ENDBRANCH  27  29
ENDBRANCH   4  27
TORSDOF 7
ENDMDL
MODEL 2
REMARK minimizedAffinity -8.28411293
REMARK  7 active torsions:
REMARK  status: ('A' for Active; 'I' for Inactive)
REMARK    1  A    between atoms: C2_2  and  C3_3 
REMARK       I    between atoms: C3_3  and  N1_5 
REMARK    2  A    between atoms: N1_5  and  C4_6 
REMARK    3  A    between atoms: C9_11  and  N2_12 
REMARK    4  A    between atoms: N2_12  and  C10_13 
REMARK    5  A    between atoms: C11_16  and  N4_17 
REMARK    6  A    between atoms: N4_17  and  C12_18 
REMARK    7  A    between atoms: C18_27  and  C19_28 
ROOT
HETATM    1  C10 UNL     1      -0.297  51.987 -21.783  1.00  0.00     0.103 A 
HETATM    2  N3  UNL     1      -0.001  52.389 -23.038  1.00  0.00    -0.322 N 
ATOM      3  H3  UNL     1      -0.378  51.896 -23.846  1.00  0.00     0.169 HD
HETATM    4  C11 UNL     1       0.800  53.450 -23.195  1.00  0.00     0.158 A 
HETATM    5  N5  UNL     1       1.326  54.133 -22.177  1.00  0.00    -0.342 N 
ATOM      6  H5  UNL     1       1.926  54.942 -22.332  1.00  0.00     0.167 HD
HETATM    7  C17 UNL     1       1.027  53.706 -20.938  1.00  0.00     0.110 A 
HETATM    8  C18 UNL     1       0.203  52.636 -20.673  1.00  0.00     0.101 A 
ENDROOT
BRANCH   1   9
HETATM    9  N2  UNL     1      -1.115  50.840 -21.681  1.00  0.00    -0.243 NA
HETATM   10  H9  UNL     1      -0.642  50.136 -21.116  1.00  0.00     0.135 HD
BRANCH   9  11
HETATM   11  C9  UNL     1      -1.720  50.211 -22.815  1.00  0.00     0.041 A 
HETATM   12  C4  UNL     1      -2.595  49.101 -22.705  1.00  0.00     0.056 A 
HETATM   13  C5  UNL     1      -3.190  48.584 -23.862  1.00  0.00     0.031 A 
HETATM   14  C6  UNL     1      -2.912  49.133 -25.117  1.00  0.00     0.002 A 
HETATM   15  C7  UNL     1      -2.028  50.197 -25.234  1.00  0.00     0.002 A 
HETATM   16  C8  UNL     1      -1.430  50.730 -24.092  1.00  0.00     0.026 A 
BRANCH  12  17
HETATM   17  N1  UNL     1      -2.782  48.511 -21.434  1.00  0.00    -0.322 N 
HETATM   18  C3  UNL     1      -1.849  47.881 -20.647  1.00  0.00     0.244 C 
HETATM   19  O1  UNL     1      -0.696  47.590 -20.940  1.00  0.00    -0.268 OA
HETATM   20  H4  UNL     1      -3.740  48.534 -21.090  1.00  0.00     0.169 HD
BRANCH  18  21
HETATM   21  C2  UNL     1      -2.363  47.465 -19.313  1.00  0.00     0.064 C 
HETATM   22  C1  UNL     1      -3.627  47.640 -18.905  1.00  0.00     0.017 C 
ENDBRANCH  18  21
ENDBRANCH  12  17
ENDBRANCH   9  11
ENDBRANCH   1   9
BRANCH   8  23
HETATM   23  C19 UNL     1      -0.082  52.231 -19.277  1.00  0.00     0.421 C 
HETATM   24  F1  UNL     1      -1.360  52.479 -18.891  1.00  0.00    -0.166 F 
HETATM   25  F2  UNL     1       0.719  52.861 -18.368  1.00  0.00    -0.166 F 
HETATM   26  F3  UNL     1       0.116  50.899 -19.059  1.00  0.00    -0.166 F 
ENDBRANCH   8  23
BRANCH   4  27
HETATM   27  N4  UNL     1       1.064  53.812 -24.500  1.00  0.00    -0.259 NA
HETATM   28  H10 UNL     1       2.062  53.972 -24.583  1.00  0.00     0.131 HD
BRANCH  27  29
HETATM   29  C12 UNL     1       0.442  53.040 -25.568  1.00  0.00     0.067 C 
HETATM   30  C13 UNL     1       1.423  52.029 -26.167  1.00  0.00     0.046 C 
HETATM   31  C14 UNL     1       0.806  51.363 -27.388  1.00  0.00     0.169 C 
HETATM   32  O2  UNL     1       0.420  52.341 -28.352  1.00  0.00    -0.391 OA
HETATM   33  C15 UNL     1      -0.572  53.234 -27.848  1.00  0.00     0.169 C 
HETATM   34  C16 UNL     1      -0.035  54.009 -26.654  1.00  0.00     0.046 C 
ENDBRANCH  27  29
ENDBRANCH   4  27
TORSDOF 7
ENDMDL
MODEL 3
REMARK minimizedAffinity -8.21840572
REMARK  7 active torsions:
REMARK  status: ('A' for Active; 'I' for Inactive)
REMARK    1  A    between atoms: C2_2  and  C3_3 
REMARK       I    between atoms: C3_3  and  N1_5 
REMARK    2  A    between atoms: N1_5  and  C4_6 
REMARK    3  A    between atoms: C9_11  and  N2_12 
REMARK    4  A    between atoms: N2_12  and  C10_13 
REMARK    5  A    between atoms: C11_16  and  N4_17 
REMARK    6  A    between atoms: N4_17  and  C12_18 
REMARK    7  A    between atoms: C18_27  and  C19_28 
ROOT
HETATM    1  C10 UNL     1      -2.041  51.041 -23.852  1.00  0.00     0.103 A 
HETATM    2  N3  UNL     1      -2.761  51.482 -22.798  1.00  0.00    -0.322 N 
ATOM      3  H3  UNL     1      -2.297  51.812 -21.952  1.00  0.00     0.169 HD
HETATM    4  C11 UNL     1      -4.096  51.474 -22.888  1.00  0.00     0.158 A 
HETATM    5  N5  UNL     1      -4.758  51.052 -23.967  1.00  0.00    -0.342 N 
ATOM      6  H5  UNL     1      -5.777  51.066 -24.006  1.00  0.00     0.167 HD
HETATM    7  C17 UNL     1      -4.021  50.606 -24.999  1.00  0.00     0.110 A 
HETATM    8  C18 UNL     1      -2.645  50.587 -25.006  1.00  0.00     0.101 A 
ENDROOT
BRANCH   1   9
HETATM    9  N2  UNL     1      -0.638  51.038 -23.683  1.00  0.00    -0.243 NA
HETATM   10  H9  UNL     1      -0.368  50.233 -23.118  1.00  0.00     0.135 HD
BRANCH   9  11
HETATM   11  C9  UNL     1       0.097  52.188 -23.255  1.00  0.00     0.041 A 
HETATM   12  C4  UNL     1       0.429  53.257 -24.124  1.00  0.00     0.056 A 
HETATM   13  C5  UNL     1       1.100  54.373 -23.608  1.00  0.00     0.031 A 
HETATM   14  C6  UNL     1       1.464  54.430 -22.261  1.00  0.00     0.002 A 
HETATM   15  C7  UNL     1       1.174  53.368 -21.413  1.00  0.00     0.002 A 
HETATM   16  C8  UNL     1       0.500  52.252 -21.907  1.00  0.00     0.026 A 
BRANCH  12  17
HETATM   17  N1  UNL     1       0.129  53.128 -25.500  1.00  0.00    -0.322 N 
HETATM   18  C3  UNL     1       0.081  54.115 -26.453  1.00  0.00     0.244 C 
HETATM   19  O1  UNL     1       0.166  55.326 -26.282  1.00  0.00    -0.268 OA
HETATM   20  H4  UNL     1      -0.116  52.185 -25.796  1.00  0.00     0.169 HD
BRANCH  18  21
HETATM   21  C2  UNL     1      -0.165  53.615 -27.833  1.00  0.00     0.064 C 
HETATM   22  C1  UNL     1       0.434  52.539 -28.361  1.00  0.00     0.017 C 
ENDBRANCH  18  21
ENDBRANCH  12  17
ENDBRANCH   9  11
ENDBRANCH   1   9
BRANCH   8  23
HETATM   23  C19 UNL     1      -1.904  50.085 -26.187  1.00  0.00     0.421 C 
HETATM   24  F1  UNL     1      -2.099  48.762 -26.426  1.00  0.00    -0.166 F 
HETATM   25  F2  UNL     1      -0.554  50.257 -26.080  1.00  0.00    -0.166 F 
HETATM   26  F3  UNL     1      -2.251  50.721 -27.342  1.00  0.00    -0.166 F 
ENDBRANCH   8  23
BRANCH   4  27
HETATM   27  N4  UNL     1      -4.774  51.937 -21.780  1.00  0.00    -0.259 NA
HETATM   28  H10 UNL     1      -5.682  52.269 -22.085  1.00  0.00     0.131 HD
BRANCH  27  29
HETATM   29  C12 UNL     1      -4.757  51.120 -20.573  1.00  0.00     0.067 C 
HETATM   30  C13 UNL     1      -3.412  51.226 -19.849  1.00  0.00     0.046 C 
HETATM   31  C14 UNL     1      -3.360  50.233 -18.696  1.00  0.00     0.169 C 
HETATM   32  O2  UNL     1      -3.590  48.906 -19.166  1.00  0.00    -0.391 OA
HETATM   33  C15 UNL     1      -4.881  48.758 -19.755  1.00  0.00     0.169 C 
HETATM   34  C16 UNL     1      -5.021  49.664 -20.968  1.00  0.00     0.046 C 
ENDBRANCH  27  29
ENDBRANCH   4  27
TORSDOF 7
ENDMDL
MODEL 4
REMARK minimizedAffinity -8.18947506
REMARK  7 active torsions:
REMARK  status: ('A' for Active; 'I' for Inactive)
REMARK    1  A    between atoms: C2_2  and  C3_3 
REMARK       I    between atoms: C3_3  and  N1_5 
REMARK    2  A    between atoms: N1_5  and  C4_6 
REMARK    3  A    between atoms: C9_11  and  N2_12 
REMARK    4  A    between atoms: N2_12  and  C10_13 
REMARK    5  A    between atoms: C11_16  and  N4_17 
REMARK    6  A    between atoms: N4_17  and  C12_18 
REMARK    7  A    between atoms: C18_27  and  C19_28 
ROOT
HETATM    1  C10 UNL     1       0.050  52.494 -21.886  1.00  0.00     0.103 A 
HETATM    2  N3  UNL     1       0.148  52.837 -23.189  1.00  0.00    -0.322 N 
ATOM      3  H3  UNL     1      -0.354  52.312 -23.905  1.00  0.00     0.169 HD
HETATM    4  C11 UNL     1       0.919  53.880 -23.517  1.00  0.00     0.158 A 
HETATM    5  N5  UNL     1       1.601  54.601 -22.626  1.00  0.00    -0.342 N 
ATOM      6  H5  UNL     1       2.174  55.395 -22.909  1.00  0.00     0.167 HD
HETATM    7  C17 UNL     1       1.498  54.233 -21.337  1.00  0.00     0.110 A 
HETATM    8  C18 UNL     1       0.720  53.185 -20.899  1.00  0.00     0.101 A 
ENDROOT
BRANCH   1   9
HETATM    9  N2  UNL     1      -0.748  51.362 -21.605  1.00  0.00    -0.243 NA
HETATM   10  H9  UNL     1      -0.329  50.538 -22.035  1.00  0.00     0.135 HD
BRANCH   9  11
HETATM   11  C9  UNL     1      -2.164  51.337 -21.809  1.00  0.00     0.041 A 
HETATM   12  C4  UNL     1      -3.066  50.758 -20.883  1.00  0.00     0.056 A 
HETATM   13  C5  UNL     1      -4.442  50.830 -21.133  1.00  0.00     0.031 A 
HETATM   14  C6  UNL     1      -4.928  51.441 -22.292  1.00  0.00     0.002 A 
HETATM   15  C7  UNL     1      -4.046  51.978 -23.221  1.00  0.00     0.002 A 
HETATM   16  C8  UNL     1      -2.673  51.921 -22.985  1.00  0.00     0.026 A 
BRANCH  12  17
HETATM   17  N1  UNL     1      -2.538  50.066 -19.768  1.00  0.00    -0.322 N 
HETATM   18  C3  UNL     1      -2.438  50.503 -18.470  1.00  0.00     0.244 C 
HETATM   19  O1  UNL     1      -2.670  51.625 -18.037  1.00  0.00    -0.268 OA
HETATM   20  H4  UNL     1      -2.157  49.146 -19.979  1.00  0.00     0.169 HD
BRANCH  18  21
HETATM   21  C2  UNL     1      -1.926  49.475 -17.523  1.00  0.00     0.064 C 
HETATM   22  C1  UNL     1      -0.815  49.616 -16.787  1.00  0.00     0.017 C 
ENDBRANCH  18  21
ENDBRANCH  12  17
ENDBRANCH   9  11
ENDBRANCH   1   9
BRANCH   8  23
HETATM   23  C19 UNL     1       0.655  52.846 -19.458  1.00  0.00     0.421 C 
HETATM   24  F1  UNL     1       0.422  51.529 -19.222  1.00  0.00    -0.166 F 
HETATM   25  F2  UNL     1      -0.323  53.531 -18.796  1.00  0.00    -0.166 F 
HETATM   26  F3  UNL     1       1.807  53.141 -18.791  1.00  0.00    -0.166 F 
ENDBRANCH   8  23
BRANCH   4  27
HETATM   27  N4  UNL     1       0.978  54.181 -24.863  1.00  0.00    -0.259 NA
HETATM   28  H10 UNL     1       1.934  54.434 -25.084  1.00  0.00     0.131 HD
BRANCH  27  29
HETATM   29  C12 UNL     1       0.314  53.282 -25.798  1.00  0.00     0.067 C 
HETATM   30  C13 UNL     1       1.218  52.106 -26.177  1.00  0.00     0.046 C 
HETATM   31  C14 UNL     1       0.571  51.284 -27.282  1.00  0.00     0.169 C 
HETATM   32  O2  UNL     1       0.286  52.103 -28.415  1.00  0.00    -0.391 OA
HETATM   33  C15 UNL     1      -0.637  53.147 -28.109  1.00  0.00     0.169 C 
HETATM   34  C16 UNL     1      -0.060  54.076 -27.053  1.00  0.00     0.046 C 
ENDBRANCH  27  29
ENDBRANCH   4  27
TORSDOF 7
ENDMDL
MODEL 5
REMARK minimizedAffinity -8.18685627
REMARK  7 active torsions:
REMARK  status: ('A' for Active; 'I' for Inactive)
REMARK    1  A    between atoms: C2_2  and  C3_3 
REMARK       I    between atoms: C3_3  and  N1_5 
REMARK    2  A    between atoms: N1_5  and  C4_6 
REMARK    3  A    between atoms: C9_11  and  N2_12 
REMARK    4  A    between atoms: N2_12  and  C10_13 
REMARK    5  A    between atoms: C11_16  and  N4_17 
REMARK    6  A    between atoms: N4_17  and  C12_18 
REMARK    7  A    between atoms: C18_27  and  C19_28 
ROOT
HETATM    1  C10 UNL     1      -1.042  51.724 -23.068  1.00  0.00     0.103 A 
HETATM    2  N3  UNL     1      -1.416  50.916 -22.052  1.00  0.00    -0.322 N 
ATOM      3  H3  UNL     1      -2.291  50.395 -22.096  1.00  0.00     0.169 HD
HETATM    4  C11 UNL     1      -0.612  50.817 -20.987  1.00  0.00     0.158 A 
HETATM    5  N5  UNL     1       0.542  51.476 -20.872  1.00  0.00    -0.342 N 
ATOM      6  H5  UNL     1       1.135  51.373 -20.049  1.00  0.00     0.167 HD
HETATM    7  C17 UNL     1       0.887  52.283 -21.890  1.00  0.00     0.110 A 
HETATM    8  C18 UNL     1       0.136  52.441 -23.032  1.00  0.00     0.101 A 
ENDROOT
BRANCH   1   9
HETATM    9  N2  UNL     1      -1.948  51.816 -24.148  1.00  0.00    -0.243 NA
HETATM   10  H9  UNL     1      -2.682  52.484 -23.917  1.00  0.00     0.135 HD
BRANCH   9  11
HETATM   11  C9  UNL     1      -2.530  50.670 -24.777  1.00  0.00     0.041 A 
HETATM   12  C4  UNL     1      -2.132  50.208 -26.056  1.00  0.00     0.056 A 
HETATM   13  C5  UNL     1      -2.712  49.043 -26.573  1.00  0.00     0.031 A 
HETATM   14  C6  UNL     1      -3.690  48.351 -25.854  1.00  0.00     0.002 A 
HETATM   15  C7  UNL     1      -4.109  48.819 -24.615  1.00  0.00     0.002 A 
HETATM   16  C8  UNL     1      -3.538  49.974 -24.082  1.00  0.00     0.026 A 
BRANCH  12  17
HETATM   17  N1  UNL     1      -1.209  50.982 -26.797  1.00  0.00    -0.322 N 
HETATM   18  C3  UNL     1      -1.365  52.261 -27.272  1.00  0.00     0.244 C 
HETATM   19  O1  UNL     1      -2.382  52.946 -27.260  1.00  0.00    -0.268 OA
HETATM   20  H4  UNL     1      -0.341  50.503 -27.029  1.00  0.00     0.169 HD
BRANCH  18  21
HETATM   21  C2  UNL     1      -0.150  52.818 -27.926  1.00  0.00     0.064 C 
HETATM   22  C1  UNL     1       0.893  52.080 -28.330  1.00  0.00     0.017 C 
ENDBRANCH  18  21
ENDBRANCH  12  17
ENDBRANCH   9  11
ENDBRANCH   1   9
BRANCH   8  23
HETATM   23  C19 UNL     1       0.589  53.346 -24.114  1.00  0.00     0.421 C 
HETATM   24  F1  UNL     1      -0.427  54.000 -24.734  1.00  0.00    -0.166 F 
HETATM   25  F2  UNL     1       1.279  52.695 -25.096  1.00  0.00    -0.166 F 
HETATM   26  F3  UNL     1       1.436  54.319 -23.671  1.00  0.00    -0.166 F 
ENDBRANCH   8  23
BRANCH   4  27
HETATM   27  N4  UNL     1      -1.049  49.977 -19.983  1.00  0.00    -0.259 NA
HETATM   28  H10 UNL     1      -0.736  49.039 -20.203  1.00  0.00     0.131 HD
BRANCH  27  29
HETATM   29  C12 UNL     1      -0.877  50.409 -18.602  1.00  0.00     0.067 C 
HETATM   30  C13 UNL     1       0.104  51.581 -18.503  1.00  0.00     0.046 C 
HETATM   31  C14 UNL     1       0.398  51.894 -17.043  1.00  0.00     0.169 C 
HETATM   32  O2  UNL     1       0.903  50.740 -16.374  1.00  0.00    -0.391 OA
HETATM   33  C15 UNL     1      -0.036  49.666 -16.364  1.00  0.00     0.169 C 
HETATM   34  C16 UNL     1      -0.355  49.224 -17.784  1.00  0.00     0.046 C 
ENDBRANCH  27  29
ENDBRANCH   4  27
TORSDOF 7
ENDMDL
MODEL 6
REMARK minimizedAffinity -8.13546085
REMARK  7 active torsions:
REMARK  status: ('A' for Active; 'I' for Inactive)
REMARK    1  A    between atoms: C2_2  and  C3_3 
REMARK       I    between atoms: C3_3  and  N1_5 
REMARK    2  A    between atoms: N1_5  and  C4_6 
REMARK    3  A    between atoms: C9_11  and  N2_12 
REMARK    4  A    between atoms: N2_12  and  C10_13 
REMARK    5  A    between atoms: C11_16  and  N4_17 
REMARK    6  A    between atoms: N4_17  and  C12_18 
REMARK    7  A    between atoms: C18_27  and  C19_28 
ROOT
HETATM    1  C10 UNL     1      -2.362  51.699 -22.842  1.00  0.00     0.103 A 
HETATM    2  N3  UNL     1      -1.525  52.187 -23.783  1.00  0.00    -0.322 N 
ATOM      3  H3  UNL     1      -0.525  52.269 -23.599  1.00  0.00     0.169 HD
HETATM    4  C11 UNL     1      -2.037  52.562 -24.961  1.00  0.00     0.158 A 
HETATM    5  N5  UNL     1      -3.335  52.481 -25.258  1.00  0.00    -0.342 N 
ATOM      6  H5  UNL     1      -3.692  52.769 -26.169  1.00  0.00     0.167 HD
HETATM    7  C17 UNL     1      -4.151  52.004 -24.302  1.00  0.00     0.110 A 
HETATM    8  C18 UNL     1      -3.718  51.581 -23.066  1.00  0.00     0.101 A 
ENDROOT
BRANCH   1   9
HETATM    9  N2  UNL     1      -1.769  51.356 -21.607  1.00  0.00    -0.243 NA
HETATM   10  H9  UNL     1      -2.500  51.166 -20.922  1.00  0.00     0.135 HD
BRANCH   9  11
HETATM   11  C9  UNL     1      -0.736  52.135 -20.996  1.00  0.00     0.041 A 
HETATM   12  C4  UNL     1      -0.652  52.340 -19.596  1.00  0.00     0.056 A 
HETATM   13  C5  UNL     1       0.426  53.068 -19.077  1.00  0.00     0.031 A 
HETATM   14  C6  UNL     1       1.398  53.609 -19.921  1.00  0.00     0.002 A 
HETATM   15  C7  UNL     1       1.300  53.442 -21.296  1.00  0.00     0.002 A 
HETATM   16  C8  UNL     1       0.238  52.715 -21.832  1.00  0.00     0.026 A 
BRANCH  12  17
HETATM   17  N1  UNL     1      -1.701  51.859 -18.778  1.00  0.00    -0.322 N 
HETATM   18  C3  UNL     1      -1.641  50.890 -17.808  1.00  0.00     0.244 C 
HETATM   19  O1  UNL     1      -0.698  50.156 -17.539  1.00  0.00    -0.268 OA
HETATM   20  H4  UNL     1      -2.613  52.268 -18.972  1.00  0.00     0.169 HD
BRANCH  18  21
HETATM   21  C2  UNL     1      -2.915  50.701 -17.061  1.00  0.00     0.064 C 
HETATM   22  C1  UNL     1      -3.017  50.731 -15.726  1.00  0.00     0.017 C 
ENDBRANCH  18  21
ENDBRANCH  12  17
ENDBRANCH   9  11
ENDBRANCH   1   9
BRANCH   8  23
HETATM   23  C19 UNL     1      -4.681  51.061 -22.068  1.00  0.00     0.421 C 
HETATM   24  F1  UNL     1      -4.741  51.808 -20.934  1.00  0.00    -0.166 F 
HETATM   25  F2  UNL     1      -4.397  49.787 -21.669  1.00  0.00    -0.166 F 
HETATM   26  F3  UNL     1      -5.959  51.007 -22.541  1.00  0.00    -0.166 F 
ENDBRANCH   8  23
BRANCH   4  27
HETATM   27  N4  UNL     1      -1.131  53.051 -25.879  1.00  0.00    -0.259 NA
HETATM   28  H10 UNL     1      -0.787  53.940 -25.535  1.00  0.00     0.131 HD
BRANCH  27  29
HETATM   29  C12 UNL     1      -0.132  52.136 -26.415  1.00  0.00     0.067 C 
HETATM   30  C13 UNL     1       1.191  52.248 -25.653  1.00  0.00     0.046 C 
HETATM   31  C14 UNL     1       2.262  51.414 -26.341  1.00  0.00     0.169 C 
HETATM   32  O2  UNL     1       2.414  51.816 -27.701  1.00  0.00    -0.391 OA
HETATM   33  C15 UNL     1       1.221  51.624 -28.458  1.00  0.00     0.169 C 
HETATM   34  C16 UNL     1       0.090  52.470 -27.893  1.00  0.00     0.046 C 
ENDBRANCH  27  29
ENDBRANCH   4  27
TORSDOF 7
ENDMDL
MODEL 7
REMARK minimizedAffinity -8.10365772
REMARK  7 active torsions:
REMARK  status: ('A' for Active; 'I' for Inactive)
REMARK    1  A    between atoms: C2_2  and  C3_3 
REMARK       I    between atoms: C3_3  and  N1_5 
REMARK    2  A    between atoms: N1_5  and  C4_6 
REMARK    3  A    between atoms: C9_11  and  N2_12 
REMARK    4  A    between atoms: N2_12  and  C10_13 
REMARK    5  A    between atoms: C11_16  and  N4_17 
REMARK    6  A    between atoms: N4_17  and  C12_18 
REMARK    7  A    between atoms: C18_27  and  C19_28 
ROOT
HETATM    1  C10 UNL     1      -0.216  52.012 -22.984  1.00  0.00     0.103 A 
HETATM    2  N3  UNL     1      -0.950  50.920 -23.288  1.00  0.00    -0.322 N 
ATOM      3  H3  UNL     1      -1.278  50.761 -24.240  1.00  0.00     0.169 HD
HETATM    4  C11 UNL     1      -1.238  50.052 -22.311  1.00  0.00     0.158 A 
HETATM    5  N5  UNL     1      -0.839  50.208 -21.047  1.00  0.00    -0.342 N 
ATOM      6  H5  UNL     1      -1.069  49.523 -20.328  1.00  0.00     0.167 HD
HETATM    7  C17 UNL     1      -0.120  51.309 -20.766  1.00  0.00     0.110 A 
HETATM    8  C18 UNL     1       0.238  52.251 -21.703  1.00  0.00     0.101 A 
ENDROOT
BRANCH   1   9
HETATM    9  N2  UNL     1       0.023  52.910 -24.048  1.00  0.00    -0.243 NA
HETATM   10  H9  UNL     1      -0.649  53.675 -24.002  1.00  0.00     0.135 HD
BRANCH   9  11
HETATM   11  C9  UNL     1       0.169  52.486 -25.407  1.00  0.00     0.041 A 
HETATM   12  C4  UNL     1      -0.923  52.392 -26.305  1.00  0.00     0.056 A 
HETATM   13  C5  UNL     1      -0.683  52.025 -27.635  1.00  0.00     0.031 A 
HETATM   14  C6  UNL     1       0.610  51.729 -28.074  1.00  0.00     0.002 A 
HETATM   15  C7  UNL     1       1.678  51.784 -27.188  1.00  0.00     0.002 A 
HETATM   16  C8  UNL     1       1.459  52.154 -25.862  1.00  0.00     0.026 A 
BRANCH  12  17
HETATM   17  N1  UNL     1      -2.229  52.607 -25.807  1.00  0.00    -0.322 N 
HETATM   18  C3  UNL     1      -3.127  51.673 -25.354  1.00  0.00     0.244 C 
HETATM   19  O1  UNL     1      -3.029  50.453 -25.406  1.00  0.00    -0.268 OA
HETATM   20  H4  UNL     1      -2.538  53.577 -25.828  1.00  0.00     0.169 HD
BRANCH  18  21
HETATM   21  C2  UNL     1      -4.380  52.256 -24.799  1.00  0.00     0.064 C 
HETATM   22  C1  UNL     1      -4.870  51.969 -23.586  1.00  0.00     0.017 C 
ENDBRANCH  18  21
ENDBRANCH  12  17
ENDBRANCH   9  11
ENDBRANCH   1   9
BRANCH   8  23
HETATM   23  C19 UNL     1       1.038  53.436 -21.314  1.00  0.00     0.421 C 
HETATM   24  F1  UNL     1       2.184  53.122 -20.655  1.00  0.00    -0.166 F 
HETATM   25  F2  UNL     1       0.354  54.293 -20.500  1.00  0.00    -0.166 F 
HETATM   26  F3  UNL     1       1.422  54.192 -22.381  1.00  0.00    -0.166 F 
ENDBRANCH   8  23
BRANCH   4  27
HETATM   27  N4  UNL     1      -1.990  48.958 -22.684  1.00  0.00    -0.259 NA
HETATM   28  H10 UNL     1      -1.371  48.292 -23.133  1.00  0.00     0.131 HD
BRANCH  27  29
HETATM   29  C12 UNL     1      -2.936  48.411 -21.719  1.00  0.00     0.067 C 
HETATM   30  C13 UNL     1      -2.554  46.985 -21.313  1.00  0.00     0.046 C 
HETATM   31  C14 UNL     1      -3.648  46.379 -20.446  1.00  0.00     0.169 C 
HETATM   32  O2  UNL     1      -4.901  46.405 -21.128  1.00  0.00    -0.391 OA
HETATM   33  C15 UNL     1      -5.327  47.733 -21.427  1.00  0.00     0.169 C 
HETATM   34  C16 UNL     1      -4.331  48.417 -22.351  1.00  0.00     0.046 C 
ENDBRANCH  27  29
ENDBRANCH   4  27
TORSDOF 7
ENDMDL
MODEL 8
REMARK minimizedAffinity -8.10247231
REMARK  7 active torsions:
REMARK  status: ('A' for Active; 'I' for Inactive)
REMARK    1  A    between atoms: C2_2  and  C3_3 
REMARK       I    between atoms: C3_3  and  N1_5 
REMARK    2  A    between atoms: N1_5  and  C4_6 
REMARK    3  A    between atoms: C9_11  and  N2_12 
REMARK    4  A    between atoms: N2_12  and  C10_13 
REMARK    5  A    between atoms: C11_16  and  N4_17 
REMARK    6  A    between atoms: N4_17  and  C12_18 
REMARK    7  A    between atoms: C18_27  and  C19_28 
ROOT
HETATM    1  C10 UNL     1      -1.956  50.443 -24.203  1.00  0.00     0.103 A 
HETATM    2  N3  UNL     1      -1.306  50.621 -23.032  1.00  0.00    -0.322 N 
ATOM      3  H3  UNL     1      -0.776  51.474 -22.854  1.00  0.00     0.169 HD
HETATM    4  C11 UNL     1      -1.373  49.652 -22.112  1.00  0.00     0.158 A 
HETATM    5  N5  UNL     1      -2.047  48.515 -22.288  1.00  0.00    -0.342 N 
ATOM      6  H5  UNL     1      -2.084  47.799 -21.563  1.00  0.00     0.167 HD
HETATM    7  C17 UNL     1      -2.675  48.355 -23.466  1.00  0.00     0.110 A 
HETATM    8  C18 UNL     1      -2.677  49.298 -24.468  1.00  0.00     0.101 A 
ENDROOT
BRANCH   1   9
HETATM    9  N2  UNL     1      -1.817  51.484 -25.149  1.00  0.00    -0.243 NA
HETATM   10  H9  UNL     1      -2.672  51.556 -25.700  1.00  0.00     0.135 HD
BRANCH   9  11
HETATM   11  C9  UNL     1      -0.683  51.605 -26.013  1.00  0.00     0.041 A 
HETATM   12  C4  UNL     1       0.618  51.906 -25.539  1.00  0.00     0.056 A 
HETATM   13  C5  UNL     1       1.683  51.948 -26.447  1.00  0.00     0.031 A 
HETATM   14  C6  UNL     1       1.472  51.721 -27.809  1.00  0.00     0.002 A 
HETATM   15  C7  UNL     1       0.193  51.461 -28.284  1.00  0.00     0.002 A 
HETATM   16  C8  UNL     1      -0.879  51.409 -27.394  1.00  0.00     0.026 A 
BRANCH  12  17
HETATM   17  N1  UNL     1       0.782  52.223 -24.170  1.00  0.00    -0.322 N 
HETATM   18  C3  UNL     1       0.920  53.463 -23.598  1.00  0.00     0.244 C 
HETATM   19  O1  UNL     1       1.056  54.540 -24.167  1.00  0.00    -0.268 OA
HETATM   20  H4  UNL     1       0.839  51.416 -23.551  1.00  0.00     0.169 HD
BRANCH  18  21
HETATM   21  C2  UNL     1       0.968  53.442 -22.110  1.00  0.00     0.064 C 
HETATM   22  C1  UNL     1       1.538  54.397 -21.362  1.00  0.00     0.017 C 
ENDBRANCH  18  21
ENDBRANCH  12  17
ENDBRANCH   9  11
ENDBRANCH   1   9
BRANCH   8  23
HETATM   23  C19 UNL     1      -3.399  49.048 -25.738  1.00  0.00     0.421 C 
HETATM   24  F1  UNL     1      -4.422  48.163 -25.613  1.00  0.00    -0.166 F 
HETATM   25  F2  UNL     1      -2.589  48.558 -26.721  1.00  0.00    -0.166 F 
HETATM   26  F3  UNL     1      -3.953  50.177 -26.265  1.00  0.00    -0.166 F 
ENDBRANCH   8  23
BRANCH   4  27
HETATM   27  N4  UNL     1      -0.690  49.893 -20.938  1.00  0.00    -0.259 NA
HETATM   28  H10 UNL     1      -0.094  50.701 -21.083  1.00  0.00     0.131 HD
BRANCH  27  29
HETATM   29  C12 UNL     1      -1.437  49.858 -19.687  1.00  0.00     0.067 C 
HETATM   30  C13 UNL     1      -2.709  50.706 -19.776  1.00  0.00     0.046 C 
HETATM   31  C14 UNL     1      -3.375  50.794 -18.410  1.00  0.00     0.169 C 
HETATM   32  O2  UNL     1      -2.469  51.322 -17.443  1.00  0.00    -0.391 OA
HETATM   33  C15 UNL     1      -1.321  50.493 -17.269  1.00  0.00     0.169 C 
HETATM   34  C16 UNL     1      -0.536  50.388 -18.568  1.00  0.00     0.046 C 
ENDBRANCH  27  29
ENDBRANCH   4  27
TORSDOF 7
ENDMDL
MODEL 9
REMARK minimizedAffinity -8.09093857
REMARK  7 active torsions:
REMARK  status: ('A' for Active; 'I' for Inactive)
REMARK    1  A    between atoms: C2_2  and  C3_3 
REMARK       I    between atoms: C3_3  and  N1_5 
REMARK    2  A    between atoms: N1_5  and  C4_6 
REMARK    3  A    between atoms: C9_11  and  N2_12 
REMARK    4  A    between atoms: N2_12  and  C10_13 
REMARK    5  A    between atoms: C11_16  and  N4_17 
REMARK    6  A    between atoms: N4_17  and  C12_18 
REMARK    7  A    between atoms: C18_27  and  C19_28 
ROOT
HETATM    1  C10 UNL     1      -1.220  52.058 -23.089  1.00  0.00     0.103 A 
HETATM    2  N3  UNL     1      -1.748  51.419 -22.023  1.00  0.00    -0.322 N 
ATOM      3  H3  UNL     1      -2.642  50.934 -22.095  1.00  0.00     0.169 HD
HETATM    4  C11 UNL     1      -1.070  51.437 -20.869  1.00  0.00     0.158 A 
HETATM    5  N5  UNL     1       0.102  52.055 -20.713  1.00  0.00    -0.342 N 
ATOM      6  H5  UNL     1       0.596  52.043 -19.821  1.00  0.00     0.167 HD
HETATM    7  C17 UNL     1       0.601  52.694 -21.785  1.00  0.00     0.110 A 
HETATM    8  C18 UNL     1      -0.013  52.721 -23.016  1.00  0.00     0.101 A 
ENDROOT
BRANCH   1   9
HETATM    9  N2  UNL     1      -1.998  52.035 -24.268  1.00  0.00    -0.243 NA
HETATM   10  H9  UNL     1      -2.728  52.744 -24.205  1.00  0.00     0.135 HD
BRANCH   9  11
HETATM   11  C9  UNL     1      -2.550  50.833 -24.814  1.00  0.00     0.041 A 
HETATM   12  C4  UNL     1      -2.102  50.264 -26.032  1.00  0.00     0.056 A 
HETATM   13  C5  UNL     1      -2.657  49.054 -26.465  1.00  0.00     0.031 A 
HETATM   14  C6  UNL     1      -3.658  48.419 -25.724  1.00  0.00     0.002 A 
HETATM   15  C7  UNL     1      -4.126  48.992 -24.549  1.00  0.00     0.002 A 
HETATM   16  C8  UNL     1      -3.581  50.193 -24.099  1.00  0.00     0.026 A 
BRANCH  12  17
HETATM   17  N1  UNL     1      -1.156  50.978 -26.804  1.00  0.00    -0.322 N 
HETATM   18  C3  UNL     1      -1.274  52.238 -27.335  1.00  0.00     0.244 C 
HETATM   19  O1  UNL     1      -2.269  52.952 -27.356  1.00  0.00    -0.268 OA
HETATM   20  H4  UNL     1      -0.302  50.463 -27.013  1.00  0.00     0.169 HD
BRANCH  18  21
HETATM   21  C2  UNL     1      -0.041  52.729 -28.009  1.00  0.00     0.064 C 
HETATM   22  C1  UNL     1       1.055  51.985 -28.210  1.00  0.00     0.017 C 
ENDBRANCH  18  21
ENDBRANCH  12  17
ENDBRANCH   9  11
ENDBRANCH   1   9
BRANCH   8  23
HETATM   23  C19 UNL     1       0.606  53.445 -24.152  1.00  0.00     0.421 C 
HETATM   24  F1  UNL     1      -0.291  54.117 -24.919  1.00  0.00    -0.166 F 
HETATM   25  F2  UNL     1       1.287  52.618 -24.999  1.00  0.00    -0.166 F 
HETATM   26  F3  UNL     1       1.519  54.375 -23.754  1.00  0.00    -0.166 F 
ENDBRANCH   8  23
BRANCH   4  27
HETATM   27  N4  UNL     1      -1.660  50.767 -19.817  1.00  0.00    -0.259 NA
HETATM   28  H10 UNL     1      -2.413  51.345 -19.462  1.00  0.00     0.131 HD
BRANCH  27  29
HETATM   29  C12 UNL     1      -1.956  49.349 -19.984  1.00  0.00     0.067 C 
HETATM   30  C13 UNL     1      -1.152  48.746 -21.139  1.00  0.00     0.046 C 
HETATM   31  C14 UNL     1      -1.608  47.318 -21.403  1.00  0.00     0.169 C 
HETATM   32  O2  UNL     1      -3.008  47.280 -21.673  1.00  0.00    -0.391 OA
HETATM   33  C15 UNL     1      -3.785  47.744 -20.569  1.00  0.00     0.169 C 
HETATM   34  C16 UNL     1      -3.455  49.196 -20.258  1.00  0.00     0.046 C 
ENDBRANCH  27  29
ENDBRANCH   4  27
TORSDOF 7
ENDMDL
