MODEL 1
REMARK minimizedAffinity -10.1557264
REMARK  5 active torsions:
REMARK  status: ('A' for Active; 'I' for Inactive)
REMARK    1  A    between atoms: C4_4  and  C5_5 
REMARK    2  A    between atoms: C8_11  and  N3_12 
REMARK       I    between atoms: N3_12  and  C9_13 
REMARK       I    between atoms: C9_13  and  N4_15 
REMARK    3  A    between atoms: N4_15  and  C10_16 
REMARK    4  A    between atoms: C10_16  and  C12_18 
REMARK    5  A    between atoms: C15_21  and  N5_22 
ROOT
HETATM    1  N3  UNL     1      -3.334  50.463 -27.663  1.00  0.00    -0.295 N 
HETATM    2  C9  UNL     1      -3.828  49.188 -27.659  1.00  0.00     0.322 C 
HETATM    3  O1  UNL     1      -3.534  48.300 -26.869  1.00  0.00    -0.247 OA
HETATM    4  N4  UNL     1      -4.728  48.994 -28.680  1.00  0.00    -0.335 N 
HETATM    5  H7  UNL     1      -3.644  51.108 -28.371  1.00  0.00     0.172 HD
HETATM    6  H8  UNL     1      -4.976  49.769 -29.274  1.00  0.00     0.165 HD
ENDROOT
BRANCH   1   7
HETATM    7  C8  UNL     1      -2.417  51.045 -26.787  1.00  0.00     0.111 A 
HETATM    8  C7  UNL     1      -1.266  51.702 -27.202  1.00  0.00     0.080 A 
HETATM    9  C6  UNL     1      -0.467  52.205 -26.175  1.00  0.00     0.065 A 
HETATM   10  N2  UNL     1       0.708  52.901 -26.192  1.00  0.00    -0.299 N 
HETATM   11  C21 UNL     1      -0.786  52.059 -24.832  1.00  0.00     0.036 A 
HETATM   12  N1  UNL     1       1.174  53.223 -24.976  1.00  0.00    -0.299 N 
HETATM   13  H5  UNL     1       1.242  53.192 -27.004  1.00  0.00     0.187 HD
HETATM   14  C5  UNL     1       0.283  52.687 -24.123  1.00  0.00     0.072 A 
ATOM     15  H1  UNL     1       2.014  53.754 -24.750  1.00  0.00     0.187 HD
HETATM   16  C20 UNL     1      -1.974  51.401 -24.508  1.00  0.00     0.105 A 
HETATM   17  N8  UNL     1      -2.769  50.899 -25.489  1.00  0.00    -0.351 N 
ATOM     18  H8  UNL     1      -3.632  50.413 -25.246  1.00  0.00     0.166 HD
BRANCH  14  19
HETATM   19  C4  UNL     1       0.475  52.800 -22.678  1.00  0.00    -0.004 A 
HETATM   20  C3  UNL     1      -0.003  51.817 -21.808  1.00  0.00     0.038 A 
HETATM   21  C2  UNL     1       0.204  51.969 -20.440  1.00  0.00     0.005 A 
HETATM   22  C1  UNL     1      -0.297  50.929 -19.482  1.00  0.00     0.068 C 
HETATM   23  N9  UNL     1       0.850  53.033 -19.916  1.00  0.00    -0.369 N 
HETATM   24  C23 UNL     1       1.320  53.963 -20.776  1.00  0.00     0.089 A 
ATOM     25  H9  UNL     1       0.980  53.131 -18.908  1.00  0.00     0.165 HD
HETATM   26  C22 UNL     1       1.161  53.891 -22.147  1.00  0.00     0.031 A 
ENDBRANCH  14  19
ENDBRANCH   1   7
BRANCH   4  27
HETATM   27  C10 UNL     1      -5.426  47.733 -28.870  1.00  0.00     0.115 C 
HETATM   28  C11 UNL     1      -6.534  47.542 -27.828  1.00  0.00     0.037 C 
BRANCH  27  29
HETATM   29  C12 UNL     1      -5.955  47.656 -30.293  1.00  0.00    -0.036 A 
HETATM   30  C13 UNL     1      -7.228  48.137 -30.634  1.00  0.00     0.011 A 
HETATM   31  C14 UNL     1      -7.681  48.086 -31.956  1.00  0.00     0.032 A 
HETATM   32  C15 UNL     1      -6.865  47.552 -32.963  1.00  0.00     0.057 A 
HETATM   33  C18 UNL     1      -5.592  47.073 -32.634  1.00  0.00     0.032 A 
HETATM   34  C19 UNL     1      -5.143  47.132 -31.310  1.00  0.00     0.011 A 
BRANCH  32  35
HETATM   35  N5  UNL     1      -7.343  47.515 -34.299  1.00  0.00    -0.251 N 
HETATM   36  C16 UNL     1      -8.555  47.072 -34.774  1.00  0.00     0.208 A 
HETATM   37  N6  UNL     1      -8.612  47.194 -36.081  1.00  0.00    -0.346 N 
HETATM   38  C17 UNL     1      -7.397  47.727 -36.383  1.00  0.00     0.199 A 
ATOM     39  H6  UNL     1      -9.375  46.952 -36.712  1.00  0.00     0.167 HD
HETATM   40  N7  UNL     1      -6.589  47.945 -35.345  1.00  0.00    -0.288 N 
ATOM     41  H7  UNL     1      -5.647  48.336 -35.337  1.00  0.00     0.188 HD
ENDBRANCH  32  35
ENDBRANCH  27  29
ENDBRANCH   4  27
TORSDOF 5
ENDMDL
MODEL 2
REMARK minimizedAffinity -9.78799629
REMARK  5 active torsions:
REMARK  status: ('A' for Active; 'I' for Inactive)
REMARK    1  A    between atoms: C4_4  and  C5_5 
REMARK    2  A    between atoms: C8_11  and  N3_12 
REMARK       I    between atoms: N3_12  and  C9_13 
REMARK       I    between atoms: C9_13  and  N4_15 
REMARK    3  A    between atoms: N4_15  and  C10_16 
REMARK    4  A    between atoms: C10_16  and  C12_18 
REMARK    5  A    between atoms: C15_21  and  N5_22 
ROOT
HETATM    1  N3  UNL     1      -5.864  47.925 -28.054  1.00  0.00    -0.295 N 
HETATM    2  C9  UNL     1      -5.904  47.757 -29.410  1.00  0.00     0.322 C 
HETATM    3  O1  UNL     1      -5.050  48.116 -30.210  1.00  0.00    -0.247 OA
HETATM    4  N4  UNL     1      -7.057  47.119 -29.804  1.00  0.00    -0.335 N 
HETATM    5  H7  UNL     1      -6.634  47.596 -27.495  1.00  0.00     0.172 HD
HETATM    6  H8  UNL     1      -7.708  46.799 -29.105  1.00  0.00     0.165 HD
ENDROOT
BRANCH   1   7
HETATM    7  C8  UNL     1      -4.864  48.512 -27.278  1.00  0.00     0.111 A 
HETATM    8  C7  UNL     1      -4.702  48.273 -25.920  1.00  0.00     0.080 A 
HETATM    9  C6  UNL     1      -3.652  48.965 -25.317  1.00  0.00     0.065 A 
HETATM   10  N2  UNL     1      -3.190  48.979 -24.032  1.00  0.00    -0.299 N 
HETATM   11  C21 UNL     1      -2.826  49.835 -26.013  1.00  0.00     0.036 A 
HETATM   12  N1  UNL     1      -2.132  49.781 -23.837  1.00  0.00    -0.299 N 
HETATM   13  H5  UNL     1      -3.551  48.460 -23.239  1.00  0.00     0.187 HD
HETATM   14  C5  UNL     1      -1.910  50.341 -25.039  1.00  0.00     0.072 A 
ATOM     15  H1  UNL     1      -1.612  49.931 -22.972  1.00  0.00     0.187 HD
HETATM   16  C20 UNL     1      -3.049  49.999 -27.381  1.00  0.00     0.105 A 
HETATM   17  N8  UNL     1      -4.067  49.340 -27.993  1.00  0.00    -0.351 N 
ATOM     18  H8  UNL     1      -4.230  49.469 -28.991  1.00  0.00     0.166 HD
BRANCH  14  19
HETATM   19  C4  UNL     1      -0.839  51.319 -25.219  1.00  0.00    -0.004 A 
HETATM   20  C3  UNL     1       0.299  51.013 -25.970  1.00  0.00     0.038 A 
HETATM   21  C2  UNL     1       1.292  51.978 -26.113  1.00  0.00     0.005 A 
HETATM   22  C1  UNL     1       2.524  51.678 -26.915  1.00  0.00     0.068 C 
HETATM   23  N9  UNL     1       1.202  53.204 -25.552  1.00  0.00    -0.369 N 
HETATM   24  C23 UNL     1       0.086  53.485 -24.845  1.00  0.00     0.089 A 
ATOM     25  H9  UNL     1       1.948  53.892 -25.658  1.00  0.00     0.165 HD
HETATM   26  C22 UNL     1      -0.949  52.589 -24.654  1.00  0.00     0.031 A 
ENDBRANCH  14  19
ENDBRANCH   1   7
BRANCH   4  27
HETATM   27  C10 UNL     1      -7.324  46.787 -31.195  1.00  0.00     0.115 C 
HETATM   28  C11 UNL     1      -6.981  47.954 -32.126  1.00  0.00     0.037 C 
BRANCH  27  29
HETATM   29  C12 UNL     1      -6.574  45.517 -31.563  1.00  0.00    -0.036 A 
HETATM   30  C13 UNL     1      -7.067  44.246 -31.228  1.00  0.00     0.011 A 
HETATM   31  C14 UNL     1      -6.377  43.090 -31.605  1.00  0.00     0.032 A 
HETATM   32  C15 UNL     1      -5.179  43.184 -32.327  1.00  0.00     0.057 A 
HETATM   33  C18 UNL     1      -4.681  44.447 -32.670  1.00  0.00     0.032 A 
HETATM   34  C19 UNL     1      -5.379  45.599 -32.294  1.00  0.00     0.011 A 
BRANCH  32  35
HETATM   35  N5  UNL     1      -4.498  41.998 -32.705  1.00  0.00    -0.251 N 
HETATM   36  C16 UNL     1      -5.013  40.825 -33.206  1.00  0.00     0.208 A 
HETATM   37  N6  UNL     1      -4.053  39.955 -33.423  1.00  0.00    -0.346 N 
HETATM   38  C17 UNL     1      -2.941  40.637 -33.038  1.00  0.00     0.199 A 
ATOM     39  H6  UNL     1      -4.124  39.005 -33.789  1.00  0.00     0.167 HD
HETATM   40  N7  UNL     1      -3.149  41.878 -32.598  1.00  0.00    -0.288 N 
ATOM     41  H7  UNL     1      -2.469  42.562 -32.267  1.00  0.00     0.188 HD
ENDBRANCH  32  35
ENDBRANCH  27  29
ENDBRANCH   4  27
TORSDOF 5
ENDMDL
MODEL 3
REMARK minimizedAffinity -9.66314125
REMARK  5 active torsions:
REMARK  status: ('A' for Active; 'I' for Inactive)
REMARK    1  A    between atoms: C4_4  and  C5_5 
REMARK    2  A    between atoms: C8_11  and  N3_12 
REMARK       I    between atoms: N3_12  and  C9_13 
REMARK       I    between atoms: C9_13  and  N4_15 
REMARK    3  A    between atoms: N4_15  and  C10_16 
REMARK    4  A    between atoms: C10_16  and  C12_18 
REMARK    5  A    between atoms: C15_21  and  N5_22 
ROOT
HETATM    1  N3  UNL     1       0.801  52.451 -18.804  1.00  0.00    -0.295 N 
HETATM    2  C9  UNL     1      -0.026  51.608 -18.115  1.00  0.00     0.322 C 
HETATM    3  O1  UNL     1      -0.963  50.971 -18.580  1.00  0.00    -0.247 OA
HETATM    4  N4  UNL     1       0.313  51.548 -16.784  1.00  0.00    -0.335 N 
HETATM    5  H7  UNL     1       1.535  52.931 -18.311  1.00  0.00     0.172 HD
HETATM    6  H8  UNL     1       1.122  52.052 -16.457  1.00  0.00     0.165 HD
ENDROOT
BRANCH   1   7
HETATM    7  C8  UNL     1       0.787  52.765 -20.163  1.00  0.00     0.111 A 
HETATM    8  C7  UNL     1       1.335  53.926 -20.691  1.00  0.00     0.080 A 
HETATM    9  C6  UNL     1       1.209  54.067 -22.073  1.00  0.00     0.065 A 
HETATM   10  N2  UNL     1       1.622  55.047 -22.930  1.00  0.00    -0.299 N 
HETATM   11  C21 UNL     1       0.579  53.125 -22.872  1.00  0.00     0.036 A 
HETATM   12  N1  UNL     1       1.317  54.817 -24.216  1.00  0.00    -0.299 N 
HETATM   13  H5  UNL     1       2.122  55.900 -22.700  1.00  0.00     0.187 HD
HETATM   14  C5  UNL     1       0.647  53.651 -24.199  1.00  0.00     0.072 A 
ATOM     15  H1  UNL     1       1.543  55.396 -25.025  1.00  0.00     0.187 HD
HETATM   16  C20 UNL     1       0.074  51.977 -22.258  1.00  0.00     0.105 A 
HETATM   17  N8  UNL     1       0.180  51.816 -20.914  1.00  0.00    -0.351 N 
ATOM     18  H8  UNL     1      -0.197  50.979 -20.470  1.00  0.00     0.166 HD
BRANCH  14  19
HETATM   19  C4  UNL     1       0.111  53.081 -25.433  1.00  0.00    -0.004 A 
HETATM   20  C3  UNL     1      -0.596  51.876 -25.424  1.00  0.00     0.038 A 
HETATM   21  C2  UNL     1      -1.087  51.374 -26.625  1.00  0.00     0.005 A 
HETATM   22  C1  UNL     1      -1.852  50.083 -26.646  1.00  0.00     0.068 C 
HETATM   23  N9  UNL     1      -0.907  52.005 -27.807  1.00  0.00    -0.369 N 
HETATM   24  C23 UNL     1      -0.236  53.177 -27.790  1.00  0.00     0.089 A 
ATOM     25  H9  UNL     1      -1.265  51.612 -28.677  1.00  0.00     0.165 HD
HETATM   26  C22 UNL     1       0.284  53.749 -26.645  1.00  0.00     0.031 A 
ENDBRANCH  14  19
ENDBRANCH   1   7
BRANCH   4  27
HETATM   27  C10 UNL     1      -0.389  50.691 -15.842  1.00  0.00     0.115 C 
HETATM   28  C11 UNL     1       0.282  49.319 -15.724  1.00  0.00     0.037 C 
BRANCH  27  29
HETATM   29  C12 UNL     1      -0.496  51.397 -14.499  1.00  0.00    -0.036 A 
HETATM   30  C13 UNL     1       0.601  52.054 -13.921  1.00  0.00     0.011 A 
HETATM   31  C14 UNL     1       0.471  52.723 -12.701  1.00  0.00     0.032 A 
HETATM   32  C15 UNL     1      -0.763  52.750 -12.036  1.00  0.00     0.057 A 
HETATM   33  C18 UNL     1      -1.865  52.101 -12.606  1.00  0.00     0.032 A 
HETATM   34  C19 UNL     1      -1.729  51.437 -13.830  1.00  0.00     0.011 A 
BRANCH  32  35
HETATM   35  N5  UNL     1      -0.874  53.440 -10.801  1.00  0.00    -0.251 N 
HETATM   36  C16 UNL     1      -1.014  52.930  -9.532  1.00  0.00     0.208 A 
HETATM   37  N6  UNL     1      -1.093  53.900  -8.650  1.00  0.00    -0.346 N 
HETATM   38  C17 UNL     1      -0.995  55.014  -9.424  1.00  0.00     0.199 A 
ATOM     39  H6  UNL     1      -1.200  53.835  -7.637  1.00  0.00     0.167 HD
HETATM   40  N7  UNL     1      -0.858  54.797 -10.732  1.00  0.00    -0.288 N 
ATOM     41  H7  UNL     1      -0.765  55.476 -11.488  1.00  0.00     0.188 HD
ENDBRANCH  32  35
ENDBRANCH  27  29
ENDBRANCH   4  27
TORSDOF 5
ENDMDL
MODEL 4
REMARK minimizedAffinity -9.55097389
REMARK  5 active torsions:
REMARK  status: ('A' for Active; 'I' for Inactive)
REMARK    1  A    between atoms: C4_4  and  C5_5 
REMARK    2  A    between atoms: C8_11  and  N3_12 
REMARK       I    between atoms: N3_12  and  C9_13 
REMARK       I    between atoms: C9_13  and  N4_15 
REMARK    3  A    between atoms: N4_15  and  C10_16 
REMARK    4  A    between atoms: C10_16  and  C12_18 
REMARK    5  A    between atoms: C15_21  and  N5_22 
ROOT
HETATM    1  N3  UNL     1      -5.154  48.069 -27.420  1.00  0.00    -0.295 N 
HETATM    2  C9  UNL     1      -5.455  48.104 -28.754  1.00  0.00     0.322 C 
HETATM    3  O1  UNL     1      -4.894  48.782 -29.605  1.00  0.00    -0.247 OA
HETATM    4  N4  UNL     1      -6.502  47.265 -29.055  1.00  0.00    -0.335 N 
HETATM    5  H7  UNL     1      -5.694  47.478 -26.810  1.00  0.00     0.172 HD
HETATM    6  H8  UNL     1      -6.899  46.691 -28.329  1.00  0.00     0.165 HD
ENDROOT
BRANCH   1   7
HETATM    7  C8  UNL     1      -4.158  48.764 -26.733  1.00  0.00     0.111 A 
HETATM    8  C7  UNL     1      -3.083  49.383 -27.355  1.00  0.00     0.080 A 
HETATM    9  C6  UNL     1      -2.184  50.016 -26.496  1.00  0.00     0.065 A 
HETATM   10  N2  UNL     1      -1.039  50.721 -26.734  1.00  0.00    -0.299 N 
HETATM   11  C21 UNL     1      -2.340  50.027 -25.118  1.00  0.00     0.036 A 
HETATM   12  N1  UNL     1      -0.443  51.193 -25.628  1.00  0.00    -0.299 N 
HETATM   13  H5  UNL     1      -0.611  50.922 -27.632  1.00  0.00     0.187 HD
HETATM   14  C5  UNL     1      -1.214  50.750 -24.618  1.00  0.00     0.072 A 
ATOM     15  H1  UNL     1       0.402  51.759 -25.567  1.00  0.00     0.187 HD
HETATM   16  C20 UNL     1      -3.463  49.395 -24.580  1.00  0.00     0.105 A 
HETATM   17  N8  UNL     1      -4.352  48.769 -25.394  1.00  0.00    -0.351 N 
ATOM     18  H8  UNL     1      -5.167  48.303 -24.995  1.00  0.00     0.166 HD
BRANCH  14  19
HETATM   19  C4  UNL     1      -0.859  51.037 -23.230  1.00  0.00    -0.004 A 
HETATM   20  C3  UNL     1      -0.120  52.175 -22.895  1.00  0.00     0.038 A 
HETATM   21  C2  UNL     1       0.193  52.405 -21.559  1.00  0.00     0.005 A 
HETATM   22  C1  UNL     1       0.985  53.619 -21.169  1.00  0.00     0.068 C 
HETATM   23  N9  UNL     1      -0.188  51.570 -20.566  1.00  0.00    -0.369 N 
HETATM   24  C23 UNL     1      -0.916  50.486 -20.911  1.00  0.00     0.089 A 
ATOM     25  H9  UNL     1       0.064  51.752 -19.595  1.00  0.00     0.165 HD
HETATM   26  C22 UNL     1      -1.274  50.182 -22.210  1.00  0.00     0.031 A 
ENDBRANCH  14  19
ENDBRANCH   1   7
BRANCH   4  27
HETATM   27  C10 UNL     1      -6.989  47.091 -30.414  1.00  0.00     0.115 C 
HETATM   28  C11 UNL     1      -6.887  48.391 -31.218  1.00  0.00     0.037 C 
BRANCH  27  29
HETATM   29  C12 UNL     1      -6.243  45.944 -31.076  1.00  0.00    -0.036 A 
HETATM   30  C13 UNL     1      -6.698  44.619 -30.988  1.00  0.00     0.011 A 
HETATM   31  C14 UNL     1      -6.013  43.584 -31.631  1.00  0.00     0.032 A 
HETATM   32  C15 UNL     1      -4.858  43.856 -32.377  1.00  0.00     0.057 A 
HETATM   33  C18 UNL     1      -4.398  45.174 -32.474  1.00  0.00     0.032 A 
HETATM   34  C19 UNL     1      -5.091  46.206 -31.832  1.00  0.00     0.011 A 
BRANCH  32  35
HETATM   35  N5  UNL     1      -4.182  42.791 -33.026  1.00  0.00    -0.251 N 
HETATM   36  C16 UNL     1      -4.058  42.535 -34.372  1.00  0.00     0.208 A 
HETATM   37  N6  UNL     1      -3.359  41.440 -34.572  1.00  0.00    -0.346 N 
HETATM   38  C17 UNL     1      -3.062  41.042 -33.305  1.00  0.00     0.199 A 
ATOM     39  H6  UNL     1      -3.102  40.999 -35.455  1.00  0.00     0.167 HD
HETATM   40  N7  UNL     1      -3.530  41.822 -32.331  1.00  0.00    -0.288 N 
ATOM     41  H7  UNL     1      -3.426  41.718 -31.321  1.00  0.00     0.188 HD
ENDBRANCH  32  35
ENDBRANCH  27  29
ENDBRANCH   4  27
TORSDOF 5
ENDMDL
MODEL 5
REMARK minimizedAffinity -9.5194931
REMARK  5 active torsions:
REMARK  status: ('A' for Active; 'I' for Inactive)
REMARK    1  A    between atoms: C4_4  and  C5_5 
REMARK    2  A    between atoms: C8_11  and  N3_12 
REMARK       I    between atoms: N3_12  and  C9_13 
REMARK       I    between atoms: C9_13  and  N4_15 
REMARK    3  A    between atoms: N4_15  and  C10_16 
REMARK    4  A    between atoms: C10_16  and  C12_18 
REMARK    5  A    between atoms: C15_21  and  N5_22 
ROOT
HETATM    1  N3  UNL     1      -4.449  49.013 -28.478  1.00  0.00    -0.295 N 
HETATM    2  C9  UNL     1      -5.462  48.121 -28.699  1.00  0.00     0.322 C 
HETATM    3  O1  UNL     1      -5.977  47.389 -27.863  1.00  0.00    -0.247 OA
HETATM    4  N4  UNL     1      -5.859  48.125 -30.015  1.00  0.00    -0.335 N 
HETATM    5  H7  UNL     1      -4.097  49.557 -29.249  1.00  0.00     0.172 HD
HETATM    6  H8  UNL     1      -5.439  48.781 -30.655  1.00  0.00     0.165 HD
ENDROOT
BRANCH   1   7
HETATM    7  C8  UNL     1      -3.791  49.306 -27.283  1.00  0.00     0.111 A 
HETATM    8  C7  UNL     1      -3.940  48.564 -26.120  1.00  0.00     0.080 A 
HETATM    9  C6  UNL     1      -3.208  49.023 -25.025  1.00  0.00     0.065 A 
HETATM   10  N2  UNL     1      -3.095  48.560 -23.745  1.00  0.00    -0.299 N 
HETATM   11  C21 UNL     1      -2.392  50.144 -25.081  1.00  0.00     0.036 A 
HETATM   12  N1  UNL     1      -2.271  49.281 -22.970  1.00  0.00    -0.299 N 
HETATM   13  H5  UNL     1      -3.552  47.750 -23.338  1.00  0.00     0.187 HD
HETATM   14  C5  UNL     1      -1.850  50.280 -23.766  1.00  0.00     0.072 A 
ATOM     15  H1  UNL     1      -2.020  49.110 -21.997  1.00  0.00     0.187 HD
HETATM   16  C20 UNL     1      -2.286  50.818 -26.299  1.00  0.00     0.105 A 
HETATM   17  N8  UNL     1      -2.990  50.393 -27.380  1.00  0.00    -0.351 N 
ATOM     18  H8  UNL     1      -2.915  50.894 -28.266  1.00  0.00     0.166 HD
BRANCH  14  19
HETATM   19  C4  UNL     1      -0.950  51.311 -23.254  1.00  0.00    -0.004 A 
HETATM   20  C3  UNL     1      -0.827  51.545 -21.882  1.00  0.00     0.038 A 
HETATM   21  C2  UNL     1       0.044  52.537 -21.443  1.00  0.00     0.005 A 
HETATM   22  C1  UNL     1       0.197  52.811 -19.976  1.00  0.00     0.068 C 
HETATM   23  N9  UNL     1       0.780  53.288 -22.292  1.00  0.00    -0.369 N 
HETATM   24  C23 UNL     1       0.659  53.033 -23.613  1.00  0.00     0.089 A 
ATOM     25  H9  UNL     1       1.403  54.020 -21.949  1.00  0.00     0.165 HD
HETATM   26  C22 UNL     1      -0.179  52.067 -24.136  1.00  0.00     0.031 A 
ENDBRANCH  14  19
ENDBRANCH   1   7
BRANCH   4  27
HETATM   27  C10 UNL     1      -6.947  47.293 -30.500  1.00  0.00     0.115 C 
HETATM   28  C11 UNL     1      -7.811  48.038 -31.523  1.00  0.00     0.037 C 
BRANCH  27  29
HETATM   29  C12 UNL     1      -6.382  45.996 -31.058  1.00  0.00    -0.036 A 
HETATM   30  C13 UNL     1      -7.012  44.761 -30.837  1.00  0.00     0.011 A 
HETATM   31  C14 UNL     1      -6.491  43.586 -31.386  1.00  0.00     0.032 A 
HETATM   32  C15 UNL     1      -5.330  43.625 -32.171  1.00  0.00     0.057 A 
HETATM   33  C18 UNL     1      -4.697  44.852 -32.400  1.00  0.00     0.032 A 
HETATM   34  C19 UNL     1      -5.225  46.025 -31.851  1.00  0.00     0.011 A 
BRANCH  32  35
HETATM   35  N5  UNL     1      -4.823  42.420 -32.723  1.00  0.00    -0.251 N 
HETATM   36  C16 UNL     1      -5.477  41.463 -33.463  1.00  0.00     0.208 A 
HETATM   37  N6  UNL     1      -4.657  40.487 -33.784  1.00  0.00    -0.346 N 
HETATM   38  C17 UNL     1      -3.486  40.884 -33.216  1.00  0.00     0.199 A 
ATOM     39  H6  UNL     1      -4.851  39.643 -34.323  1.00  0.00     0.167 HD
HETATM   40  N7  UNL     1      -3.525  42.047 -32.566  1.00  0.00    -0.288 N 
ATOM     41  H7  UNL     1      -2.774  42.532 -32.075  1.00  0.00     0.188 HD
ENDBRANCH  32  35
ENDBRANCH  27  29
ENDBRANCH   4  27
TORSDOF 5
ENDMDL
MODEL 6
REMARK minimizedAffinity -9.35437965
REMARK  5 active torsions:
REMARK  status: ('A' for Active; 'I' for Inactive)
REMARK    1  A    between atoms: C4_4  and  C5_5 
REMARK    2  A    between atoms: C8_11  and  N3_12 
REMARK       I    between atoms: N3_12  and  C9_13 
REMARK       I    between atoms: C9_13  and  N4_15 
REMARK    3  A    between atoms: N4_15  and  C10_16 
REMARK    4  A    between atoms: C10_16  and  C12_18 
REMARK    5  A    between atoms: C15_21  and  N5_22 
ROOT
HETATM    1  N3  UNL     1       0.639  52.497 -18.771  1.00  0.00    -0.295 N 
HETATM    2  C9  UNL     1       0.659  51.568 -17.768  1.00  0.00     0.322 C 
HETATM    3  O1  UNL     1       0.244  50.418 -17.837  1.00  0.00    -0.247 OA
HETATM    4  N4  UNL     1       1.214  52.079 -16.619  1.00  0.00    -0.335 N 
HETATM    5  H7  UNL     1       1.001  53.419 -18.593  1.00  0.00     0.172 HD
HETATM    6  H8  UNL     1       1.587  53.015 -16.625  1.00  0.00     0.165 HD
ENDROOT
BRANCH   1   7
HETATM    7  C8  UNL     1       0.170  52.358 -20.078  1.00  0.00     0.111 A 
HETATM    8  C7  UNL     1      -1.115  51.939 -20.395  1.00  0.00     0.080 A 
HETATM    9  C6  UNL     1      -1.391  51.850 -21.759  1.00  0.00     0.065 A 
HETATM   10  N2  UNL     1      -2.519  51.491 -22.439  1.00  0.00    -0.299 N 
HETATM   11  C21 UNL     1      -0.454  52.151 -22.738  1.00  0.00     0.036 A 
HETATM   12  N1  UNL     1      -2.396  51.539 -23.774  1.00  0.00    -0.299 N 
HETATM   13  H5  UNL     1      -3.412  51.206 -22.049  1.00  0.00     0.187 HD
HETATM   14  C5  UNL     1      -1.121  51.915 -23.979  1.00  0.00     0.072 A 
ATOM     15  H1  UNL     1      -3.108  51.336 -24.475  1.00  0.00     0.187 HD
HETATM   16  C20 UNL     1       0.807  52.585 -22.327  1.00  0.00     0.105 A 
HETATM   17  N8  UNL     1       1.103  52.678 -21.005  1.00  0.00    -0.351 N 
ATOM     18  H8  UNL     1       2.029  52.988 -20.710  1.00  0.00     0.166 HD
BRANCH  14  19
HETATM   19  C4  UNL     1      -0.592  52.044 -25.336  1.00  0.00    -0.004 A 
HETATM   20  C3  UNL     1       0.751  51.779 -25.614  1.00  0.00     0.038 A 
HETATM   21  C2  UNL     1       1.208  51.916 -26.922  1.00  0.00     0.005 A 
HETATM   22  C1  UNL     1       2.645  51.637 -27.251  1.00  0.00     0.068 C 
HETATM   23  N9  UNL     1       0.403  52.297 -27.938  1.00  0.00    -0.369 N 
HETATM   24  C23 UNL     1      -0.895  52.531 -27.650  1.00  0.00     0.089 A 
ATOM     25  H9  UNL     1       0.762  52.404 -28.887  1.00  0.00     0.165 HD
HETATM   26  C22 UNL     1      -1.434  52.418 -26.382  1.00  0.00     0.031 A 
ENDBRANCH  14  19
ENDBRANCH   1   7
BRANCH   4  27
HETATM   27  C10 UNL     1       1.388  51.278 -15.418  1.00  0.00     0.115 C 
HETATM   28  C11 UNL     1       2.786  51.461 -14.819  1.00  0.00     0.037 C 
BRANCH  27  29
HETATM   29  C12 UNL     1       0.287  51.613 -14.424  1.00  0.00    -0.036 A 
HETATM   30  C13 UNL     1       0.525  52.426 -13.304  1.00  0.00     0.011 A 
HETATM   31  C14 UNL     1      -0.510  52.746 -12.421  1.00  0.00     0.032 A 
HETATM   32  C15 UNL     1      -1.806  52.260 -12.643  1.00  0.00     0.057 A 
HETATM   33  C18 UNL     1      -2.055  51.452 -13.758  1.00  0.00     0.032 A 
HETATM   34  C19 UNL     1      -1.016  51.139 -14.641  1.00  0.00     0.011 A 
BRANCH  32  35
HETATM   35  N5  UNL     1      -2.842  52.603 -11.737  1.00  0.00    -0.251 N 
HETATM   36  C16 UNL     1      -3.911  51.847 -11.315  1.00  0.00     0.208 A 
HETATM   37  N6  UNL     1      -4.657  52.527 -10.475  1.00  0.00    -0.346 N 
HETATM   38  C17 UNL     1      -4.006  53.720 -10.399  1.00  0.00     0.199 A 
ATOM     39  H6  UNL     1      -5.510  52.236  -9.998  1.00  0.00     0.167 HD
HETATM   40  N7  UNL     1      -2.901  53.821 -11.138  1.00  0.00    -0.288 N 
ATOM     41  H7  UNL     1      -2.262  54.612 -11.230  1.00  0.00     0.188 HD
ENDBRANCH  32  35
ENDBRANCH  27  29
ENDBRANCH   4  27
TORSDOF 5
ENDMDL
MODEL 7
REMARK minimizedAffinity -9.3014679
REMARK  5 active torsions:
REMARK  status: ('A' for Active; 'I' for Inactive)
REMARK    1  A    between atoms: C4_4  and  C5_5 
REMARK    2  A    between atoms: C8_11  and  N3_12 
REMARK       I    between atoms: N3_12  and  C9_13 
REMARK       I    between atoms: C9_13  and  N4_15 
REMARK    3  A    between atoms: N4_15  and  C10_16 
REMARK    4  A    between atoms: C10_16  and  C12_18 
REMARK    5  A    between atoms: C15_21  and  N5_22 
ROOT
HETATM    1  N3  UNL     1      -4.098  48.771 -27.086  1.00  0.00    -0.295 N 
HETATM    2  C9  UNL     1      -3.159  49.706 -27.426  1.00  0.00     0.322 C 
HETATM    3  O1  UNL     1      -3.063  50.277 -28.504  1.00  0.00    -0.247 OA
HETATM    4  N4  UNL     1      -2.292  49.948 -26.387  1.00  0.00    -0.335 N 
HETATM    5  H7  UNL     1      -4.072  48.361 -26.168  1.00  0.00     0.172 HD
HETATM    6  H8  UNL     1      -2.441  49.490 -25.502  1.00  0.00     0.165 HD
ENDROOT
BRANCH   1   7
HETATM    7  C8  UNL     1      -5.148  48.271 -27.857  1.00  0.00     0.111 A 
HETATM    8  C7  UNL     1      -5.042  47.988 -29.212  1.00  0.00     0.080 A 
HETATM    9  C6  UNL     1      -6.206  47.508 -29.811  1.00  0.00     0.065 A 
HETATM   10  N2  UNL     1      -6.479  47.121 -31.092  1.00  0.00    -0.299 N 
HETATM   11  C21 UNL     1      -7.392  47.328 -29.114  1.00  0.00     0.036 A 
HETATM   12  N1  UNL     1      -7.739  46.701 -31.284  1.00  0.00    -0.299 N 
HETATM   13  H5  UNL     1      -5.845  47.116 -31.884  1.00  0.00     0.187 HD
HETATM   14  C5  UNL     1      -8.327  46.849 -30.083  1.00  0.00     0.072 A 
ATOM     15  H1  UNL     1      -8.156  46.349 -32.145  1.00  0.00     0.187 HD
HETATM   16  C20 UNL     1      -7.402  47.619 -27.749  1.00  0.00     0.105 A 
HETATM   17  N8  UNL     1      -6.283  48.091 -27.141  1.00  0.00    -0.351 N 
ATOM     18  H8  UNL     1      -6.297  48.310 -26.145  1.00  0.00     0.166 HD
BRANCH  14  19
HETATM   19  C4  UNL     1      -9.740  46.522 -29.901  1.00  0.00    -0.004 A 
HETATM   20  C3  UNL     1     -10.562  47.305 -29.086  1.00  0.00     0.038 A 
HETATM   21  C2  UNL     1     -11.901  46.954 -28.944  1.00  0.00     0.005 A 
HETATM   22  C1  UNL     1     -12.808  47.775 -28.076  1.00  0.00     0.068 C 
HETATM   23  N9  UNL     1     -12.443  45.882 -29.565  1.00  0.00    -0.369 N 
HETATM   24  C23 UNL     1     -11.635  45.150 -30.362  1.00  0.00     0.089 A 
ATOM     25  H9  UNL     1     -13.424  45.636 -29.437  1.00  0.00     0.165 HD
HETATM   26  C22 UNL     1     -10.296  45.428 -30.561  1.00  0.00     0.031 A 
ENDBRANCH  14  19
ENDBRANCH   1   7
BRANCH   4  27
HETATM   27  C10 UNL     1      -1.224  50.931 -26.481  1.00  0.00     0.115 C 
HETATM   28  C11 UNL     1      -1.616  52.100 -27.390  1.00  0.00     0.037 C 
BRANCH  27  29
HETATM   29  C12 UNL     1      -0.837  51.391 -25.084  1.00  0.00    -0.036 A 
HETATM   30  C13 UNL     1      -1.472  50.887 -23.938  1.00  0.00     0.011 A 
HETATM   31  C14 UNL     1      -1.078  51.301 -22.663  1.00  0.00     0.032 A 
HETATM   32  C15 UNL     1      -0.038  52.229 -22.510  1.00  0.00     0.057 A 
HETATM   33  C18 UNL     1       0.604  52.736 -23.645  1.00  0.00     0.032 A 
HETATM   34  C19 UNL     1       0.208  52.313 -24.919  1.00  0.00     0.011 A 
BRANCH  32  35
HETATM   35  N5  UNL     1       0.349  52.631 -21.205  1.00  0.00    -0.251 N 
HETATM   36  C16 UNL     1       1.140  53.690 -20.823  1.00  0.00     0.208 A 
HETATM   37  N6  UNL     1       1.272  53.721 -19.516  1.00  0.00    -0.346 N 
HETATM   38  C17 UNL     1       0.535  52.648 -19.118  1.00  0.00     0.199 A 
ATOM     39  H6  UNL     1       1.795  54.383 -18.943  1.00  0.00     0.167 HD
HETATM   40  N7  UNL     1      -0.049  51.955 -20.096  1.00  0.00    -0.288 N 
ATOM     41  H7  UNL     1      -0.642  51.128 -20.028  1.00  0.00     0.188 HD
ENDBRANCH  32  35
ENDBRANCH  27  29
ENDBRANCH   4  27
TORSDOF 5
ENDMDL
MODEL 8
REMARK minimizedAffinity -9.15369606
REMARK  5 active torsions:
REMARK  status: ('A' for Active; 'I' for Inactive)
REMARK    1  A    between atoms: C4_4  and  C5_5 
REMARK    2  A    between atoms: C8_11  and  N3_12 
REMARK       I    between atoms: N3_12  and  C9_13 
REMARK       I    between atoms: C9_13  and  N4_15 
REMARK    3  A    between atoms: N4_15  and  C10_16 
REMARK    4  A    between atoms: C10_16  and  C12_18 
REMARK    5  A    between atoms: C15_21  and  N5_22 
ROOT
HETATM    1  N3  UNL     1      -3.152  48.915 -26.609  1.00  0.00    -0.295 N 
HETATM    2  C9  UNL     1      -3.798  49.166 -27.788  1.00  0.00     0.322 C 
HETATM    3  O1  UNL     1      -3.729  50.195 -28.448  1.00  0.00    -0.247 OA
HETATM    4  N4  UNL     1      -4.571  48.096 -28.174  1.00  0.00    -0.335 N 
HETATM    5  H7  UNL     1      -3.293  48.031 -26.149  1.00  0.00     0.172 HD
HETATM    6  H8  UNL     1      -4.557  47.252 -27.625  1.00  0.00     0.165 HD
ENDROOT
BRANCH   1   7
HETATM    7  C8  UNL     1      -2.275  49.741 -25.904  1.00  0.00     0.111 A 
HETATM    8  C7  UNL     1      -1.171  50.358 -26.476  1.00  0.00     0.080 A 
HETATM    9  C6  UNL     1      -0.407  51.134 -25.604  1.00  0.00     0.065 A 
HETATM   10  N2  UNL     1       0.720  51.882 -25.798  1.00  0.00    -0.299 N 
HETATM   11  C21 UNL     1      -0.716  51.281 -24.259  1.00  0.00     0.036 A 
HETATM   12  N1  UNL     1       1.163  52.505 -24.696  1.00  0.00    -0.299 N 
HETATM   13  H5  UNL     1       1.233  52.012 -26.664  1.00  0.00     0.187 HD
HETATM   14  C5  UNL     1       0.309  52.124 -23.729  1.00  0.00     0.072 A 
ATOM     15  H1  UNL     1       1.966  53.127 -24.611  1.00  0.00     0.187 HD
HETATM   16  C20 UNL     1      -1.857  50.640 -23.775  1.00  0.00     0.105 A 
HETATM   17  N8  UNL     1      -2.617  49.876 -24.602  1.00  0.00    -0.351 N 
ATOM     18  H8  UNL     1      -3.446  49.404 -24.240  1.00  0.00     0.166 HD
BRANCH  14  19
HETATM   19  C4  UNL     1       0.493  52.579 -22.352  1.00  0.00    -0.004 A 
HETATM   20  C3  UNL     1       0.066  51.800 -21.273  1.00  0.00     0.038 A 
HETATM   21  C2  UNL     1       0.263  52.276 -19.980  1.00  0.00     0.005 A 
HETATM   22  C1  UNL     1      -0.184  51.462 -18.801  1.00  0.00     0.068 C 
HETATM   23  N9  UNL     1       0.852  53.465 -19.723  1.00  0.00    -0.369 N 
HETATM   24  C23 UNL     1       1.272  54.193 -20.780  1.00  0.00     0.089 A 
ATOM     25  H9  UNL     1       0.974  53.801 -18.768  1.00  0.00     0.165 HD
HETATM   26  C22 UNL     1       1.119  53.797 -22.095  1.00  0.00     0.031 A 
ENDBRANCH  14  19
ENDBRANCH   1   7
BRANCH   4  27
HETATM   27  C10 UNL     1      -5.329  48.095 -29.415  1.00  0.00     0.115 C 
HETATM   28  C11 UNL     1      -4.788  47.056 -30.402  1.00  0.00     0.037 C 
BRANCH  27  29
HETATM   29  C12 UNL     1      -6.803  47.885 -29.107  1.00  0.00    -0.036 A 
HETATM   30  C13 UNL     1      -7.225  47.102 -28.021  1.00  0.00     0.011 A 
HETATM   31  C14 UNL     1      -8.585  46.948 -27.738  1.00  0.00     0.032 A 
HETATM   32  C15 UNL     1      -9.550  47.577 -28.537  1.00  0.00     0.057 A 
HETATM   33  C18 UNL     1      -9.140  48.363 -29.620  1.00  0.00     0.032 A 
HETATM   34  C19 UNL     1      -7.777  48.516 -29.895  1.00  0.00     0.011 A 
BRANCH  32  35
HETATM   35  N5  UNL     1     -10.925  47.412 -28.228  1.00  0.00    -0.251 N 
HETATM   36  C16 UNL     1     -11.715  46.293 -28.358  1.00  0.00     0.208 A 
HETATM   37  N6  UNL     1     -12.944  46.548 -27.971  1.00  0.00    -0.346 N 
HETATM   38  C17 UNL     1     -12.875  47.855 -27.601  1.00  0.00     0.199 A 
ATOM     39  H6  UNL     1     -13.749  45.922 -27.952  1.00  0.00     0.167 HD
HETATM   40  N7  UNL     1     -11.678  48.428 -27.731  1.00  0.00    -0.288 N 
ATOM     41  H7  UNL     1     -11.400  49.385 -27.514  1.00  0.00     0.188 HD
ENDBRANCH  32  35
ENDBRANCH  27  29
ENDBRANCH   4  27
TORSDOF 5
ENDMDL
MODEL 9
REMARK minimizedAffinity -9.0996294
REMARK  5 active torsions:
REMARK  status: ('A' for Active; 'I' for Inactive)
REMARK    1  A    between atoms: C4_4  and  C5_5 
REMARK    2  A    between atoms: C8_11  and  N3_12 
REMARK       I    between atoms: N3_12  and  C9_13 
REMARK       I    between atoms: C9_13  and  N4_15 
REMARK    3  A    between atoms: N4_15  and  C10_16 
REMARK    4  A    between atoms: C10_16  and  C12_18 
REMARK    5  A    between atoms: C15_21  and  N5_22 
ROOT
HETATM    1  N3  UNL     1      -3.149  50.797 -22.445  1.00  0.00    -0.295 N 
HETATM    2  C9  UNL     1      -3.659  49.540 -22.617  1.00  0.00     0.322 C 
HETATM    3  O1  UNL     1      -3.343  48.538 -21.989  1.00  0.00    -0.247 OA
HETATM    4  N4  UNL     1      -4.602  49.513 -23.616  1.00  0.00    -0.335 N 
HETATM    5  H7  UNL     1      -3.479  51.545 -23.031  1.00  0.00     0.172 HD
HETATM    6  H8  UNL     1      -4.864  50.372 -24.072  1.00  0.00     0.165 HD
ENDROOT
BRANCH   1   7
HETATM    7  C8  UNL     1      -2.188  51.229 -21.530  1.00  0.00     0.111 A 
HETATM    8  C7  UNL     1      -1.225  52.187 -21.819  1.00  0.00     0.080 A 
HETATM    9  C6  UNL     1      -0.344  52.476 -20.776  1.00  0.00     0.065 A 
HETATM   10  N2  UNL     1       0.704  53.347 -20.684  1.00  0.00    -0.299 N 
HETATM   11  C21 UNL     1      -0.412  51.853 -19.539  1.00  0.00     0.036 A 
HETATM   12  N1  UNL     1       1.316  53.346 -19.491  1.00  0.00    -0.299 N 
HETATM   13  H5  UNL     1       1.049  53.976 -21.401  1.00  0.00     0.187 HD
HETATM   14  C5  UNL     1       0.663  52.410 -18.779  1.00  0.00     0.072 A 
ATOM     15  H1  UNL     1       2.100  53.924 -19.190  1.00  0.00     0.187 HD
HETATM   16  C20 UNL     1      -1.426  50.916 -19.330  1.00  0.00     0.105 A 
HETATM   17  N8  UNL     1      -2.296  50.614 -20.329  1.00  0.00    -0.351 N 
ATOM     18  H8  UNL     1      -3.030  49.924 -20.174  1.00  0.00     0.166 HD
BRANCH  14  19
HETATM   19  C4  UNL     1       1.074  52.090 -17.414  1.00  0.00    -0.004 A 
HETATM   20  C3  UNL     1       0.321  51.222 -16.618  1.00  0.00     0.038 A 
HETATM   21  C2  UNL     1       0.754  50.949 -15.324  1.00  0.00     0.005 A 
HETATM   22  C1  UNL     1      -0.033  50.021 -14.447  1.00  0.00     0.068 C 
HETATM   23  N9  UNL     1       1.877  51.490 -14.802  1.00  0.00    -0.369 N 
HETATM   24  C23 UNL     1       2.599  52.311 -15.594  1.00  0.00     0.089 A 
ATOM     25  H9  UNL     1       2.169  51.285 -13.846  1.00  0.00     0.165 HD
HETATM   26  C22 UNL     1       2.245  52.636 -16.890  1.00  0.00     0.031 A 
ENDBRANCH  14  19
ENDBRANCH   1   7
BRANCH   4  27
HETATM   27  C10 UNL     1      -5.324  48.300 -23.969  1.00  0.00     0.115 C 
HETATM   28  C11 UNL     1      -6.722  48.278 -23.343  1.00  0.00     0.037 C 
BRANCH  27  29
HETATM   29  C12 UNL     1      -5.368  48.160 -25.482  1.00  0.00    -0.036 A 
HETATM   30  C13 UNL     1      -6.522  47.722 -26.150  1.00  0.00     0.011 A 
HETATM   31  C14 UNL     1      -6.549  47.631 -27.545  1.00  0.00     0.032 A 
HETATM   32  C15 UNL     1      -5.420  47.979 -28.299  1.00  0.00     0.057 A 
HETATM   33  C18 UNL     1      -4.265  48.421 -27.643  1.00  0.00     0.032 A 
HETATM   34  C19 UNL     1      -4.246  48.514 -26.247  1.00  0.00     0.011 A 
BRANCH  32  35
HETATM   35  N5  UNL     1      -5.472  47.884 -29.714  1.00  0.00    -0.251 N 
HETATM   36  C16 UNL     1      -5.764  46.794 -30.500  1.00  0.00     0.208 A 
HETATM   37  N6  UNL     1      -5.699  47.112 -31.773  1.00  0.00    -0.346 N 
HETATM   38  C17 UNL     1      -5.359  48.428 -31.734  1.00  0.00     0.199 A 
ATOM     39  H6  UNL     1      -5.862  46.519 -32.587  1.00  0.00     0.167 HD
HETATM   40  N7  UNL     1      -5.212  48.950 -30.516  1.00  0.00    -0.288 N 
ATOM     41  H7  UNL     1      -4.967  49.905 -30.254  1.00  0.00     0.188 HD
ENDBRANCH  32  35
ENDBRANCH  27  29
ENDBRANCH   4  27
TORSDOF 5
ENDMDL
