MODEL 1
REMARK minimizedAffinity -10.4425621
REMARK  5 active torsions:
REMARK  status: ('A' for Active; 'I' for Inactive)
REMARK    1  A    between atoms: C4_4  and  C5_5 
REMARK    2  A    between atoms: C8_11  and  N3_12 
REMARK       I    between atoms: N3_12  and  C9_13 
REMARK       I    between atoms: C9_13  and  N4_15 
REMARK    3  A    between atoms: N4_15  and  C10_16 
REMARK    4  A    between atoms: C14_20  and  O2_21 
REMARK    5  A    between atoms: O2_21  and  C15_22 
ROOT
HETATM    1  N3  UNL     1      -2.370  49.185 -23.612  1.00  0.00    -0.295 N 
HETATM    2  C9  UNL     1      -2.076  50.462 -23.190  1.00  0.00     0.322 C 
HETATM    3  O1  UNL     1      -2.529  51.514 -23.616  1.00  0.00    -0.247 OA
HETATM    4  N4  UNL     1      -1.168  50.420 -22.139  1.00  0.00    -0.338 N 
HETATM    5  H7  UNL     1      -2.116  48.442 -22.985  1.00  0.00     0.172 HD
HETATM    6  H8  UNL     1      -0.511  49.656 -22.189  1.00  0.00     0.164 HD
ENDROOT
BRANCH   1   7
HETATM    7  C8  UNL     1      -3.178  48.858 -24.708  1.00  0.00     0.111 A 
HETATM    8  C7  UNL     1      -4.536  48.671 -24.453  1.00  0.00     0.080 A 
HETATM    9  C6  UNL     1      -5.316  48.334 -25.559  1.00  0.00     0.065 A 
HETATM   10  N2  UNL     1      -6.653  48.090 -25.697  1.00  0.00    -0.299 N 
HETATM   11  C23 UNL     1      -4.785  48.184 -26.835  1.00  0.00     0.036 A 
HETATM   12  N1  UNL     1      -7.034  47.808 -26.951  1.00  0.00    -0.299 N 
HETATM   13  H5  UNL     1      -7.363  48.103 -24.976  1.00  0.00     0.187 HD
HETATM   14  C5  UNL     1      -5.895  47.841 -27.668  1.00  0.00     0.072 A 
ATOM     15  H1  UNL     1      -7.977  47.612 -27.286  1.00  0.00     0.187 HD
HETATM   16  C22 UNL     1      -3.416  48.399 -27.001  1.00  0.00     0.105 A 
HETATM   17  N5  UNL     1      -2.639  48.715 -25.934  1.00  0.00    -0.351 N 
ATOM     18  H5  UNL     1      -1.635  48.845 -26.061  1.00  0.00     0.166 HD
BRANCH  14  19
HETATM   19  C4  UNL     1      -5.913  47.566 -29.106  1.00  0.00    -0.004 A 
HETATM   20  C3  UNL     1      -6.459  46.384 -29.617  1.00  0.00     0.038 A 
HETATM   21  C2  UNL     1      -6.435  46.170 -30.991  1.00  0.00     0.005 A 
HETATM   22  C1  UNL     1      -7.005  44.906 -31.565  1.00  0.00     0.068 C 
HETATM   23  N6  UNL     1      -5.911  47.063 -31.861  1.00  0.00    -0.369 N 
HETATM   24  C25 UNL     1      -5.408  48.208 -31.350  1.00  0.00     0.089 A 
ATOM     25  H6  UNL     1      -5.897  46.880 -32.865  1.00  0.00     0.165 HD
HETATM   26  C24 UNL     1      -5.387  48.502 -30.000  1.00  0.00     0.031 A 
ENDBRANCH  14  19
ENDBRANCH   1   7
BRANCH   4  27
HETATM   27  C10 UNL     1      -0.663  51.663 -21.563  1.00  0.00     0.088 C 
HETATM   28  C11 UNL     1       0.558  52.178 -22.332  1.00  0.00     0.025 C 
HETATM   29  C12 UNL     1       1.022  53.538 -21.809  1.00  0.00     0.004 C 
HETATM   30  C13 UNL     1       0.676  53.771 -20.339  1.00  0.00     0.032 C 
HETATM   31  C14 UNL     1       0.698  52.471 -19.533  1.00  0.00     0.131 C 
HETATM   32  C21 UNL     1      -0.336  51.468 -20.075  1.00  0.00     0.057 C 
BRANCH  31  33
HETATM   33  O2  UNL     1       0.395  52.814 -18.176  1.00  0.00    -0.346 OA
BRANCH  33  34
HETATM   34  C15 UNL     1       1.215  52.390 -17.169  1.00  0.00     0.072 A 
HETATM   35  C16 UNL     1       0.620  51.477 -16.288  1.00  0.00     0.038 A 
HETATM   36  C17 UNL     1       1.335  50.948 -15.208  1.00  0.00     0.030 A 
HETATM   37  C18 UNL     1       2.657  51.334 -15.006  1.00  0.00     0.072 A 
HETATM   38 CL1  UNL     1       3.541  50.679 -13.683  1.00  0.00    -0.081 Cl
HETATM   39  C19 UNL     1       3.248  52.245 -15.881  1.00  0.00     0.140 A 
HETATM   40  F1  UNL     1       4.522  52.630 -15.708  1.00  0.00    -0.204 F 
HETATM   41  C20 UNL     1       2.536  52.775 -16.958  1.00  0.00     0.080 A 
ENDBRANCH  33  34
ENDBRANCH  31  33
ENDBRANCH   4  27
TORSDOF 5
ENDMDL
MODEL 2
REMARK minimizedAffinity -10.2981577
REMARK  5 active torsions:
REMARK  status: ('A' for Active; 'I' for Inactive)
REMARK    1  A    between atoms: C4_4  and  C5_5 
REMARK    2  A    between atoms: C8_11  and  N3_12 
REMARK       I    between atoms: N3_12  and  C9_13 
REMARK       I    between atoms: C9_13  and  N4_15 
REMARK    3  A    between atoms: N4_15  and  C10_16 
REMARK    4  A    between atoms: C14_20  and  O2_21 
REMARK    5  A    between atoms: O2_21  and  C15_22 
ROOT
HETATM    1  N3  UNL     1       1.318  53.312 -18.532  1.00  0.00    -0.295 N 
HETATM    2  C9  UNL     1       1.161  52.372 -17.539  1.00  0.00     0.322 C 
HETATM    3  O1  UNL     1       0.851  51.197 -17.663  1.00  0.00    -0.247 OA
HETATM    4  N4  UNL     1       1.440  52.936 -16.300  1.00  0.00    -0.338 N 
HETATM    5  H7  UNL     1       1.826  54.142 -18.281  1.00  0.00     0.172 HD
HETATM    6  H8  UNL     1       1.194  53.912 -16.224  1.00  0.00     0.164 HD
ENDROOT
BRANCH   1   7
HETATM    7  C8  UNL     1       1.034  53.114 -19.890  1.00  0.00     0.111 A 
HETATM    8  C7  UNL     1       1.495  54.088 -20.776  1.00  0.00     0.080 A 
HETATM    9  C6  UNL     1       1.187  53.873 -22.119  1.00  0.00     0.065 A 
HETATM   10  N2  UNL     1       1.473  54.585 -23.249  1.00  0.00    -0.299 N 
HETATM   11  C23 UNL     1       0.464  52.770 -22.557  1.00  0.00     0.036 A 
HETATM   12  N1  UNL     1       1.010  54.033 -24.379  1.00  0.00    -0.299 N 
HETATM   13  H5  UNL     1       1.985  55.455 -23.321  1.00  0.00     0.187 HD
HETATM   14  C5  UNL     1       0.367  52.921 -23.976  1.00  0.00     0.072 A 
ATOM     15  H1  UNL     1       1.120  54.379 -25.332  1.00  0.00     0.187 HD
HETATM   16  C22 UNL     1       0.050  51.840 -21.602  1.00  0.00     0.105 A 
HETATM   17  N5  UNL     1       0.328  52.039 -20.289  1.00  0.00    -0.351 N 
ATOM     18  H5  UNL     1      -0.001  51.367 -19.596  1.00  0.00     0.166 HD
BRANCH  14  19
HETATM   19  C4  UNL     1      -0.293  52.048 -24.949  1.00  0.00    -0.004 A 
HETATM   20  C3  UNL     1      -1.260  51.117 -24.558  1.00  0.00     0.038 A 
HETATM   21  C2  UNL     1      -1.842  50.303 -25.525  1.00  0.00     0.005 A 
HETATM   22  C1  UNL     1      -2.874  49.289 -25.132  1.00  0.00     0.068 C 
HETATM   23  N6  UNL     1      -1.517  50.380 -26.836  1.00  0.00    -0.369 N 
HETATM   24  C25 UNL     1      -0.596  51.300 -27.196  1.00  0.00     0.089 A 
ATOM     25  H6  UNL     1      -1.951  49.766 -27.526  1.00  0.00     0.165 HD
HETATM   26  C24 UNL     1       0.034  52.145 -26.303  1.00  0.00     0.031 A 
ENDBRANCH  14  19
ENDBRANCH   1   7
BRANCH   4  27
HETATM   27  C10 UNL     1       1.285  52.140 -15.087  1.00  0.00     0.088 C 
HETATM   28  C11 UNL     1       2.507  51.246 -14.847  1.00  0.00     0.025 C 
HETATM   29  C12 UNL     1       2.404  50.495 -13.519  1.00  0.00     0.004 C 
HETATM   30  C13 UNL     1       0.964  50.250 -13.072  1.00  0.00     0.032 C 
HETATM   31  C14 UNL     1       0.021  50.055 -14.260  1.00  0.00     0.131 C 
HETATM   32  C21 UNL     1      -0.003  51.306 -15.156  1.00  0.00     0.057 C 
BRANCH  31  33
HETATM   33  O2  UNL     1      -1.282  49.801 -13.724  1.00  0.00    -0.346 OA
BRANCH  33  34
HETATM   34  C15 UNL     1      -1.957  50.796 -13.077  1.00  0.00     0.072 A 
HETATM   35  C16 UNL     1      -1.699  50.867 -11.701  1.00  0.00     0.038 A 
HETATM   36  C17 UNL     1      -2.312  51.838 -10.903  1.00  0.00     0.030 A 
HETATM   37  C18 UNL     1      -3.191  52.747 -11.483  1.00  0.00     0.072 A 
HETATM   38 CL1  UNL     1      -3.941  53.948 -10.504  1.00  0.00    -0.081 Cl
HETATM   39  C19 UNL     1      -3.451  52.675 -12.851  1.00  0.00     0.140 A 
HETATM   40  F1  UNL     1      -4.294  53.542 -13.433  1.00  0.00    -0.204 F 
HETATM   41  C20 UNL     1      -2.842  51.706 -13.649  1.00  0.00     0.080 A 
ENDBRANCH  33  34
ENDBRANCH  31  33
ENDBRANCH   4  27
TORSDOF 5
ENDMDL
MODEL 3
REMARK minimizedAffinity -10.2853222
REMARK  5 active torsions:
REMARK  status: ('A' for Active; 'I' for Inactive)
REMARK    1  A    between atoms: C4_4  and  C5_5 
REMARK    2  A    between atoms: C8_11  and  N3_12 
REMARK       I    between atoms: N3_12  and  C9_13 
REMARK       I    between atoms: C9_13  and  N4_15 
REMARK    3  A    between atoms: N4_15  and  C10_16 
REMARK    4  A    between atoms: C14_20  and  O2_21 
REMARK    5  A    between atoms: O2_21  and  C15_22 
ROOT
HETATM    1  N3  UNL     1       1.011  52.882 -18.260  1.00  0.00    -0.295 N 
HETATM    2  C9  UNL     1       0.618  51.840 -17.451  1.00  0.00     0.322 C 
HETATM    3  O1  UNL     1       0.213  50.739 -17.791  1.00  0.00    -0.247 OA
HETATM    4  N4  UNL     1       0.768  52.191 -16.114  1.00  0.00    -0.338 N 
HETATM    5  H7  UNL     1       1.558  53.602 -17.823  1.00  0.00     0.172 HD
HETATM    6  H8  UNL     1       0.613  53.170 -15.924  1.00  0.00     0.164 HD
ENDROOT
BRANCH   1   7
HETATM    7  C8  UNL     1       0.909  52.907 -19.657  1.00  0.00     0.111 A 
HETATM    8  C7  UNL     1       1.427  54.029 -20.304  1.00  0.00     0.080 A 
HETATM    9  C6  UNL     1       1.301  54.035 -21.693  1.00  0.00     0.065 A 
HETATM   10  N2  UNL     1       1.689  54.935 -22.644  1.00  0.00    -0.299 N 
HETATM   11  C23 UNL     1       0.695  53.000 -22.397  1.00  0.00     0.036 A 
HETATM   12  N1  UNL     1       1.399  54.568 -23.900  1.00  0.00    -0.299 N 
HETATM   13  H5  UNL     1       2.160  55.820 -22.504  1.00  0.00     0.187 HD
HETATM   14  C5  UNL     1       0.768  53.385 -23.772  1.00  0.00     0.072 A 
ATOM     15  H1  UNL     1       1.609  55.072 -24.761  1.00  0.00     0.187 HD
HETATM   16  C22 UNL     1       0.213  51.911 -21.669  1.00  0.00     0.105 A 
HETATM   17  N5  UNL     1       0.315  51.894 -20.316  1.00  0.00    -0.351 N 
ATOM     18  H5  UNL     1      -0.063  51.105 -19.792  1.00  0.00     0.166 HD
BRANCH  14  19
HETATM   19  C4  UNL     1       0.281  52.670 -24.953  1.00  0.00    -0.004 A 
HETATM   20  C3  UNL     1      -1.081  52.611 -25.261  1.00  0.00     0.038 A 
HETATM   21  C2  UNL     1      -1.487  51.904 -26.389  1.00  0.00     0.005 A 
HETATM   22  C1  UNL     1      -2.943  51.816 -26.737  1.00  0.00     0.068 C 
HETATM   23  N6  UNL     1      -0.615  51.273 -27.209  1.00  0.00    -0.369 N 
HETATM   24  C25 UNL     1       0.698  51.360 -26.905  1.00  0.00     0.089 A 
ATOM     25  H6  UNL     1      -0.938  50.753 -28.026  1.00  0.00     0.165 HD
HETATM   26  C24 UNL     1       1.189  52.037 -25.805  1.00  0.00     0.031 A 
ENDBRANCH  14  19
ENDBRANCH   1   7
BRANCH   4  27
HETATM   27  C10 UNL     1       0.359  51.261 -15.067  1.00  0.00     0.088 C 
HETATM   28  C11 UNL     1       1.249  50.013 -15.052  1.00  0.00     0.025 C 
HETATM   29  C12 UNL     1       0.902  49.087 -13.885  1.00  0.00     0.004 C 
HETATM   30  C13 UNL     1      -0.552  49.204 -13.431  1.00  0.00     0.032 C 
HETATM   31  C14 UNL     1      -1.489  49.534 -14.594  1.00  0.00     0.131 C 
HETATM   32  C21 UNL     1      -1.119  50.882 -15.237  1.00  0.00     0.057 C 
BRANCH  31  33
HETATM   33  O2  UNL     1      -2.817  49.584 -14.060  1.00  0.00    -0.346 OA
BRANCH  33  34
HETATM   34  C15 UNL     1      -3.133  50.513 -13.110  1.00  0.00     0.072 A 
HETATM   35  C16 UNL     1      -3.260  51.819 -13.599  1.00  0.00     0.038 A 
HETATM   36  C17 UNL     1      -3.586  52.880 -12.748  1.00  0.00     0.030 A 
HETATM   37  C18 UNL     1      -3.786  52.633 -11.392  1.00  0.00     0.072 A 
HETATM   38 CL1  UNL     1      -4.195  53.935 -10.343  1.00  0.00    -0.081 Cl
HETATM   39  C19 UNL     1      -3.657  51.334 -10.903  1.00  0.00     0.140 A 
HETATM   40  F1  UNL     1      -3.848  51.072  -9.601  1.00  0.00    -0.204 F 
HETATM   41  C20 UNL     1      -3.330  50.274 -11.752  1.00  0.00     0.080 A 
ENDBRANCH  33  34
ENDBRANCH  31  33
ENDBRANCH   4  27
TORSDOF 5
ENDMDL
MODEL 4
REMARK minimizedAffinity -10.158762
REMARK  5 active torsions:
REMARK  status: ('A' for Active; 'I' for Inactive)
REMARK    1  A    between atoms: C4_4  and  C5_5 
REMARK    2  A    between atoms: C8_11  and  N3_12 
REMARK       I    between atoms: N3_12  and  C9_13 
REMARK       I    between atoms: C9_13  and  N4_15 
REMARK    3  A    between atoms: N4_15  and  C10_16 
REMARK    4  A    between atoms: C14_20  and  O2_21 
REMARK    5  A    between atoms: O2_21  and  C15_22 
ROOT
HETATM    1  N3  UNL     1      -3.784  48.637 -27.163  1.00  0.00    -0.295 N 
HETATM    2  C9  UNL     1      -3.095  49.825 -27.071  1.00  0.00     0.322 C 
HETATM    3  O1  UNL     1      -3.335  50.876 -27.647  1.00  0.00    -0.247 OA
HETATM    4  N4  UNL     1      -2.044  49.699 -26.171  1.00  0.00    -0.338 N 
HETATM    5  H7  UNL     1      -3.614  47.968 -26.432  1.00  0.00     0.172 HD
HETATM    6  H8  UNL     1      -1.628  48.780 -26.146  1.00  0.00     0.164 HD
ENDROOT
BRANCH   1   7
HETATM    7  C8  UNL     1      -4.845  48.379 -28.041  1.00  0.00     0.111 A 
HETATM    8  C7  UNL     1      -4.554  48.414 -29.404  1.00  0.00     0.080 A 
HETATM    9  C6  UNL     1      -5.631  48.166 -30.256  1.00  0.00     0.065 A 
HETATM   10  N2  UNL     1      -5.727  48.107 -31.617  1.00  0.00    -0.299 N 
HETATM   11  C23 UNL     1      -6.914  47.909 -29.789  1.00  0.00     0.036 A 
HETATM   12  N1  UNL     1      -6.955  47.821 -32.070  1.00  0.00    -0.299 N 
HETATM   13  H5  UNL     1      -4.991  48.248 -32.297  1.00  0.00     0.187 HD
HETATM   14  C5  UNL     1      -7.710  47.713 -30.960  1.00  0.00     0.072 A 
ATOM     15  H1  UNL     1      -7.252  47.711 -33.039  1.00  0.00     0.187 HD
HETATM   16  C22 UNL     1      -7.113  47.884 -28.407  1.00  0.00     0.105 A 
HETATM   17  N5  UNL     1      -6.080  48.135 -27.563  1.00  0.00    -0.351 N 
ATOM     18  H5  UNL     1      -6.241  48.140 -26.556  1.00  0.00     0.166 HD
BRANCH  14  19
HETATM   19  C4  UNL     1      -9.140  47.413 -31.059  1.00  0.00    -0.004 A 
HETATM   20  C3  UNL     1     -10.033  47.767 -30.042  1.00  0.00     0.038 A 
HETATM   21  C2  UNL     1     -11.379  47.444 -30.184  1.00  0.00     0.005 A 
HETATM   22  C1  UNL     1     -12.356  47.802 -29.104  1.00  0.00     0.068 C 
HETATM   23  N6  UNL     1     -11.866  46.806 -31.273  1.00  0.00    -0.369 N 
HETATM   24  C25 UNL     1     -10.991  46.492 -32.253  1.00  0.00     0.089 A 
ATOM     25  H6  UNL     1     -12.856  46.571 -31.351  1.00  0.00     0.165 HD
HETATM   26  C24 UNL     1      -9.639  46.772 -32.194  1.00  0.00     0.031 A 
ENDBRANCH  14  19
ENDBRANCH   1   7
BRANCH   4  27
HETATM   27  C10 UNL     1      -1.135  50.820 -25.952  1.00  0.00     0.088 C 
HETATM   28  C11 UNL     1       0.285  50.487 -26.421  1.00  0.00     0.025 C 
HETATM   29  C12 UNL     1       1.216  51.694 -26.304  1.00  0.00     0.004 C 
HETATM   30  C13 UNL     1       0.799  52.675 -25.209  1.00  0.00     0.032 C 
HETATM   31  C14 UNL     1       0.134  51.966 -24.028  1.00  0.00     0.131 C 
HETATM   32  C21 UNL     1      -1.144  51.234 -24.473  1.00  0.00     0.057 C 
BRANCH  31  33
HETATM   33  O2  UNL     1      -0.180  52.972 -23.059  1.00  0.00    -0.346 OA
BRANCH  33  34
HETATM   34  C15 UNL     1       0.063  52.740 -21.735  1.00  0.00     0.072 A 
HETATM   35  C16 UNL     1       0.833  53.730 -21.108  1.00  0.00     0.038 A 
HETATM   36  C17 UNL     1       1.161  53.635 -19.752  1.00  0.00     0.030 A 
HETATM   37  C18 UNL     1       0.717  52.542 -19.014  1.00  0.00     0.072 A 
HETATM   38 CL1  UNL     1       1.113  52.428 -17.343  1.00  0.00    -0.081 Cl
HETATM   39  C19 UNL     1      -0.046  51.556 -19.637  1.00  0.00     0.140 A 
HETATM   40  F1  UNL     1      -0.487  50.494 -18.945  1.00  0.00    -0.204 F 
HETATM   41  C20 UNL     1      -0.373  51.647 -20.991  1.00  0.00     0.080 A 
ENDBRANCH  33  34
ENDBRANCH  31  33
ENDBRANCH   4  27
TORSDOF 5
ENDMDL
MODEL 5
REMARK minimizedAffinity -10.0950298
REMARK  5 active torsions:
REMARK  status: ('A' for Active; 'I' for Inactive)
REMARK    1  A    between atoms: C4_4  and  C5_5 
REMARK    2  A    between atoms: C8_11  and  N3_12 
REMARK       I    between atoms: N3_12  and  C9_13 
REMARK       I    between atoms: C9_13  and  N4_15 
REMARK    3  A    between atoms: N4_15  and  C10_16 
REMARK    4  A    between atoms: C14_20  and  O2_21 
REMARK    5  A    between atoms: O2_21  and  C15_22 
ROOT
HETATM    1  N3  UNL     1      -2.580  49.243 -23.564  1.00  0.00    -0.295 N 
HETATM    2  C9  UNL     1      -2.171  50.514 -23.229  1.00  0.00     0.322 C 
HETATM    3  O1  UNL     1      -2.468  51.565 -23.777  1.00  0.00    -0.247 OA
HETATM    4  N4  UNL     1      -1.351  50.471 -22.107  1.00  0.00    -0.338 N 
HETATM    5  H7  UNL     1      -2.459  48.538 -22.858  1.00  0.00     0.172 HD
HETATM    6  H8  UNL     1      -0.785  49.639 -22.040  1.00  0.00     0.164 HD
ENDROOT
BRANCH   1   7
HETATM    7  C8  UNL     1      -3.342  48.906 -24.690  1.00  0.00     0.111 A 
HETATM    8  C7  UNL     1      -4.698  48.662 -24.481  1.00  0.00     0.080 A 
HETATM    9  C6  UNL     1      -5.431  48.315 -25.616  1.00  0.00     0.065 A 
HETATM   10  N2  UNL     1      -6.751  48.023 -25.800  1.00  0.00    -0.299 N 
HETATM   11  C23 UNL     1      -4.855  48.210 -26.877  1.00  0.00     0.036 A 
HETATM   12  N1  UNL     1      -7.083  47.750 -27.070  1.00  0.00    -0.299 N 
HETATM   13  H5  UNL     1      -7.483  47.995 -25.102  1.00  0.00     0.187 HD
HETATM   14  C5  UNL     1      -5.925  47.841 -27.751  1.00  0.00     0.072 A 
ATOM     15  H1  UNL     1      -8.007  47.524 -27.438  1.00  0.00     0.187 HD
HETATM   16  C22 UNL     1      -3.492  48.481 -26.997  1.00  0.00     0.105 A 
HETATM   17  N5  UNL     1      -2.760  48.807 -25.901  1.00  0.00    -0.351 N 
ATOM     18  H5  UNL     1      -1.759  48.978 -25.995  1.00  0.00     0.166 HD
BRANCH  14  19
HETATM   19  C4  UNL     1      -5.889  47.592 -29.193  1.00  0.00    -0.004 A 
HETATM   20  C3  UNL     1      -6.414  46.419 -29.746  1.00  0.00     0.038 A 
HETATM   21  C2  UNL     1      -6.338  46.230 -31.122  1.00  0.00     0.005 A 
HETATM   22  C1  UNL     1      -6.884  44.978 -31.740  1.00  0.00     0.068 C 
HETATM   23  N6  UNL     1      -5.782  47.140 -31.955  1.00  0.00    -0.369 N 
HETATM   24  C25 UNL     1      -5.300  48.275 -31.404  1.00  0.00     0.089 A 
ATOM     25  H6  UNL     1      -5.729  46.975 -32.961  1.00  0.00     0.165 HD
HETATM   26  C24 UNL     1      -5.330  48.544 -30.049  1.00  0.00     0.031 A 
ENDBRANCH  14  19
ENDBRANCH   1   7
BRANCH   4  27
HETATM   27  C10 UNL     1      -0.748  51.700 -21.600  1.00  0.00     0.088 C 
HETATM   28  C11 UNL     1       0.497  52.084 -22.406  1.00  0.00     0.025 C 
HETATM   29  C12 UNL     1       1.068  53.430 -21.956  1.00  0.00     0.004 C 
HETATM   30  C13 UNL     1       0.760  53.760 -20.496  1.00  0.00     0.032 C 
HETATM   31  C14 UNL     1       0.697  52.503 -19.627  1.00  0.00     0.131 C 
HETATM   32  C21 UNL     1      -0.416  51.555 -20.107  1.00  0.00     0.057 C 
BRANCH  31  33
HETATM   33  O2  UNL     1       0.439  52.934 -18.285  1.00  0.00    -0.346 OA
BRANCH  33  34
HETATM   34  C15 UNL     1       1.078  52.327 -17.242  1.00  0.00     0.072 A 
HETATM   35  C16 UNL     1       2.346  52.852 -16.959  1.00  0.00     0.038 A 
HETATM   36  C17 UNL     1       3.121  52.339 -15.914  1.00  0.00     0.030 A 
HETATM   37  C18 UNL     1       2.625  51.291 -15.144  1.00  0.00     0.072 A 
HETATM   38 CL1  UNL     1       3.574  50.662 -13.852  1.00  0.00    -0.081 Cl
HETATM   39  C19 UNL     1       1.365  50.766 -15.427  1.00  0.00     0.140 A 
HETATM   40  F1  UNL     1       0.865  49.757 -14.697  1.00  0.00    -0.204 F 
HETATM   41  C20 UNL     1       0.590  51.276 -16.470  1.00  0.00     0.080 A 
ENDBRANCH  33  34
ENDBRANCH  31  33
ENDBRANCH   4  27
TORSDOF 5
ENDMDL
MODEL 6
REMARK minimizedAffinity -10.0862579
REMARK  5 active torsions:
REMARK  status: ('A' for Active; 'I' for Inactive)
REMARK    1  A    between atoms: C4_4  and  C5_5 
REMARK    2  A    between atoms: C8_11  and  N3_12 
REMARK       I    between atoms: N3_12  and  C9_13 
REMARK       I    between atoms: C9_13  and  N4_15 
REMARK    3  A    between atoms: N4_15  and  C10_16 
REMARK    4  A    between atoms: C14_20  and  O2_21 
REMARK    5  A    between atoms: O2_21  and  C15_22 
ROOT
HETATM    1  N3  UNL     1      -2.820  49.167 -23.005  1.00  0.00    -0.295 N 
HETATM    2  C9  UNL     1      -2.390  50.440 -22.707  1.00  0.00     0.322 C 
HETATM    3  O1  UNL     1      -2.710  51.485 -23.252  1.00  0.00    -0.247 OA
HETATM    4  N4  UNL     1      -1.514  50.407 -21.628  1.00  0.00    -0.338 N 
HETATM    5  H7  UNL     1      -2.667  48.470 -22.298  1.00  0.00     0.172 HD
HETATM    6  H8  UNL     1      -0.949  49.573 -21.579  1.00  0.00     0.164 HD
ENDROOT
BRANCH   1   7
HETATM    7  C8  UNL     1      -3.638  48.820 -24.088  1.00  0.00     0.111 A 
HETATM    8  C7  UNL     1      -3.041  48.806 -25.348  1.00  0.00     0.080 A 
HETATM    9  C6  UNL     1      -3.881  48.470 -26.410  1.00  0.00     0.065 A 
HETATM   10  N2  UNL     1      -3.655  48.345 -27.750  1.00  0.00    -0.299 N 
HETATM   11  C23 UNL     1      -5.227  48.173 -26.237  1.00  0.00     0.036 A 
HETATM   12  N1  UNL     1      -4.734  47.981 -28.458  1.00  0.00    -0.299 N 
HETATM   13  H5  UNL     1      -2.787  48.489 -28.250  1.00  0.00     0.187 HD
HETATM   14  C5  UNL     1      -5.722  47.887 -27.547  1.00  0.00     0.072 A 
ATOM     15  H1  UNL     1      -4.794  47.813 -29.462  1.00  0.00     0.187 HD
HETATM   16  C22 UNL     1      -5.740  48.201 -24.939  1.00  0.00     0.105 A 
HETATM   17  N5  UNL     1      -4.941  48.539 -23.895  1.00  0.00    -0.351 N 
ATOM     18  H5  UNL     1      -5.332  48.582 -22.954  1.00  0.00     0.166 HD
BRANCH  14  19
HETATM   19  C4  UNL     1      -7.078  47.516 -27.956  1.00  0.00    -0.004 A 
HETATM   20  C3  UNL     1      -7.740  48.188 -28.988  1.00  0.00     0.038 A 
HETATM   21  C2  UNL     1      -9.034  47.801 -29.323  1.00  0.00     0.005 A 
HETATM   22  C1  UNL     1      -9.771  48.512 -30.420  1.00  0.00     0.068 C 
HETATM   23  N6  UNL     1      -9.680  46.792 -28.696  1.00  0.00    -0.369 N 
HETATM   24  C25 UNL     1      -9.016  46.142 -27.716  1.00  0.00     0.089 A 
ATOM     25  H6  UNL     1     -10.633  46.532 -28.954  1.00  0.00     0.165 HD
HETATM   26  C24 UNL     1      -7.733  46.460 -27.317  1.00  0.00     0.031 A 
ENDBRANCH  14  19
ENDBRANCH   1   7
BRANCH   4  27
HETATM   27  C10 UNL     1      -0.882  51.638 -21.166  1.00  0.00     0.088 C 
HETATM   28  C11 UNL     1       0.300  52.027 -22.060  1.00  0.00     0.025 C 
HETATM   29  C12 UNL     1       0.896  53.376 -21.654  1.00  0.00     0.004 C 
HETATM   30  C13 UNL     1       0.693  53.706 -20.176  1.00  0.00     0.032 C 
HETATM   31  C14 UNL     1       0.697  52.450 -19.303  1.00  0.00     0.131 C 
HETATM   32  C21 UNL     1      -0.442  51.497 -19.701  1.00  0.00     0.057 C 
BRANCH  31  33
HETATM   33  O2  UNL     1       0.535  52.882 -17.947  1.00  0.00    -0.346 OA
BRANCH  33  34
HETATM   34  C15 UNL     1       1.374  52.410 -16.978  1.00  0.00     0.072 A 
HETATM   35  C16 UNL     1       0.752  51.589 -16.027  1.00  0.00     0.038 A 
HETATM   36  C17 UNL     1       1.481  51.025 -14.976  1.00  0.00     0.030 A 
HETATM   37  C18 UNL     1       2.845  51.282 -14.872  1.00  0.00     0.072 A 
HETATM   38 CL1  UNL     1       3.746  50.583 -13.583  1.00  0.00    -0.081 Cl
HETATM   39  C19 UNL     1       3.464  52.101 -15.816  1.00  0.00     0.140 A 
HETATM   40  F1  UNL     1       4.778  52.361 -15.738  1.00  0.00    -0.204 F 
HETATM   41  C20 UNL     1       2.737  52.666 -16.865  1.00  0.00     0.080 A 
ENDBRANCH  33  34
ENDBRANCH  31  33
ENDBRANCH   4  27
TORSDOF 5
ENDMDL
MODEL 7
REMARK minimizedAffinity -10.0657663
REMARK  5 active torsions:
REMARK  status: ('A' for Active; 'I' for Inactive)
REMARK    1  A    between atoms: C4_4  and  C5_5 
REMARK    2  A    between atoms: C8_11  and  N3_12 
REMARK       I    between atoms: N3_12  and  C9_13 
REMARK       I    between atoms: C9_13  and  N4_15 
REMARK    3  A    between atoms: N4_15  and  C10_16 
REMARK    4  A    between atoms: C14_20  and  O2_21 
REMARK    5  A    between atoms: O2_21  and  C15_22 
ROOT
HETATM    1  N3  UNL     1       1.063  53.020 -18.142  1.00  0.00    -0.295 N 
HETATM    2  C9  UNL     1       0.786  51.987 -17.276  1.00  0.00     0.322 C 
HETATM    3  O1  UNL     1       0.479  50.838 -17.555  1.00  0.00    -0.247 OA
HETATM    4  N4  UNL     1       0.929  52.416 -15.961  1.00  0.00    -0.338 N 
HETATM    5  H7  UNL     1       1.549  53.809 -17.751  1.00  0.00     0.172 HD
HETATM    6  H8  UNL     1       0.687  53.384 -15.812  1.00  0.00     0.164 HD
ENDROOT
BRANCH   1   7
HETATM    7  C8  UNL     1       0.931  52.969 -19.536  1.00  0.00     0.111 A 
HETATM    8  C7  UNL     1       1.405  54.067 -20.252  1.00  0.00     0.080 A 
HETATM    9  C6  UNL     1       1.250  53.996 -21.637  1.00  0.00     0.065 A 
HETATM   10  N2  UNL     1       1.594  54.854 -22.642  1.00  0.00    -0.299 N 
HETATM   11  C23 UNL     1       0.658  52.910 -22.271  1.00  0.00     0.036 A 
HETATM   12  N1  UNL     1       1.288  54.413 -23.870  1.00  0.00    -0.299 N 
HETATM   13  H5  UNL     1       2.044  55.756 -22.560  1.00  0.00     0.187 HD
HETATM   14  C5  UNL     1       0.692  53.223 -23.666  1.00  0.00     0.072 A 
ATOM     15  H1  UNL     1       1.466  54.876 -24.761  1.00  0.00     0.187 HD
HETATM   16  C22 UNL     1       0.221  51.849 -21.476  1.00  0.00     0.105 A 
HETATM   17  N5  UNL     1       0.351  51.907 -20.126  1.00  0.00    -0.351 N 
ATOM     18  H5  UNL     1       0.005  51.137 -19.553  1.00  0.00     0.166 HD
BRANCH  14  19
HETATM   19  C4  UNL     1       0.199  52.433 -24.796  1.00  0.00    -0.004 A 
HETATM   20  C3  UNL     1       0.839  52.459 -26.039  1.00  0.00     0.038 A 
HETATM   21  C2  UNL     1       0.318  51.698 -27.081  1.00  0.00     0.005 A 
HETATM   22  C1  UNL     1       0.978  51.716 -28.428  1.00  0.00     0.068 C 
HETATM   23  N6  UNL     1      -0.783  50.924 -26.941  1.00  0.00    -0.369 N 
HETATM   24  C25 UNL     1      -1.374  50.897 -25.727  1.00  0.00     0.089 A 
ATOM     25  H6  UNL     1      -1.152  50.382 -27.723  1.00  0.00     0.165 HD
HETATM   26  C24 UNL     1      -0.926  51.621 -24.639  1.00  0.00     0.031 A 
ENDBRANCH  14  19
ENDBRANCH   1   7
BRANCH   4  27
HETATM   27  C10 UNL     1       0.631  51.503 -14.862  1.00  0.00     0.088 C 
HETATM   28  C11 UNL     1      -0.621  50.668 -15.155  1.00  0.00     0.025 C 
HETATM   29  C12 UNL     1      -0.874  49.629 -14.063  1.00  0.00     0.004 C 
HETATM   30  C13 UNL     1      -0.322  50.038 -12.699  1.00  0.00     0.032 C 
HETATM   31  C14 UNL     1      -0.372  51.552 -12.492  1.00  0.00     0.131 C 
HETATM   32  C21 UNL     1       0.478  52.282 -13.547  1.00  0.00     0.057 C 
BRANCH  31  33
HETATM   33  O2  UNL     1       0.134  51.813 -11.178  1.00  0.00    -0.346 OA
BRANCH  33  34
HETATM   34  C15 UNL     1       1.016  52.837 -10.980  1.00  0.00     0.072 A 
HETATM   35  C16 UNL     1       0.420  54.102 -10.888  1.00  0.00     0.038 A 
HETATM   36  C17 UNL     1       1.192  55.249 -10.681  1.00  0.00     0.030 A 
HETATM   37  C18 UNL     1       2.574  55.133 -10.563  1.00  0.00     0.072 A 
HETATM   38 CL1  UNL     1       3.526  56.542 -10.299  1.00  0.00    -0.081 Cl
HETATM   39  C19 UNL     1       3.169  53.875 -10.656  1.00  0.00     0.140 A 
HETATM   40  F1  UNL     1       4.499  53.738 -10.544  1.00  0.00    -0.204 F 
HETATM   41  C20 UNL     1       2.399  52.729 -10.865  1.00  0.00     0.080 A 
ENDBRANCH  33  34
ENDBRANCH  31  33
ENDBRANCH   4  27
TORSDOF 5
ENDMDL
MODEL 8
REMARK minimizedAffinity -10.0339766
REMARK  5 active torsions:
REMARK  status: ('A' for Active; 'I' for Inactive)
REMARK    1  A    between atoms: C4_4  and  C5_5 
REMARK    2  A    between atoms: C8_11  and  N3_12 
REMARK       I    between atoms: N3_12  and  C9_13 
REMARK       I    between atoms: C9_13  and  N4_15 
REMARK    3  A    between atoms: N4_15  and  C10_16 
REMARK    4  A    between atoms: C14_20  and  O2_21 
REMARK    5  A    between atoms: O2_21  and  C15_22 
ROOT
HETATM    1  N3  UNL     1       1.081  53.244 -18.453  1.00  0.00    -0.295 N 
HETATM    2  C9  UNL     1       1.064  52.329 -17.424  1.00  0.00     0.322 C 
HETATM    3  O1  UNL     1       0.827  51.132 -17.491  1.00  0.00    -0.247 OA
HETATM    4  N4  UNL     1       1.394  52.952 -16.226  1.00  0.00    -0.338 N 
HETATM    5  H7  UNL     1       1.548  54.113 -18.265  1.00  0.00     0.172 HD
HETATM    6  H8  UNL     1       1.088  53.911 -16.160  1.00  0.00     0.164 HD
ENDROOT
BRANCH   1   7
HETATM    7  C8  UNL     1       0.711  52.982 -19.779  1.00  0.00     0.111 A 
HETATM    8  C7  UNL     1      -0.450  52.234 -19.970  1.00  0.00     0.080 A 
HETATM    9  C6  UNL     1      -0.788  51.976 -21.299  1.00  0.00     0.065 A 
HETATM   10  N2  UNL     1      -1.833  51.303 -21.864  1.00  0.00    -0.299 N 
HETATM   11  C23 UNL     1      -0.022  52.423 -22.369  1.00  0.00     0.036 A 
HETATM   12  N1  UNL     1      -1.817  51.288 -23.204  1.00  0.00    -0.299 N 
HETATM   13  H5  UNL     1      -2.596  50.834 -21.392  1.00  0.00     0.187 HD
HETATM   14  C5  UNL     1      -0.698  51.957 -23.539  1.00  0.00     0.072 A 
ATOM     15  H1  UNL     1      -2.501  50.863 -23.830  1.00  0.00     0.187 HD
HETATM   16  C22 UNL     1       1.120  53.174 -22.085  1.00  0.00     0.105 A 
HETATM   17  N5  UNL     1       1.472  53.423 -20.798  1.00  0.00    -0.351 N 
ATOM     18  H5  UNL     1       2.322  53.951 -20.601  1.00  0.00     0.166 HD
BRANCH  14  19
HETATM   19  C4  UNL     1      -0.331  52.137 -24.945  1.00  0.00    -0.004 A 
HETATM   20  C3  UNL     1       0.941  51.799 -25.417  1.00  0.00     0.038 A 
HETATM   21  C2  UNL     1       1.237  52.006 -26.761  1.00  0.00     0.005 A 
HETATM   22  C1  UNL     1       2.597  51.662 -27.292  1.00  0.00     0.068 C 
HETATM   23  N6  UNL     1       0.341  52.516 -27.637  1.00  0.00    -0.369 N 
HETATM   24  C25 UNL     1      -0.888  52.817 -27.165  1.00  0.00     0.089 A 
ATOM     25  H6  UNL     1       0.585  52.668 -28.616  1.00  0.00     0.165 HD
HETATM   26  C24 UNL     1      -1.268  52.647 -25.848  1.00  0.00     0.031 A 
ENDBRANCH  14  19
ENDBRANCH   1   7
BRANCH   4  27
HETATM   27  C10 UNL     1       1.385  52.188 -14.983  1.00  0.00     0.088 C 
HETATM   28  C11 UNL     1       2.670  51.369 -14.823  1.00  0.00     0.025 C 
HETATM   29  C12 UNL     1       2.721  50.657 -13.471  1.00  0.00     0.004 C 
HETATM   30  C13 UNL     1       1.339  50.350 -12.896  1.00  0.00     0.032 C 
HETATM   31  C14 UNL     1       0.312  50.068 -13.994  1.00  0.00     0.131 C 
HETATM   32  C21 UNL     1       0.144  51.286 -14.919  1.00  0.00     0.057 C 
BRANCH  31  33
HETATM   33  O2  UNL     1      -0.926  49.763 -13.342  1.00  0.00    -0.346 OA
BRANCH  33  34
HETATM   34  C15 UNL     1      -1.665  50.765 -12.783  1.00  0.00     0.072 A 
HETATM   35  C16 UNL     1      -1.404  50.984 -11.423  1.00  0.00     0.038 A 
HETATM   36  C17 UNL     1      -2.079  51.981 -10.712  1.00  0.00     0.030 A 
HETATM   37  C18 UNL     1      -3.023  52.769 -11.364  1.00  0.00     0.072 A 
HETATM   38 CL1  UNL     1      -3.849  54.002 -10.492  1.00  0.00    -0.081 Cl
HETATM   39  C19 UNL     1      -3.285  52.550 -12.715  1.00  0.00     0.140 A 
HETATM   40  F1  UNL     1      -4.190  53.298 -13.366  1.00  0.00    -0.204 F 
HETATM   41  C20 UNL     1      -2.614  51.554 -13.427  1.00  0.00     0.080 A 
ENDBRANCH  33  34
ENDBRANCH  31  33
ENDBRANCH   4  27
TORSDOF 5
ENDMDL
MODEL 9
REMARK minimizedAffinity -10.0181723
REMARK  5 active torsions:
REMARK  status: ('A' for Active; 'I' for Inactive)
REMARK    1  A    between atoms: C4_4  and  C5_5 
REMARK    2  A    between atoms: C8_11  and  N3_12 
REMARK       I    between atoms: N3_12  and  C9_13 
REMARK       I    between atoms: C9_13  and  N4_15 
REMARK    3  A    between atoms: N4_15  and  C10_16 
REMARK    4  A    between atoms: C14_20  and  O2_21 
REMARK    5  A    between atoms: O2_21  and  C15_22 
ROOT
HETATM    1  N3  UNL     1      -5.771  48.051 -26.293  1.00  0.00    -0.295 N 
HETATM    2  C9  UNL     1      -4.532  48.471 -25.864  1.00  0.00     0.322 C 
HETATM    3  O1  UNL     1      -3.572  48.791 -26.548  1.00  0.00    -0.247 OA
HETATM    4  N4  UNL     1      -4.500  48.520 -24.475  1.00  0.00    -0.338 N 
HETATM    5  H7  UNL     1      -6.511  48.086 -25.614  1.00  0.00     0.172 HD
HETATM    6  H8  UNL     1      -5.068  47.819 -24.023  1.00  0.00     0.164 HD
ENDROOT
BRANCH   1   7
HETATM    7  C8  UNL     1      -6.128  47.803 -27.625  1.00  0.00     0.111 A 
HETATM    8  C7  UNL     1      -7.073  46.803 -27.845  1.00  0.00     0.080 A 
HETATM    9  C6  UNL     1      -7.401  46.567 -29.181  1.00  0.00     0.065 A 
HETATM   10  N2  UNL     1      -8.272  45.696 -29.769  1.00  0.00    -0.299 N 
HETATM   11  C23 UNL     1      -6.824  47.272 -30.231  1.00  0.00     0.036 A 
HETATM   12  N1  UNL     1      -8.318  45.784 -31.106  1.00  0.00    -0.299 N 
HETATM   13  H5  UNL     1      -8.870  45.016 -29.318  1.00  0.00     0.187 HD
HETATM   14  C5  UNL     1      -7.419  46.737 -31.416  1.00  0.00     0.072 A 
ATOM     15  H1  UNL     1      -8.904  45.249 -31.746  1.00  0.00     0.187 HD
HETATM   16  C22 UNL     1      -5.893  48.263 -29.917  1.00  0.00     0.105 A 
HETATM   17  N5  UNL     1      -5.552  48.497 -28.625  1.00  0.00    -0.351 N 
ATOM     18  H5  UNL     1      -4.852  49.207 -28.408  1.00  0.00     0.166 HD
BRANCH  14  19
HETATM   19  C4  UNL     1      -7.178  47.108 -32.812  1.00  0.00    -0.004 A 
HETATM   20  C3  UNL     1      -8.172  46.973 -33.786  1.00  0.00     0.038 A 
HETATM   21  C2  UNL     1      -7.881  47.328 -35.099  1.00  0.00     0.005 A 
HETATM   22  C1  UNL     1      -8.926  47.183 -36.166  1.00  0.00     0.068 C 
HETATM   23  N6  UNL     1      -6.674  47.809 -35.476  1.00  0.00    -0.369 N 
HETATM   24  C25 UNL     1      -5.735  47.952 -34.516  1.00  0.00     0.089 A 
ATOM     25  H6  UNL     1      -6.481  48.054 -36.448  1.00  0.00     0.165 HD
HETATM   26  C24 UNL     1      -5.936  47.622 -33.190  1.00  0.00     0.031 A 
ENDBRANCH  14  19
ENDBRANCH   1   7
BRANCH   4  27
HETATM   27  C10 UNL     1      -3.264  48.884 -23.789  1.00  0.00     0.088 C 
HETATM   28  C11 UNL     1      -3.185  48.236 -22.402  1.00  0.00     0.025 C 
HETATM   29  C12 UNL     1      -1.843  48.518 -21.724  1.00  0.00     0.004 C 
HETATM   30  C13 UNL     1      -1.195  49.822 -22.185  1.00  0.00     0.032 C 
HETATM   31  C14 UNL     1      -2.235  50.886 -22.539  1.00  0.00     0.131 C 
HETATM   32  C21 UNL     1      -3.139  50.412 -23.691  1.00  0.00     0.057 C 
BRANCH  31  33
HETATM   33  O2  UNL     1      -1.517  52.064 -22.921  1.00  0.00    -0.346 OA
BRANCH  33  34
HETATM   34  C15 UNL     1      -0.972  52.153 -24.170  1.00  0.00     0.072 A 
HETATM   35  C16 UNL     1      -0.714  50.916 -24.776  1.00  0.00     0.038 A 
HETATM   36  C17 UNL     1      -0.160  50.844 -26.058  1.00  0.00     0.030 A 
HETATM   37  C18 UNL     1       0.138  52.018 -26.744  1.00  0.00     0.072 A 
HETATM   38 CL1  UNL     1       0.811  51.932 -28.325  1.00  0.00    -0.081 Cl
HETATM   39  C19 UNL     1      -0.116  53.249 -26.141  1.00  0.00     0.140 A 
HETATM   40  F1  UNL     1       0.161  54.395 -26.783  1.00  0.00    -0.204 F 
HETATM   41  C20 UNL     1      -0.667  53.324 -24.860  1.00  0.00     0.080 A 
ENDBRANCH  33  34
ENDBRANCH  31  33
ENDBRANCH   4  27
TORSDOF 5
ENDMDL
