MODEL 1
REMARK minimizedAffinity -7.490026
REMARK  8 active torsions:
REMARK  status: ('A' for Active; 'I' for Inactive)
REMARK    1  A    between atoms: O1_2  and  C2_3 
REMARK    2  A    between atoms: C2_3  and  C3_4 
REMARK    3  A    between atoms: C3_4  and  O2_5 
REMARK    4  A    between atoms: O2_5  and  C4_6 
REMARK    5  A    between atoms: C7_12  and  N3_13 
REMARK       I    between atoms: N3_13  and  C8_14 
REMARK       I    between atoms: C8_14  and  N4_16 
REMARK    6  A    between atoms: N4_16  and  C9_17 
REMARK    7  A    between atoms: C9_17  and  C10_18 
REMARK    8  A    between atoms: C10_18  and  C11_19 
ROOT
HETATM    1  C4  UNL     1      -0.153  52.031 -26.320  1.00  0.00     0.171 A 
HETATM    2  N1  UNL     1       0.678  53.037 -26.601  1.00  0.00    -0.279 N 
ATOM      3  H1  UNL     1       0.968  53.383 -27.515  1.00  0.00     0.189 HD
HETATM    4  N2  UNL     1       1.039  53.485 -25.383  1.00  0.00    -0.298 N 
HETATM    5  C5  UNL     1       0.455  52.809 -24.345  1.00  0.00     0.067 A 
HETATM    6  C6  UNL     1       0.552  52.955 -22.961  1.00  0.00     0.080 A 
HETATM    7  C7  UNL     1      -0.205  52.057 -22.217  1.00  0.00     0.111 A 
HETATM    8  N6  UNL     1      -0.994  51.103 -22.768  1.00  0.00    -0.351 N 
ATOM      9  H6  UNL     1      -1.532  50.477 -22.168  1.00  0.00     0.166 HD
HETATM   10  C16 UNL     1      -1.071  50.981 -24.120  1.00  0.00     0.108 A 
HETATM   11  C17 UNL     1      -0.340  51.839 -24.938  1.00  0.00     0.060 A 
HETATM   12  H8  UNL     1       1.689  54.261 -25.328  1.00  0.00     0.187 HD
ENDROOT
BRANCH   7  13
HETATM   13  N3  UNL     1      -0.238  52.050 -20.823  1.00  0.00    -0.295 N 
HETATM   14  C8  UNL     1      -0.226  50.977 -19.974  1.00  0.00     0.321 C 
HETATM   15  O3  UNL     1      -0.203  49.795 -20.293  1.00  0.00    -0.247 OA
HETATM   16  N4  UNL     1      -0.248  51.385 -18.658  1.00  0.00    -0.342 N 
HETATM   17  H11 UNL     1       0.127  52.302 -18.458  1.00  0.00     0.164 HD
HETATM   18  H10 UNL     1      -0.387  52.968 -20.434  1.00  0.00     0.172 HD
BRANCH  16  19
HETATM   19  C9  UNL     1      -0.164  50.425 -17.567  1.00  0.00     0.130 C 
BRANCH  19  20
HETATM   20  C10 UNL     1      -0.005  51.074 -16.190  1.00  0.00     0.076 C 
BRANCH  20  21
HETATM   21  C11 UNL     1       1.415  51.503 -15.919  1.00  0.00     0.010 A 
HETATM   22  C12 UNL     1       2.039  52.440 -16.739  1.00  0.00     0.025 A 
HETATM   23  C13 UNL     1       3.351  52.812 -16.458  1.00  0.00     0.003 A 
HETATM   24  C14 UNL     1       4.004  52.239 -15.375  1.00  0.00     0.017 A 
HETATM   25  C15 UNL     1       3.314  51.314 -14.611  1.00  0.00     0.088 A 
HETATM   26  N5  UNL     1       2.039  50.937 -14.857  1.00  0.00    -0.369 N 
ATOM     27  H5  UNL     1       1.566  50.254 -14.267  1.00  0.00     0.165 HD
ENDBRANCH  20  21
ENDBRANCH  19  20
ENDBRANCH  16  19
ENDBRANCH   7  13
BRANCH   1  28
HETATM   28  O2  UNL     1      -0.739  51.308 -27.301  1.00  0.00    -0.332 OA
BRANCH  28  29
HETATM   29  C3  UNL     1      -1.883  50.557 -26.878  1.00  0.00     0.203 C 
BRANCH  29  30
HETATM   30  C2  UNL     1      -3.069  50.908 -27.781  1.00  0.00     0.193 C 
BRANCH  30  31
HETATM   31  O1  UNL     1      -3.582  49.787 -28.510  1.00  0.00    -0.394 OA
HETATM   32  C1  UNL     1      -3.952  48.691 -27.685  1.00  0.00     0.201 C 
ENDBRANCH  30  31
ENDBRANCH  29  30
ENDBRANCH  28  29
ENDBRANCH   1  28
TORSDOF 8
ENDMDL
MODEL 2
REMARK minimizedAffinity -7.48599148
REMARK  8 active torsions:
REMARK  status: ('A' for Active; 'I' for Inactive)
REMARK    1  A    between atoms: O1_2  and  C2_3 
REMARK    2  A    between atoms: C2_3  and  C3_4 
REMARK    3  A    between atoms: C3_4  and  O2_5 
REMARK    4  A    between atoms: O2_5  and  C4_6 
REMARK    5  A    between atoms: C7_12  and  N3_13 
REMARK       I    between atoms: N3_13  and  C8_14 
REMARK       I    between atoms: C8_14  and  N4_16 
REMARK    6  A    between atoms: N4_16  and  C9_17 
REMARK    7  A    between atoms: C9_17  and  C10_18 
REMARK    8  A    between atoms: C10_18  and  C11_19 
ROOT
HETATM    1  C4  UNL     1      -0.238  53.485 -25.460  1.00  0.00     0.171 A 
HETATM    2  N1  UNL     1       0.636  54.485 -25.328  1.00  0.00    -0.279 N 
ATOM      3  H1  UNL     1       0.887  55.201 -26.010  1.00  0.00     0.189 HD
HETATM    4  N2  UNL     1       1.104  54.320 -24.076  1.00  0.00    -0.298 N 
HETATM    5  C5  UNL     1       0.547  53.263 -23.408  1.00  0.00     0.067 A 
HETATM    6  C6  UNL     1       0.743  52.760 -22.122  1.00  0.00     0.080 A 
HETATM    7  C7  UNL     1      -0.020  51.643 -21.799  1.00  0.00     0.111 A 
HETATM    8  N6  UNL     1      -0.904  51.067 -22.650  1.00  0.00    -0.351 N 
ATOM      9  H6  UNL     1      -1.440  50.252 -22.352  1.00  0.00     0.166 HD
HETATM   10  C16 UNL     1      -1.076  51.575 -23.899  1.00  0.00     0.108 A 
HETATM   11  C17 UNL     1      -0.347  52.691 -24.302  1.00  0.00     0.060 A 
HETATM   12  H8  UNL     1       1.806  54.967 -23.734  1.00  0.00     0.187 HD
ENDROOT
BRANCH   7  13
HETATM   13  N3  UNL     1       0.038  51.003 -20.562  1.00  0.00    -0.295 N 
HETATM   14  C8  UNL     1      -0.466  51.421 -19.360  1.00  0.00     0.321 C 
HETATM   15  O3  UNL     1      -1.058  52.471 -19.144  1.00  0.00    -0.247 OA
HETATM   16  N4  UNL     1      -0.222  50.495 -18.370  1.00  0.00    -0.342 N 
HETATM   17  H11 UNL     1      -0.108  49.535 -18.662  1.00  0.00     0.164 HD
HETATM   18  H10 UNL     1       0.616  50.178 -20.578  1.00  0.00     0.172 HD
BRANCH  16  19
HETATM   19  C9  UNL     1      -0.729  50.682 -17.019  1.00  0.00     0.130 C 
BRANCH  19  20
HETATM   20  C10 UNL     1       0.206  50.139 -15.934  1.00  0.00     0.076 C 
BRANCH  20  21
HETATM   21  C11 UNL     1       1.456  50.970 -15.786  1.00  0.00     0.010 A 
HETATM   22  C12 UNL     1       2.365  50.704 -14.765  1.00  0.00     0.025 A 
HETATM   23  C13 UNL     1       3.507  51.491 -14.659  1.00  0.00     0.003 A 
HETATM   24  C14 UNL     1       3.711  52.522 -15.568  1.00  0.00     0.017 A 
HETATM   25  C15 UNL     1       2.759  52.722 -16.551  1.00  0.00     0.088 A 
HETATM   26  N5  UNL     1       1.642  51.971 -16.681  1.00  0.00    -0.369 N 
ATOM     27  H5  UNL     1       0.967  52.150 -17.423  1.00  0.00     0.165 HD
ENDBRANCH  20  21
ENDBRANCH  19  20
ENDBRANCH  16  19
ENDBRANCH   7  13
BRANCH   1  28
HETATM   28  O2  UNL     1      -0.933  53.304 -26.606  1.00  0.00    -0.332 OA
BRANCH  28  29
HETATM   29  C3  UNL     1      -0.128  53.297 -27.791  1.00  0.00     0.203 C 
BRANCH  29  30
HETATM   30  C2  UNL     1       0.337  51.865 -28.065  1.00  0.00     0.193 C 
BRANCH  30  31
HETATM   31  O1  UNL     1       1.752  51.752 -28.258  1.00  0.00    -0.394 OA
HETATM   32  C1  UNL     1       2.489  51.677 -27.045  1.00  0.00     0.201 C 
ENDBRANCH  30  31
ENDBRANCH  29  30
ENDBRANCH  28  29
ENDBRANCH   1  28
TORSDOF 8
ENDMDL
MODEL 3
REMARK minimizedAffinity -7.46959543
REMARK  8 active torsions:
REMARK  status: ('A' for Active; 'I' for Inactive)
REMARK    1  A    between atoms: O1_2  and  C2_3 
REMARK    2  A    between atoms: C2_3  and  C3_4 
REMARK    3  A    between atoms: C3_4  and  O2_5 
REMARK    4  A    between atoms: O2_5  and  C4_6 
REMARK    5  A    between atoms: C7_12  and  N3_13 
REMARK       I    between atoms: N3_13  and  C8_14 
REMARK       I    between atoms: C8_14  and  N4_16 
REMARK    6  A    between atoms: N4_16  and  C9_17 
REMARK    7  A    between atoms: C9_17  and  C10_18 
REMARK    8  A    between atoms: C10_18  and  C11_19 
ROOT
HETATM    1  C4  UNL     1      -0.096  52.099 -18.423  1.00  0.00     0.171 A 
HETATM    2  N1  UNL     1       0.844  52.791 -17.777  1.00  0.00    -0.279 N 
ATOM      3  H1  UNL     1       1.019  52.839 -16.773  1.00  0.00     0.189 HD
HETATM    4  N2  UNL     1       1.506  53.411 -18.772  1.00  0.00    -0.298 N 
HETATM    5  C5  UNL     1       1.030  53.123 -20.023  1.00  0.00     0.067 A 
HETATM    6  C6  UNL     1       1.425  53.539 -21.294  1.00  0.00     0.080 A 
HETATM    7  C7  UNL     1       0.675  53.024 -22.346  1.00  0.00     0.111 A 
HETATM    8  N6  UNL     1      -0.364  52.171 -22.179  1.00  0.00    -0.351 N 
ATOM      9  H6  UNL     1      -0.872  51.822 -22.992  1.00  0.00     0.166 HD
HETATM   10  C16 UNL     1      -0.731  51.781 -20.930  1.00  0.00     0.108 A 
HETATM   11  C17 UNL     1      -0.034  52.255 -19.821  1.00  0.00     0.060 A 
HETATM   12  H8  UNL     1       2.281  54.019 -18.530  1.00  0.00     0.187 HD
ENDROOT
BRANCH   7  13
HETATM   13  N3  UNL     1       0.922  53.325 -23.685  1.00  0.00    -0.295 N 
HETATM   14  C8  UNL     1       0.027  53.435 -24.714  1.00  0.00     0.321 C 
HETATM   15  O3  UNL     1      -1.184  53.267 -24.648  1.00  0.00    -0.247 OA
HETATM   16  N4  UNL     1       0.661  53.768 -25.891  1.00  0.00    -0.342 N 
HETATM   17  H11 UNL     1       1.537  54.266 -25.811  1.00  0.00     0.164 HD
HETATM   18  H10 UNL     1       1.906  53.362 -23.899  1.00  0.00     0.172 HD
BRANCH  16  19
HETATM   19  C9  UNL     1      -0.091  54.016 -27.112  1.00  0.00     0.130 C 
BRANCH  19  20
HETATM   20  C10 UNL     1      -0.110  52.823 -28.072  1.00  0.00     0.076 C 
BRANCH  20  21
HETATM   21  C11 UNL     1      -1.074  51.750 -27.633  1.00  0.00     0.010 A 
HETATM   22  C12 UNL     1      -0.653  50.722 -26.793  1.00  0.00     0.025 A 
HETATM   23  C13 UNL     1      -1.570  49.748 -26.408  1.00  0.00     0.003 A 
HETATM   24  C14 UNL     1      -2.877  49.822 -26.872  1.00  0.00     0.017 A 
HETATM   25  C15 UNL     1      -3.215  50.874 -27.706  1.00  0.00     0.088 A 
HETATM   26  N5  UNL     1      -2.347  51.836 -28.092  1.00  0.00    -0.369 N 
ATOM     27  H5  UNL     1      -2.638  52.597 -28.705  1.00  0.00     0.165 HD
ENDBRANCH  20  21
ENDBRANCH  19  20
ENDBRANCH  16  19
ENDBRANCH   7  13
BRANCH   1  28
HETATM   28  O2  UNL     1      -0.987  51.330 -17.757  1.00  0.00    -0.332 OA
BRANCH  28  29
HETATM   29  C3  UNL     1      -0.427  50.146 -17.176  1.00  0.00     0.203 C 
BRANCH  29  30
HETATM   30  C2  UNL     1      -1.180  48.926 -17.715  1.00  0.00     0.193 C 
BRANCH  30  31
HETATM   31  O1  UNL     1      -1.084  48.778 -19.136  1.00  0.00    -0.394 OA
HETATM   32  C1  UNL     1      -1.925  47.761 -19.662  1.00  0.00     0.201 C 
ENDBRANCH  30  31
ENDBRANCH  29  30
ENDBRANCH  28  29
ENDBRANCH   1  28
TORSDOF 8
ENDMDL
MODEL 4
REMARK minimizedAffinity -7.33655739
REMARK  8 active torsions:
REMARK  status: ('A' for Active; 'I' for Inactive)
REMARK    1  A    between atoms: O1_2  and  C2_3 
REMARK    2  A    between atoms: C2_3  and  C3_4 
REMARK    3  A    between atoms: C3_4  and  O2_5 
REMARK    4  A    between atoms: O2_5  and  C4_6 
REMARK    5  A    between atoms: C7_12  and  N3_13 
REMARK       I    between atoms: N3_13  and  C8_14 
REMARK       I    between atoms: C8_14  and  N4_16 
REMARK    6  A    between atoms: N4_16  and  C9_17 
REMARK    7  A    between atoms: C9_17  and  C10_18 
REMARK    8  A    between atoms: C10_18  and  C11_19 
ROOT
HETATM    1  C4  UNL     1       0.176  53.061 -24.275  1.00  0.00     0.171 A 
HETATM    2  N1  UNL     1       0.814  54.115 -24.787  1.00  0.00    -0.279 N 
ATOM      3  H1  UNL     1       0.851  54.423 -25.759  1.00  0.00     0.189 HD
HETATM    4  N2  UNL     1       1.396  54.675 -23.709  1.00  0.00    -0.298 N 
HETATM    5  C5  UNL     1       1.136  54.022 -22.534  1.00  0.00     0.067 A 
HETATM    6  C6  UNL     1       1.530  54.269 -21.219  1.00  0.00     0.080 A 
HETATM    7  C7  UNL     1       1.059  53.360 -20.278  1.00  0.00     0.111 A 
HETATM    8  N6  UNL     1       0.265  52.305 -20.586  1.00  0.00    -0.351 N 
ATOM      9  H6  UNL     1      -0.055  51.677 -19.849  1.00  0.00     0.166 HD
HETATM   10  C16 UNL     1      -0.105  52.086 -21.876  1.00  0.00     0.108 A 
HETATM   11  C17 UNL     1       0.329  52.947 -22.879  1.00  0.00     0.060 A 
HETATM   12  H8  UNL     1       1.960  55.507 -23.843  1.00  0.00     0.187 HD
ENDROOT
BRANCH   7  13
HETATM   13  N3  UNL     1       1.345  53.444 -18.916  1.00  0.00    -0.295 N 
HETATM   14  C8  UNL     1       1.058  52.545 -17.926  1.00  0.00     0.321 C 
HETATM   15  O3  UNL     1       0.464  51.482 -18.056  1.00  0.00    -0.247 OA
HETATM   16  N4  UNL     1       1.527  52.983 -16.706  1.00  0.00    -0.342 N 
HETATM   17  H11 UNL     1       2.315  53.615 -16.721  1.00  0.00     0.164 HD
HETATM   18  H10 UNL     1       1.727  54.340 -18.655  1.00  0.00     0.172 HD
BRANCH  16  19
HETATM   19  C9  UNL     1       1.408  52.161 -15.512  1.00  0.00     0.130 C 
BRANCH  19  20
HETATM   20  C10 UNL     1       2.710  51.457 -15.120  1.00  0.00     0.076 C 
BRANCH  20  21
HETATM   21  C11 UNL     1       2.933  51.453 -13.629  1.00  0.00     0.010 A 
HETATM   22  C12 UNL     1       3.572  50.379 -13.013  1.00  0.00     0.025 A 
HETATM   23  C13 UNL     1       3.761  50.410 -11.634  1.00  0.00     0.003 A 
HETATM   24  C14 UNL     1       3.307  51.503 -10.908  1.00  0.00     0.017 A 
HETATM   25  C15 UNL     1       2.680  52.528 -11.596  1.00  0.00     0.088 A 
HETATM   26  N5  UNL     1       2.487  52.527 -12.934  1.00  0.00    -0.369 N 
ATOM     27  H5  UNL     1       2.023  53.305 -13.402  1.00  0.00     0.165 HD
ENDBRANCH  20  21
ENDBRANCH  19  20
ENDBRANCH  16  19
ENDBRANCH   7  13
BRANCH   1  28
HETATM   28  O2  UNL     1      -0.543  52.225 -25.058  1.00  0.00    -0.332 OA
BRANCH  28  29
HETATM   29  C3  UNL     1      -0.521  52.555 -26.451  1.00  0.00     0.203 C 
BRANCH  29  30
HETATM   30  C2  UNL     1       0.252  51.470 -27.206  1.00  0.00     0.193 C 
BRANCH  30  31
HETATM   31  O1  UNL     1       1.553  51.889 -27.633  1.00  0.00    -0.394 OA
HETATM   32  C1  UNL     1       2.594  51.510 -26.742  1.00  0.00     0.201 C 
ENDBRANCH  30  31
ENDBRANCH  29  30
ENDBRANCH  28  29
ENDBRANCH   1  28
TORSDOF 8
ENDMDL
MODEL 5
REMARK minimizedAffinity -7.2563138
REMARK  8 active torsions:
REMARK  status: ('A' for Active; 'I' for Inactive)
REMARK    1  A    between atoms: O1_2  and  C2_3 
REMARK    2  A    between atoms: C2_3  and  C3_4 
REMARK    3  A    between atoms: C3_4  and  O2_5 
REMARK    4  A    between atoms: O2_5  and  C4_6 
REMARK    5  A    between atoms: C7_12  and  N3_13 
REMARK       I    between atoms: N3_13  and  C8_14 
REMARK       I    between atoms: C8_14  and  N4_16 
REMARK    6  A    between atoms: N4_16  and  C9_17 
REMARK    7  A    between atoms: C9_17  and  C10_18 
REMARK    8  A    between atoms: C10_18  and  C11_19 
ROOT
HETATM    1  C4  UNL     1       0.119  53.096 -24.149  1.00  0.00     0.171 A 
HETATM    2  N1  UNL     1       0.885  54.071 -24.644  1.00  0.00    -0.279 N 
ATOM      3  H1  UNL     1       0.980  54.372 -25.614  1.00  0.00     0.189 HD
HETATM    4  N2  UNL     1       1.502  54.559 -23.551  1.00  0.00    -0.298 N 
HETATM    5  C5  UNL     1       1.142  53.940 -22.384  1.00  0.00     0.067 A 
HETATM    6  C6  UNL     1       1.532  54.139 -21.060  1.00  0.00     0.080 A 
HETATM    7  C7  UNL     1       0.938  53.290 -20.133  1.00  0.00     0.111 A 
HETATM    8  N6  UNL     1       0.036  52.334 -20.462  1.00  0.00    -0.351 N 
ATOM      9  H6  UNL     1      -0.371  51.745 -19.735  1.00  0.00     0.166 HD
HETATM   10  C16 UNL     1      -0.327  52.158 -21.760  1.00  0.00     0.108 A 
HETATM   11  C17 UNL     1       0.225  52.965 -22.751  1.00  0.00     0.060 A 
HETATM   12  H8  UNL     1       2.161  55.321 -23.669  1.00  0.00     0.187 HD
ENDROOT
BRANCH   7  13
HETATM   13  N3  UNL     1       1.201  53.340 -18.764  1.00  0.00    -0.295 N 
HETATM   14  C8  UNL     1       1.023  52.363 -17.825  1.00  0.00     0.321 C 
HETATM   15  O3  UNL     1       0.570  51.241 -18.016  1.00  0.00    -0.247 OA
HETATM   16  N4  UNL     1       1.422  52.793 -16.578  1.00  0.00    -0.342 N 
HETATM   17  H11 UNL     1       2.123  53.521 -16.550  1.00  0.00     0.164 HD
HETATM   18  H10 UNL     1       1.462  54.263 -18.454  1.00  0.00     0.172 HD
BRANCH  16  19
HETATM   19  C9  UNL     1       1.400  51.903 -15.427  1.00  0.00     0.130 C 
BRANCH  19  20
HETATM   20  C10 UNL     1      -0.012  51.583 -14.928  1.00  0.00     0.076 C 
BRANCH  20  21
HETATM   21  C11 UNL     1      -0.296  52.196 -13.580  1.00  0.00     0.010 A 
HETATM   22  C12 UNL     1      -1.559  52.082 -13.004  1.00  0.00     0.025 A 
HETATM   23  C13 UNL     1      -1.785  52.660 -11.758  1.00  0.00     0.003 A 
HETATM   24  C14 UNL     1      -0.752  53.337 -11.124  1.00  0.00     0.017 A 
HETATM   25  C15 UNL     1       0.473  53.408 -11.765  1.00  0.00     0.088 A 
HETATM   26  N5  UNL     1       0.722  52.852 -12.972  1.00  0.00    -0.369 N 
ATOM     27  H5  UNL     1       1.641  52.924 -13.409  1.00  0.00     0.165 HD
ENDBRANCH  20  21
ENDBRANCH  19  20
ENDBRANCH  16  19
ENDBRANCH   7  13
BRANCH   1  28
HETATM   28  O2  UNL     1      -0.673  52.348 -24.951  1.00  0.00    -0.332 OA
BRANCH  28  29
HETATM   29  C3  UNL     1       0.033  51.406 -25.767  1.00  0.00     0.203 C 
BRANCH  29  30
HETATM   30  C2  UNL     1       0.329  52.049 -27.124  1.00  0.00     0.193 C 
BRANCH  30  31
HETATM   31  O1  UNL     1       1.716  52.349 -27.322  1.00  0.00    -0.394 OA
HETATM   32  C1  UNL     1       2.593  51.492 -26.606  1.00  0.00     0.201 C 
ENDBRANCH  30  31
ENDBRANCH  29  30
ENDBRANCH  28  29
ENDBRANCH   1  28
TORSDOF 8
ENDMDL
MODEL 6
REMARK minimizedAffinity -7.18696165
REMARK  8 active torsions:
REMARK  status: ('A' for Active; 'I' for Inactive)
REMARK    1  A    between atoms: O1_2  and  C2_3 
REMARK    2  A    between atoms: C2_3  and  C3_4 
REMARK    3  A    between atoms: C3_4  and  O2_5 
REMARK    4  A    between atoms: O2_5  and  C4_6 
REMARK    5  A    between atoms: C7_12  and  N3_13 
REMARK       I    between atoms: N3_13  and  C8_14 
REMARK       I    between atoms: C8_14  and  N4_16 
REMARK    6  A    between atoms: N4_16  and  C9_17 
REMARK    7  A    between atoms: C9_17  and  C10_18 
REMARK    8  A    between atoms: C10_18  and  C11_19 
ROOT
HETATM    1  C4  UNL     1       0.028  52.208 -22.847  1.00  0.00     0.171 A 
HETATM    2  N1  UNL     1      -0.843  51.196 -22.841  1.00  0.00    -0.279 N 
ATOM      3  H1  UNL     1      -1.278  50.730 -23.637  1.00  0.00     0.189 HD
HETATM    4  N2  UNL     1      -1.007  50.941 -21.529  1.00  0.00    -0.298 N 
HETATM    5  C5  UNL     1      -0.261  51.742 -20.708  1.00  0.00     0.067 A 
HETATM    6  C6  UNL     1      -0.135  51.801 -19.320  1.00  0.00     0.080 A 
HETATM    7  C7  UNL     1       0.737  52.775 -18.845  1.00  0.00     0.111 A 
HETATM    8  N6  UNL     1       1.434  53.615 -19.648  1.00  0.00    -0.351 N 
ATOM      9  H6  UNL     1       2.064  54.305 -19.240  1.00  0.00     0.166 HD
HETATM   10  C16 UNL     1       1.293  53.538 -20.998  1.00  0.00     0.108 A 
HETATM   11  C17 UNL     1       0.436  52.592 -21.555  1.00  0.00     0.060 A 
HETATM   12  H8  UNL     1      -1.645  50.200 -21.258  1.00  0.00     0.187 HD
ENDROOT
BRANCH   7  13
HETATM   13  N3  UNL     1       0.993  52.983 -17.490  1.00  0.00    -0.295 N 
HETATM   14  C8  UNL     1       1.125  52.055 -16.494  1.00  0.00     0.321 C 
HETATM   15  O3  UNL     1       1.020  50.840 -16.611  1.00  0.00    -0.247 OA
HETATM   16  N4  UNL     1       1.398  52.658 -15.285  1.00  0.00    -0.342 N 
HETATM   17  H11 UNL     1       1.852  53.560 -15.318  1.00  0.00     0.164 HD
HETATM   18  H10 UNL     1       0.975  53.958 -17.237  1.00  0.00     0.172 HD
BRANCH  16  19
HETATM   19  C9  UNL     1       1.655  51.871 -14.089  1.00  0.00     0.130 C 
BRANCH  19  20
HETATM   20  C10 UNL     1       0.393  51.554 -13.281  1.00  0.00     0.076 C 
BRANCH  20  21
HETATM   21  C11 UNL     1       0.082  52.620 -12.261  1.00  0.00     0.010 A 
HETATM   22  C12 UNL     1      -1.201  52.740 -11.733  1.00  0.00     0.025 A 
HETATM   23  C13 UNL     1      -1.451  53.736 -10.793  1.00  0.00     0.003 A 
HETATM   24  C14 UNL     1      -0.421  54.584 -10.409  1.00  0.00     0.017 A 
HETATM   25  C15 UNL     1       0.825  54.400 -10.983  1.00  0.00     0.088 A 
HETATM   26  N5  UNL     1       1.098  53.439 -11.894  1.00  0.00    -0.369 N 
ATOM     27  H5  UNL     1       2.032  53.335 -12.290  1.00  0.00     0.165 HD
ENDBRANCH  20  21
ENDBRANCH  19  20
ENDBRANCH  16  19
ENDBRANCH   7  13
BRANCH   1  28
HETATM   28  O2  UNL     1       0.454  52.763 -24.004  1.00  0.00    -0.332 OA
BRANCH  28  29
HETATM   29  C3  UNL     1       0.372  51.896 -25.141  1.00  0.00     0.203 C 
BRANCH  29  30
HETATM   30  C2  UNL     1       0.565  52.727 -26.413  1.00  0.00     0.193 C 
BRANCH  30  31
HETATM   31  O1  UNL     1       1.819  52.490 -27.064  1.00  0.00    -0.394 OA
HETATM   32  C1  UNL     1       2.517  51.359 -26.562  1.00  0.00     0.201 C 
ENDBRANCH  30  31
ENDBRANCH  29  30
ENDBRANCH  28  29
ENDBRANCH   1  28
TORSDOF 8
ENDMDL
MODEL 7
REMARK minimizedAffinity -7.16882658
REMARK  8 active torsions:
REMARK  status: ('A' for Active; 'I' for Inactive)
REMARK    1  A    between atoms: O1_2  and  C2_3 
REMARK    2  A    between atoms: C2_3  and  C3_4 
REMARK    3  A    between atoms: C3_4  and  O2_5 
REMARK    4  A    between atoms: O2_5  and  C4_6 
REMARK    5  A    between atoms: C7_12  and  N3_13 
REMARK       I    between atoms: N3_13  and  C8_14 
REMARK       I    between atoms: C8_14  and  N4_16 
REMARK    6  A    between atoms: N4_16  and  C9_17 
REMARK    7  A    between atoms: C9_17  and  C10_18 
REMARK    8  A    between atoms: C10_18  and  C11_19 
ROOT
HETATM    1  C4  UNL     1       0.200  53.179 -24.625  1.00  0.00     0.171 A 
HETATM    2  N1  UNL     1       0.776  54.278 -25.115  1.00  0.00    -0.279 N 
ATOM      3  H1  UNL     1       0.771  54.624 -26.075  1.00  0.00     0.189 HD
HETATM    4  N2  UNL     1       1.367  54.822 -24.033  1.00  0.00    -0.298 N 
HETATM    5  C5  UNL     1       1.171  54.115 -22.877  1.00  0.00     0.067 A 
HETATM    6  C6  UNL     1       1.595  54.329 -21.566  1.00  0.00     0.080 A 
HETATM    7  C7  UNL     1       1.191  53.366 -20.647  1.00  0.00     0.111 A 
HETATM    8  N6  UNL     1       0.434  52.290 -20.972  1.00  0.00    -0.351 N 
ATOM      9  H6  UNL     1       0.164  51.621 -20.252  1.00  0.00     0.166 HD
HETATM   10  C16 UNL     1       0.035  52.103 -22.259  1.00  0.00     0.108 A 
HETATM   11  C17 UNL     1       0.400  53.020 -23.240  1.00  0.00     0.060 A 
HETATM   12  H8  UNL     1       1.890  55.683 -24.151  1.00  0.00     0.187 HD
ENDROOT
BRANCH   7  13
HETATM   13  N3  UNL     1       1.516  53.412 -19.292  1.00  0.00    -0.295 N 
HETATM   14  C8  UNL     1       0.974  52.695 -18.260  1.00  0.00     0.321 C 
HETATM   15  O3  UNL     1       0.068  51.875 -18.338  1.00  0.00    -0.247 OA
HETATM   16  N4  UNL     1       1.582  53.011 -17.064  1.00  0.00    -0.342 N 
HETATM   17  H11 UNL     1       2.530  53.356 -17.112  1.00  0.00     0.164 HD
HETATM   18  H10 UNL     1       2.168  54.148 -19.075  1.00  0.00     0.172 HD
BRANCH  16  19
HETATM   19  C9  UNL     1       1.228  52.322 -15.832  1.00  0.00     0.130 C 
BRANCH  19  20
HETATM   20  C10 UNL     1       2.441  51.869 -15.014  1.00  0.00     0.076 C 
BRANCH  20  21
HETATM   21  C11 UNL     1       2.288  50.462 -14.493  1.00  0.00     0.010 A 
HETATM   22  C12 UNL     1       1.175  49.699 -14.836  1.00  0.00     0.025 A 
HETATM   23  C13 UNL     1       1.068  48.404 -14.337  1.00  0.00     0.003 A 
HETATM   24  C14 UNL     1       2.067  47.908 -13.510  1.00  0.00     0.017 A 
HETATM   25  C15 UNL     1       3.139  48.731 -13.215  1.00  0.00     0.088 A 
HETATM   26  N5  UNL     1       3.272  49.991 -13.689  1.00  0.00    -0.369 N 
ATOM     27  H5  UNL     1       4.081  50.564 -13.450  1.00  0.00     0.165 HD
ENDBRANCH  20  21
ENDBRANCH  19  20
ENDBRANCH  16  19
ENDBRANCH   7  13
BRANCH   1  28
HETATM   28  O2  UNL     1      -0.506  52.342 -25.419  1.00  0.00    -0.332 OA
BRANCH  28  29
HETATM   29  C3  UNL     1      -0.465  52.672 -26.812  1.00  0.00     0.203 C 
BRANCH  29  30
HETATM   30  C2  UNL     1       0.380  51.627 -27.545  1.00  0.00     0.193 C 
BRANCH  30  31
HETATM   31  O1  UNL     1       1.739  52.033 -27.749  1.00  0.00    -0.394 OA
HETATM   32  C1  UNL     1       2.642  51.511 -26.785  1.00  0.00     0.201 C 
ENDBRANCH  30  31
ENDBRANCH  29  30
ENDBRANCH  28  29
ENDBRANCH   1  28
TORSDOF 8
ENDMDL
MODEL 8
REMARK minimizedAffinity -7.03970957
REMARK  8 active torsions:
REMARK  status: ('A' for Active; 'I' for Inactive)
REMARK    1  A    between atoms: O1_2  and  C2_3 
REMARK    2  A    between atoms: C2_3  and  C3_4 
REMARK    3  A    between atoms: C3_4  and  O2_5 
REMARK    4  A    between atoms: O2_5  and  C4_6 
REMARK    5  A    between atoms: C7_12  and  N3_13 
REMARK       I    between atoms: N3_13  and  C8_14 
REMARK       I    between atoms: C8_14  and  N4_16 
REMARK    6  A    between atoms: N4_16  and  C9_17 
REMARK    7  A    between atoms: C9_17  and  C10_18 
REMARK    8  A    between atoms: C10_18  and  C11_19 
ROOT
HETATM    1  C4  UNL     1       7.155  63.175 -34.736  1.00  0.00     0.171 A 
HETATM    2  N1  UNL     1       7.917  63.379 -35.813  1.00  0.00    -0.279 N 
ATOM      3  H1  UNL     1       8.878  63.079 -35.976  1.00  0.00     0.189 HD
HETATM    4  N2  UNL     1       7.108  64.077 -36.632  1.00  0.00    -0.298 N 
HETATM    5  C5  UNL     1       5.859  64.308 -36.119  1.00  0.00     0.067 A 
HETATM    6  C6  UNL     1       4.744  64.970 -36.633  1.00  0.00     0.080 A 
HETATM    7  C7  UNL     1       3.635  65.001 -35.794  1.00  0.00     0.111 A 
HETATM    8  N6  UNL     1       3.608  64.432 -34.564  1.00  0.00    -0.351 N 
ATOM      9  H6  UNL     1       2.762  64.483 -33.998  1.00  0.00     0.166 HD
HETATM   10  C16 UNL     1       4.709  63.793 -34.086  1.00  0.00     0.108 A 
HETATM   11  C17 UNL     1       5.863  63.721 -34.862  1.00  0.00     0.060 A 
HETATM   12  H8  UNL     1       7.469  64.367 -37.535  1.00  0.00     0.187 HD
ENDROOT
BRANCH   7  13
HETATM   13  N3  UNL     1       2.430  65.615 -36.134  1.00  0.00    -0.295 N 
HETATM   14  C8  UNL     1       2.157  66.949 -36.260  1.00  0.00     0.321 C 
HETATM   15  O3  UNL     1       2.938  67.874 -36.072  1.00  0.00    -0.247 OA
HETATM   16  N4  UNL     1       0.847  67.155 -36.634  1.00  0.00    -0.342 N 
HETATM   17  H11 UNL     1       0.396  66.408 -37.144  1.00  0.00     0.164 HD
HETATM   18  H10 UNL     1       1.666  64.961 -36.193  1.00  0.00     0.172 HD
BRANCH  16  19
HETATM   19  C9  UNL     1       0.339  68.492 -36.905  1.00  0.00     0.130 C 
BRANCH  19  20
HETATM   20  C10 UNL     1       1.128  69.240 -37.983  1.00  0.00     0.076 C 
BRANCH  20  21
HETATM   21  C11 UNL     1       0.918  68.654 -39.357  1.00  0.00     0.010 A 
HETATM   22  C12 UNL     1       2.007  68.362 -40.175  1.00  0.00     0.025 A 
HETATM   23  C13 UNL     1       1.776  67.822 -41.436  1.00  0.00     0.003 A 
HETATM   24  C14 UNL     1       0.470  67.592 -41.849  1.00  0.00     0.017 A 
HETATM   25  C15 UNL     1      -0.557  67.912 -40.978  1.00  0.00     0.088 A 
HETATM   26  N5  UNL     1      -0.361  68.433 -39.746  1.00  0.00    -0.369 N 
ATOM     27  H5  UNL     1      -1.146  68.651 -39.133  1.00  0.00     0.165 HD
ENDBRANCH  20  21
ENDBRANCH  19  20
ENDBRANCH  16  19
ENDBRANCH   7  13
BRANCH   1  28
HETATM   28  O2  UNL     1       7.620  62.496 -33.663  1.00  0.00    -0.332 OA
BRANCH  28  29
HETATM   29  C3  UNL     1       8.601  61.498 -33.975  1.00  0.00     0.203 C 
BRANCH  29  30
HETATM   30  C2  UNL     1       9.932  61.894 -33.330  1.00  0.00     0.193 C 
BRANCH  30  31
HETATM   31  O1  UNL     1       9.883  61.932 -31.899  1.00  0.00    -0.394 OA
HETATM   32  C1  UNL     1      10.950  61.233 -31.273  1.00  0.00     0.201 C 
ENDBRANCH  30  31
ENDBRANCH  29  30
ENDBRANCH  28  29
ENDBRANCH   1  28
TORSDOF 8
ENDMDL
MODEL 9
REMARK minimizedAffinity -6.95219231
REMARK  8 active torsions:
REMARK  status: ('A' for Active; 'I' for Inactive)
REMARK    1  A    between atoms: O1_2  and  C2_3 
REMARK    2  A    between atoms: C2_3  and  C3_4 
REMARK    3  A    between atoms: C3_4  and  O2_5 
REMARK    4  A    between atoms: O2_5  and  C4_6 
REMARK    5  A    between atoms: C7_12  and  N3_13 
REMARK       I    between atoms: N3_13  and  C8_14 
REMARK       I    between atoms: C8_14  and  N4_16 
REMARK    6  A    between atoms: N4_16  and  C9_17 
REMARK    7  A    between atoms: C9_17  and  C10_18 
REMARK    8  A    between atoms: C10_18  and  C11_19 
ROOT
HETATM    1  C4  UNL     1      -4.120  52.282 -24.597  1.00  0.00     0.171 A 
HETATM    2  N1  UNL     1      -5.430  52.038 -24.531  1.00  0.00    -0.279 N 
ATOM      3  H1  UNL     1      -6.126  52.105 -25.274  1.00  0.00     0.189 HD
HETATM    4  N2  UNL     1      -5.610  51.680 -23.245  1.00  0.00    -0.298 N 
HETATM    5  C5  UNL     1      -4.460  51.674 -22.502  1.00  0.00     0.067 A 
HETATM    6  C6  UNL     1      -4.212  51.365 -21.165  1.00  0.00     0.080 A 
HETATM    7  C7  UNL     1      -2.885  51.484 -20.766  1.00  0.00     0.111 A 
HETATM    8  N6  UNL     1      -1.883  51.862 -21.596  1.00  0.00    -0.351 N 
ATOM      9  H6  UNL     1      -0.927  51.924 -21.246  1.00  0.00     0.166 HD
HETATM   10  C16 UNL     1      -2.151  52.158 -22.896  1.00  0.00     0.108 A 
HETATM   11  C17 UNL     1      -3.456  52.069 -23.374  1.00  0.00     0.060 A 
HETATM   12  H8  UNL     1      -6.548  51.448 -22.935  1.00  0.00     0.187 HD
ENDROOT
BRANCH   7  13
HETATM   13  N3  UNL     1      -2.444  51.216 -19.471  1.00  0.00    -0.295 N 
HETATM   14  C8  UNL     1      -1.431  50.390 -19.067  1.00  0.00     0.321 C 
HETATM   15  O3  UNL     1      -0.720  49.702 -19.789  1.00  0.00    -0.247 OA
HETATM   16  N4  UNL     1      -1.289  50.411 -17.696  1.00  0.00    -0.342 N 
HETATM   17  H11 UNL     1      -1.598  51.246 -17.219  1.00  0.00     0.164 HD
HETATM   18  H10 UNL     1      -3.036  51.629 -18.767  1.00  0.00     0.172 HD
BRANCH  16  19
HETATM   19  C9  UNL     1      -0.226  49.669 -17.035  1.00  0.00     0.130 C 
BRANCH  19  20
HETATM   20  C10 UNL     1       0.162  50.242 -15.669  1.00  0.00     0.076 C 
BRANCH  20  21
HETATM   21  C11 UNL     1       1.419  51.072 -15.732  1.00  0.00     0.010 A 
HETATM   22  C12 UNL     1       2.380  50.976 -14.729  1.00  0.00     0.025 A 
HETATM   23  C13 UNL     1       3.528  51.758 -14.820  1.00  0.00     0.003 A 
HETATM   24  C14 UNL     1       3.685  52.614 -15.902  1.00  0.00     0.017 A 
HETATM   25  C15 UNL     1       2.682  52.652 -16.855  1.00  0.00     0.088 A 
HETATM   26  N5  UNL     1       1.559  51.902 -16.794  1.00  0.00    -0.369 N 
ATOM     27  H5  UNL     1       0.846  51.958 -17.521  1.00  0.00     0.165 HD
ENDBRANCH  20  21
ENDBRANCH  19  20
ENDBRANCH  16  19
ENDBRANCH   7  13
BRANCH   1  28
HETATM   28  O2  UNL     1      -3.535  52.678 -25.751  1.00  0.00    -0.332 OA
BRANCH  28  29
HETATM   29  C3  UNL     1      -3.006  51.608 -26.543  1.00  0.00     0.203 C 
BRANCH  29  30
HETATM   30  C2  UNL     1      -1.519  51.871 -26.800  1.00  0.00     0.193 C 
BRANCH  30  31
HETATM   31  O1  UNL     1      -1.153  53.249 -26.667  1.00  0.00    -0.394 OA
HETATM   32  C1  UNL     1      -0.542  53.792 -27.829  1.00  0.00     0.201 C 
ENDBRANCH  30  31
ENDBRANCH  29  30
ENDBRANCH  28  29
ENDBRANCH   1  28
TORSDOF 8
ENDMDL
