MODEL 1
REMARK minimizedAffinity -8.34398842
REMARK  6 active torsions:
REMARK  status: ('A' for Active; 'I' for Inactive)
REMARK    1  A    between atoms: O1_2  and  C2_3 
REMARK    2  A    between atoms: C2_3  and  C3_4 
REMARK    3  A    between atoms: C3_4  and  N1_5 
REMARK    4  A    between atoms: C3_4  and  C15_25 
REMARK       I    between atoms: N1_5  and  C4_6 
REMARK       I    between atoms: C4_6  and  N2_8 
REMARK    5  A    between atoms: N2_8  and  C5_9 
REMARK    6  A    between atoms: N5_16  and  C9_17 
ROOT
HETATM    1  C5  UNL     1      -2.530  51.426 -27.298  1.00  0.00     0.111 A 
HETATM    2  C6  UNL     1      -1.847  52.573 -27.676  1.00  0.00     0.080 A 
HETATM    3  C7  UNL     1      -0.965  53.080 -26.722  1.00  0.00     0.067 A 
HETATM    4  N3  UNL     1      -0.141  54.169 -26.737  1.00  0.00    -0.298 N 
HETATM    5  N4  UNL     1       0.567  54.336 -25.611  1.00  0.00    -0.284 N 
ATOM      6  H4  UNL     1       1.246  55.067 -25.401  1.00  0.00     0.188 HD
HETATM    7  C8  UNL     1       0.182  53.327 -24.826  1.00  0.00     0.130 A 
HETATM    8  N5  UNL     1       0.693  53.199 -23.583  1.00  0.00    -0.370 N 
HETATM    9  C13 UNL     1      -0.776  52.495 -25.475  1.00  0.00     0.052 A 
HETATM   10  C14 UNL     1      -1.502  51.338 -25.188  1.00  0.00     0.107 A 
HETATM   11  N6  UNL     1      -2.365  50.817 -26.102  1.00  0.00    -0.351 N 
ATOM     12  H6  UNL     1      -2.886  49.967 -25.886  1.00  0.00     0.166 HD
HETATM   13  H10 UNL     1      -0.016  54.839 -27.487  1.00  0.00     0.187 HD
HETATM   14  H11 UNL     1       1.439  53.853 -23.364  1.00  0.00     0.161 HD
ENDROOT
BRANCH   1  15
HETATM   15  N2  UNL     1      -3.452  50.772 -28.117  1.00  0.00    -0.295 N 
HETATM   16  C4  UNL     1      -3.762  49.438 -28.151  1.00  0.00     0.322 C 
HETATM   17  N1  UNL     1      -4.751  49.185 -29.077  1.00  0.00    -0.332 N 
HETATM   18  O2  UNL     1      -3.239  48.555 -27.484  1.00  0.00    -0.247 OA
HETATM   19  H7  UNL     1      -5.386  49.949 -29.256  1.00  0.00     0.165 HD
HETATM   20  H8  UNL     1      -3.806  51.368 -28.847  1.00  0.00     0.172 HD
BRANCH  17  21
HETATM   21  C3  UNL     1      -5.321  47.847 -29.240  1.00  0.00     0.143 C 
BRANCH  21  22
HETATM   22  C2  UNL     1      -5.329  47.474 -30.745  1.00  0.00     0.197 C 
BRANCH  22  23
HETATM   23  O1  UNL     1      -4.666  48.409 -31.603  1.00  0.00    -0.394 OA
HETATM   24  C1  UNL     1      -4.629  48.000 -32.963  1.00  0.00     0.201 C 
ENDBRANCH  22  23
ENDBRANCH  21  22
BRANCH  21  25
HETATM   25  C15 UNL     1      -6.671  47.808 -28.531  1.00  0.00    -0.033 A 
HETATM   26  C16 UNL     1      -7.870  48.206 -29.139  1.00  0.00     0.009 A 
HETATM   27  C17 UNL     1      -9.074  48.177 -28.429  1.00  0.00     0.001 A 
HETATM   28  C18 UNL     1      -9.097  47.760 -27.101  1.00  0.00     0.000 A 
HETATM   29  C19 UNL     1      -7.914  47.368 -26.477  1.00  0.00     0.001 A 
HETATM   30  C20 UNL     1      -6.712  47.394 -27.186  1.00  0.00     0.009 A 
ENDBRANCH  21  25
ENDBRANCH  17  21
ENDBRANCH   1  15
BRANCH   8  31
HETATM   31  C9  UNL     1       0.485  52.146 -22.640  1.00  0.00     0.083 C 
HETATM   32  C10 UNL     1      -0.742  52.400 -21.730  1.00  0.00     0.025 C 
HETATM   33  C11 UNL     1       0.209  53.058 -20.710  1.00  0.00     0.004 C 
HETATM   34  C12 UNL     1       1.364  52.281 -21.374  1.00  0.00     0.025 C 
ENDBRANCH   8  31
TORSDOF 6
ENDMDL
MODEL 2
REMARK minimizedAffinity -8.21899509
REMARK  6 active torsions:
REMARK  status: ('A' for Active; 'I' for Inactive)
REMARK    1  A    between atoms: O1_2  and  C2_3 
REMARK    2  A    between atoms: C2_3  and  C3_4 
REMARK    3  A    between atoms: C3_4  and  N1_5 
REMARK    4  A    between atoms: C3_4  and  C15_25 
REMARK       I    between atoms: N1_5  and  C4_6 
REMARK       I    between atoms: C4_6  and  N2_8 
REMARK    5  A    between atoms: N2_8  and  C5_9 
REMARK    6  A    between atoms: N5_16  and  C9_17 
ROOT
HETATM    1  C5  UNL     1      -0.672  51.647 -20.512  1.00  0.00     0.111 A 
HETATM    2  C6  UNL     1      -1.018  50.350 -20.159  1.00  0.00     0.080 A 
HETATM    3  C7  UNL     1      -0.669  49.975 -18.862  1.00  0.00     0.067 A 
HETATM    4  N3  UNL     1      -0.842  48.805 -18.179  1.00  0.00    -0.298 N 
HETATM    5  N4  UNL     1      -0.364  48.826 -16.926  1.00  0.00    -0.284 N 
ATOM      6  H4  UNL     1      -0.388  48.077 -16.235  1.00  0.00     0.188 HD
HETATM    7  C8  UNL     1       0.152  50.050 -16.790  1.00  0.00     0.130 A 
HETATM    8  N5  UNL     1       0.746  50.413 -15.634  1.00  0.00    -0.370 N 
HETATM    9  C13 UNL     1      -0.019  50.825 -17.974  1.00  0.00     0.052 A 
HETATM   10  C14 UNL     1       0.280  52.115 -18.417  1.00  0.00     0.107 A 
HETATM   11  N6  UNL     1      -0.054  52.510 -19.675  1.00  0.00    -0.351 N 
ATOM     12  H6  UNL     1       0.163  53.456 -19.987  1.00  0.00     0.166 HD
HETATM   13  H10 UNL     1      -1.279  47.954 -18.512  1.00  0.00     0.187 HD
HETATM   14  H11 UNL     1       0.665  49.730 -14.885  1.00  0.00     0.161 HD
ENDROOT
BRANCH   1  15
HETATM   15  N2  UNL     1      -0.939  52.203 -21.764  1.00  0.00    -0.295 N 
HETATM   16  C4  UNL     1      -1.129  51.558 -22.958  1.00  0.00     0.322 C 
HETATM   17  N1  UNL     1      -1.403  52.456 -23.966  1.00  0.00    -0.332 N 
HETATM   18  O2  UNL     1      -1.049  50.352 -23.150  1.00  0.00    -0.247 OA
HETATM   19  H7  UNL     1      -1.849  53.314 -23.675  1.00  0.00     0.165 HD
HETATM   20  H8  UNL     1      -0.834  53.204 -21.769  1.00  0.00     0.172 HD
BRANCH  17  21
HETATM   21  C3  UNL     1      -1.732  52.009 -25.320  1.00  0.00     0.143 C 
BRANCH  21  22
HETATM   22  C2  UNL     1      -2.613  50.736 -25.238  1.00  0.00     0.197 C 
BRANCH  22  23
HETATM   23  O1  UNL     1      -2.227  49.675 -26.117  1.00  0.00    -0.394 OA
HETATM   24  C1  UNL     1      -3.082  48.542 -26.046  1.00  0.00     0.201 C 
ENDBRANCH  22  23
ENDBRANCH  21  22
BRANCH  21  25
HETATM   25  C15 UNL     1      -0.437  51.880 -26.115  1.00  0.00    -0.033 A 
HETATM   26  C16 UNL     1       0.823  51.745 -25.514  1.00  0.00     0.009 A 
HETATM   27  C17 UNL     1       1.980  51.661 -26.293  1.00  0.00     0.001 A 
HETATM   28  C18 UNL     1       1.898  51.722 -27.682  1.00  0.00     0.000 A 
HETATM   29  C19 UNL     1       0.656  51.865 -28.298  1.00  0.00     0.001 A 
HETATM   30  C20 UNL     1      -0.500  51.944 -27.520  1.00  0.00     0.009 A 
ENDBRANCH  21  25
ENDBRANCH  17  21
ENDBRANCH   1  15
BRANCH   8  31
HETATM   31  C9  UNL     1       1.263  51.692 -15.263  1.00  0.00     0.083 C 
HETATM   32  C10 UNL     1       2.729  51.892 -15.717  1.00  0.00     0.025 C 
HETATM   33  C11 UNL     1       3.180  51.367 -14.339  1.00  0.00     0.004 C 
HETATM   34  C12 UNL     1       1.782  51.739 -13.806  1.00  0.00     0.025 C 
ENDBRANCH   8  31
TORSDOF 6
ENDMDL
MODEL 3
REMARK minimizedAffinity -8.20760155
REMARK  6 active torsions:
REMARK  status: ('A' for Active; 'I' for Inactive)
REMARK    1  A    between atoms: O1_2  and  C2_3 
REMARK    2  A    between atoms: C2_3  and  C3_4 
REMARK    3  A    between atoms: C3_4  and  N1_5 
REMARK    4  A    between atoms: C3_4  and  C15_25 
REMARK       I    between atoms: N1_5  and  C4_6 
REMARK       I    between atoms: C4_6  and  N2_8 
REMARK    5  A    between atoms: N2_8  and  C5_9 
REMARK    6  A    between atoms: N5_16  and  C9_17 
ROOT
HETATM    1  C5  UNL     1       0.696  52.896 -19.897  1.00  0.00     0.111 A 
HETATM    2  C6  UNL     1       1.300  54.021 -20.441  1.00  0.00     0.080 A 
HETATM    3  C7  UNL     1       1.249  54.109 -21.831  1.00  0.00     0.067 A 
HETATM    4  N3  UNL     1       1.726  55.050 -22.699  1.00  0.00    -0.298 N 
HETATM    5  N4  UNL     1       1.478  54.782 -23.989  1.00  0.00    -0.284 N 
ATOM      6  H4  UNL     1       1.730  55.341 -24.804  1.00  0.00     0.188 HD
HETATM    7  C8  UNL     1       0.828  53.617 -23.965  1.00  0.00     0.130 A 
HETATM    8  N5  UNL     1       0.436  53.032 -25.117  1.00  0.00    -0.370 N 
HETATM    9  C13 UNL     1       0.644  53.147 -22.632  1.00  0.00     0.052 A 
HETATM   10  C14 UNL     1       0.054  52.054 -21.994  1.00  0.00     0.107 A 
HETATM   11  N6  UNL     1       0.084  51.945 -20.638  1.00  0.00    -0.351 N 
ATOM     12  H6  UNL     1      -0.355  51.146 -20.180  1.00  0.00     0.166 HD
HETATM   13  H10 UNL     1       2.230  55.900 -22.473  1.00  0.00     0.187 HD
HETATM   14  H11 UNL     1       0.586  53.597 -25.949  1.00  0.00     0.161 HD
ENDROOT
BRANCH   1  15
HETATM   15  N2  UNL     1       0.644  52.634 -18.528  1.00  0.00    -0.295 N 
HETATM   16  C4  UNL     1       0.281  51.474 -17.897  1.00  0.00     0.322 C 
HETATM   17  N1  UNL     1       0.392  51.600 -16.529  1.00  0.00    -0.332 N 
HETATM   18  O2  UNL     1      -0.116  50.450 -18.438  1.00  0.00    -0.247 OA
HETATM   19  H7  UNL     1       1.084  52.261 -16.208  1.00  0.00     0.165 HD
HETATM   20  H8  UNL     1       0.763  53.467 -17.974  1.00  0.00     0.172 HD
BRANCH  17  21
HETATM   21  C3  UNL     1       0.146  50.467 -15.635  1.00  0.00     0.143 C 
BRANCH  21  22
HETATM   22  C2  UNL     1      -1.080  50.780 -14.739  1.00  0.00     0.197 C 
BRANCH  22  23
HETATM   23  O1  UNL     1      -0.897  51.860 -13.818  1.00  0.00    -0.394 OA
HETATM   24  C1  UNL     1      -1.889  51.913 -12.803  1.00  0.00     0.201 C 
ENDBRANCH  22  23
ENDBRANCH  21  22
BRANCH  21  25
HETATM   25  C15 UNL     1       1.445  50.136 -14.907  1.00  0.00    -0.033 A 
HETATM   26  C16 UNL     1       1.673  48.912 -14.262  1.00  0.00     0.009 A 
HETATM   27  C17 UNL     1       2.872  48.675 -13.584  1.00  0.00     0.001 A 
HETATM   28  C18 UNL     1       3.855  49.660 -13.530  1.00  0.00     0.000 A 
HETATM   29  C19 UNL     1       3.644  50.886 -14.157  1.00  0.00     0.001 A 
HETATM   30  C20 UNL     1       2.448  51.121 -14.838  1.00  0.00     0.009 A 
ENDBRANCH  21  25
ENDBRANCH  17  21
ENDBRANCH   1  15
BRANCH   8  31
HETATM   31  C9  UNL     1      -0.348  51.851 -25.294  1.00  0.00     0.083 C 
HETATM   32  C10 UNL     1       0.313  50.842 -26.264  1.00  0.00     0.025 C 
HETATM   33  C11 UNL     1      -0.493  51.486 -27.410  1.00  0.00     0.004 C 
HETATM   34  C12 UNL     1      -1.471  52.019 -26.344  1.00  0.00     0.025 C 
ENDBRANCH   8  31
TORSDOF 6
ENDMDL
MODEL 4
REMARK minimizedAffinity -8.09723759
REMARK  6 active torsions:
REMARK  status: ('A' for Active; 'I' for Inactive)
REMARK    1  A    between atoms: O1_2  and  C2_3 
REMARK    2  A    between atoms: C2_3  and  C3_4 
REMARK    3  A    between atoms: C3_4  and  N1_5 
REMARK    4  A    between atoms: C3_4  and  C15_25 
REMARK       I    between atoms: N1_5  and  C4_6 
REMARK       I    between atoms: C4_6  and  N2_8 
REMARK    5  A    between atoms: N2_8  and  C5_9 
REMARK    6  A    between atoms: N5_16  and  C9_17 
ROOT
HETATM    1  C5  UNL     1       0.188  52.225 -20.151  1.00  0.00     0.111 A 
HETATM    2  C6  UNL     1       0.864  53.420 -20.352  1.00  0.00     0.080 A 
HETATM    3  C7  UNL     1       1.040  53.786 -21.686  1.00  0.00     0.067 A 
HETATM    4  N3  UNL     1       1.645  54.869 -22.258  1.00  0.00    -0.298 N 
HETATM    5  N4  UNL     1       1.613  54.870 -23.598  1.00  0.00    -0.284 N 
ATOM      6  H4  UNL     1       1.991  55.574 -24.232  1.00  0.00     0.188 HD
HETATM    7  C8  UNL     1       0.977  53.740 -23.914  1.00  0.00     0.130 A 
HETATM    8  N5  UNL     1       0.782  53.408 -25.209  1.00  0.00    -0.370 N 
HETATM    9  C13 UNL     1       0.581  53.018 -22.751  1.00  0.00     0.052 A 
HETATM   10  C14 UNL     1      -0.096  51.835 -22.450  1.00  0.00     0.107 A 
HETATM   11  N6  UNL     1      -0.287  51.457 -21.156  1.00  0.00    -0.351 N 
ATOM     12  H6  UNL     1      -0.789  50.594 -20.946  1.00  0.00     0.166 HD
HETATM   13  H10 UNL     1       2.099  55.643 -21.787  1.00  0.00     0.187 HD
HETATM   14  H11 UNL     1       1.062  54.123 -25.874  1.00  0.00     0.161 HD
ENDROOT
BRANCH   1  15
HETATM   15  N2  UNL     1      -0.084  51.696 -18.888  1.00  0.00    -0.295 N 
HETATM   16  C4  UNL     1       0.592  51.904 -17.716  1.00  0.00     0.322 C 
HETATM   17  N1  UNL     1      -0.007  51.228 -16.674  1.00  0.00    -0.332 N 
HETATM   18  O2  UNL     1       1.609  52.570 -17.574  1.00  0.00    -0.247 OA
HETATM   19  H7  UNL     1      -1.000  51.074 -16.770  1.00  0.00     0.165 HD
HETATM   20  H8  UNL     1      -0.786  50.974 -18.919  1.00  0.00     0.172 HD
BRANCH  17  21
HETATM   21  C3  UNL     1       0.475  51.362 -15.298  1.00  0.00     0.143 C 
BRANCH  21  22
HETATM   22  C2  UNL     1       1.417  50.175 -14.970  1.00  0.00     0.197 C 
BRANCH  22  23
HETATM   23  O1  UNL     1       2.547  50.507 -14.157  1.00  0.00    -0.394 OA
HETATM   24  C1  UNL     1       3.314  51.588 -14.669  1.00  0.00     0.201 C 
ENDBRANCH  22  23
ENDBRANCH  21  22
BRANCH  21  25
HETATM   25  C15 UNL     1      -0.729  51.540 -14.380  1.00  0.00    -0.033 A 
HETATM   26  C16 UNL     1      -0.661  52.198 -13.143  1.00  0.00     0.009 A 
HETATM   27  C17 UNL     1      -1.791  52.306 -12.328  1.00  0.00     0.001 A 
HETATM   28  C18 UNL     1      -3.002  51.748 -12.730  1.00  0.00     0.000 A 
HETATM   29  C19 UNL     1      -3.088  51.082 -13.951  1.00  0.00     0.001 A 
HETATM   30  C20 UNL     1      -1.960  50.978 -14.767  1.00  0.00     0.009 A 
ENDBRANCH  21  25
ENDBRANCH  17  21
ENDBRANCH   1  15
BRANCH   8  31
HETATM   31  C9  UNL     1       0.047  52.306 -25.743  1.00  0.00     0.083 C 
HETATM   32  C10 UNL     1       0.968  51.171 -26.253  1.00  0.00     0.025 C 
HETATM   33  C11 UNL     1       0.916  51.819 -27.651  1.00  0.00     0.004 C 
HETATM   34  C12 UNL     1      -0.385  52.520 -27.213  1.00  0.00     0.025 C 
ENDBRANCH   8  31
TORSDOF 6
ENDMDL
MODEL 5
REMARK minimizedAffinity -8.06861782
REMARK  6 active torsions:
REMARK  status: ('A' for Active; 'I' for Inactive)
REMARK    1  A    between atoms: O1_2  and  C2_3 
REMARK    2  A    between atoms: C2_3  and  C3_4 
REMARK    3  A    between atoms: C3_4  and  N1_5 
REMARK    4  A    between atoms: C3_4  and  C15_25 
REMARK       I    between atoms: N1_5  and  C4_6 
REMARK       I    between atoms: C4_6  and  N2_8 
REMARK    5  A    between atoms: N2_8  and  C5_9 
REMARK    6  A    between atoms: N5_16  and  C9_17 
ROOT
HETATM    1  C5  UNL     1      -3.461  49.082 -25.568  1.00  0.00     0.111 A 
HETATM    2  C6  UNL     1      -4.643  48.663 -24.975  1.00  0.00     0.080 A 
HETATM    3  C7  UNL     1      -5.583  48.115 -25.848  1.00  0.00     0.067 A 
HETATM    4  N3  UNL     1      -6.833  47.608 -25.632  1.00  0.00    -0.298 N 
HETATM    5  N4  UNL     1      -7.443  47.167 -26.742  1.00  0.00    -0.284 N 
ATOM      6  H4  UNL     1      -8.368  46.744 -26.821  1.00  0.00     0.188 HD
HETATM    7  C8  UNL     1      -6.566  47.406 -27.719  1.00  0.00     0.130 A 
HETATM    8  N5  UNL     1      -6.870  47.096 -28.997  1.00  0.00    -0.370 N 
HETATM    9  C13 UNL     1      -5.369  47.994 -27.216  1.00  0.00     0.052 A 
HETATM   10  C14 UNL     1      -4.144  48.436 -27.720  1.00  0.00     0.107 A 
HETATM   11  N6  UNL     1      -3.206  48.969 -26.891  1.00  0.00    -0.351 N 
ATOM     12  H6  UNL     1      -2.312  49.283 -27.267  1.00  0.00     0.166 HD
HETATM   13  H10 UNL     1      -7.327  47.535 -24.751  1.00  0.00     0.187 HD
HETATM   14  H11 UNL     1      -7.744  46.591 -29.112  1.00  0.00     0.161 HD
ENDROOT
BRANCH   1  15
HETATM   15  N2  UNL     1      -2.402  49.653 -24.859  1.00  0.00    -0.295 N 
HETATM   16  C4  UNL     1      -1.962  50.949 -24.887  1.00  0.00     0.322 C 
HETATM   17  N1  UNL     1      -0.908  51.131 -24.017  1.00  0.00    -0.332 N 
HETATM   18  O2  UNL     1      -2.402  51.849 -25.591  1.00  0.00    -0.247 OA
HETATM   19  H7  UNL     1      -0.891  50.513 -23.220  1.00  0.00     0.165 HD
HETATM   20  H8  UNL     1      -1.839  48.962 -24.390  1.00  0.00     0.172 HD
BRANCH  17  21
HETATM   21  C3  UNL     1      -0.318  52.453 -23.798  1.00  0.00     0.143 C 
BRANCH  21  22
HETATM   22  C2  UNL     1       0.828  52.677 -24.817  1.00  0.00     0.197 C 
BRANCH  22  23
HETATM   23  O1  UNL     1       0.639  53.781 -25.708  1.00  0.00    -0.394 OA
HETATM   24  C1  UNL     1       0.273  53.391 -27.024  1.00  0.00     0.201 C 
ENDBRANCH  22  23
ENDBRANCH  21  22
BRANCH  21  25
HETATM   25  C15 UNL     1       0.058  52.575 -22.325  1.00  0.00    -0.033 A 
HETATM   26  C16 UNL     1      -0.506  51.777 -21.319  1.00  0.00     0.009 A 
HETATM   27  C17 UNL     1      -0.145  51.955 -19.980  1.00  0.00     0.001 A 
HETATM   28  C18 UNL     1       0.776  52.937 -19.625  1.00  0.00     0.000 A 
HETATM   29  C19 UNL     1       1.342  53.745 -20.610  1.00  0.00     0.001 A 
HETATM   30  C20 UNL     1       0.984  53.566 -21.947  1.00  0.00     0.009 A 
ENDBRANCH  21  25
ENDBRANCH  17  21
ENDBRANCH   1  15
BRANCH   8  31
HETATM   31  C9  UNL     1      -6.039  47.182 -30.156  1.00  0.00     0.083 C 
HETATM   32  C10 UNL     1      -6.324  48.451 -30.996  1.00  0.00     0.025 C 
HETATM   33  C11 UNL     1      -7.315  47.618 -31.832  1.00  0.00     0.004 C 
HETATM   34  C12 UNL     1      -6.572  46.356 -31.350  1.00  0.00     0.025 C 
ENDBRANCH   8  31
TORSDOF 6
ENDMDL
MODEL 6
REMARK minimizedAffinity -7.99318981
REMARK  6 active torsions:
REMARK  status: ('A' for Active; 'I' for Inactive)
REMARK    1  A    between atoms: O1_2  and  C2_3 
REMARK    2  A    between atoms: C2_3  and  C3_4 
REMARK    3  A    between atoms: C3_4  and  N1_5 
REMARK    4  A    between atoms: C3_4  and  C15_25 
REMARK       I    between atoms: N1_5  and  C4_6 
REMARK       I    between atoms: C4_6  and  N2_8 
REMARK    5  A    between atoms: N2_8  and  C5_9 
REMARK    6  A    between atoms: N5_16  and  C9_17 
ROOT
HETATM    1  C5  UNL     1       0.068  52.454 -20.183  1.00  0.00     0.111 A 
HETATM    2  C6  UNL     1       1.012  53.115 -19.410  1.00  0.00     0.080 A 
HETATM    3  C7  UNL     1       1.073  52.714 -18.076  1.00  0.00     0.067 A 
HETATM    4  N3  UNL     1       1.858  53.129 -17.039  1.00  0.00    -0.298 N 
HETATM    5  N4  UNL     1       1.618  52.495 -15.882  1.00  0.00    -0.284 N 
ATOM      6  H4  UNL     1       2.084  52.632 -14.985  1.00  0.00     0.188 HD
HETATM    7  C8  UNL     1       0.632  51.644 -16.170  1.00  0.00     0.130 A 
HETATM    8  N5  UNL     1       0.121  50.844 -15.210  1.00  0.00    -0.370 N 
HETATM    9  C13 UNL     1       0.251  51.727 -17.541  1.00  0.00     0.052 A 
HETATM   10  C14 UNL     1      -0.663  51.113 -18.399  1.00  0.00     0.107 A 
HETATM   11  N6  UNL     1      -0.739  51.480 -19.707  1.00  0.00    -0.351 N 
ATOM     12  H6  UNL     1      -1.406  51.021 -20.328  1.00  0.00     0.166 HD
HETATM   13  H10 UNL     1       2.577  53.843 -17.055  1.00  0.00     0.187 HD
HETATM   14  H11 UNL     1       0.614  50.882 -14.322  1.00  0.00     0.161 HD
ENDROOT
BRANCH   1  15
HETATM   15  N2  UNL     1      -0.139  52.716 -21.538  1.00  0.00    -0.295 N 
HETATM   16  C4  UNL     1      -0.516  51.844 -22.525  1.00  0.00     0.322 C 
HETATM   17  N1  UNL     1      -0.647  52.493 -23.734  1.00  0.00    -0.332 N 
HETATM   18  O2  UNL     1      -0.697  50.640 -22.397  1.00  0.00    -0.247 OA
HETATM   19  H7  UNL     1      -0.892  53.471 -23.678  1.00  0.00     0.165 HD
HETATM   20  H8  UNL     1       0.170  53.638 -21.802  1.00  0.00     0.172 HD
BRANCH  17  21
HETATM   21  C3  UNL     1      -1.128  51.796 -24.928  1.00  0.00     0.143 C 
BRANCH  21  22
HETATM   22  C2  UNL     1      -1.770  50.448 -24.509  1.00  0.00     0.197 C 
BRANCH  22  23
HETATM   23  O1  UNL     1      -2.935  50.076 -25.252  1.00  0.00    -0.394 OA
HETATM   24  C1  UNL     1      -2.764  48.890 -26.016  1.00  0.00     0.201 C 
ENDBRANCH  22  23
ENDBRANCH  21  22
BRANCH  21  25
HETATM   25  C15 UNL     1       0.016  51.712 -25.932  1.00  0.00    -0.033 A 
HETATM   26  C16 UNL     1       1.367  51.667 -25.557  1.00  0.00     0.009 A 
HETATM   27  C17 UNL     1       2.376  51.622 -26.523  1.00  0.00     0.001 A 
HETATM   28  C18 UNL     1       2.052  51.632 -27.877  1.00  0.00     0.000 A 
HETATM   29  C19 UNL     1       0.716  51.685 -28.271  1.00  0.00     0.001 A 
HETATM   30  C20 UNL     1      -0.292  51.727 -27.306  1.00  0.00     0.009 A 
ENDBRANCH  21  25
ENDBRANCH  17  21
ENDBRANCH   1  15
BRANCH   8  31
HETATM   31  C9  UNL     1      -0.857  49.810 -15.340  1.00  0.00     0.083 C 
HETATM   32  C10 UNL     1      -2.300  50.330 -15.132  1.00  0.00     0.025 C 
HETATM   33  C11 UNL     1      -2.172  49.953 -13.643  1.00  0.00     0.004 C 
HETATM   34  C12 UNL     1      -1.043  48.984 -14.046  1.00  0.00     0.025 C 
ENDBRANCH   8  31
TORSDOF 6
ENDMDL
MODEL 7
REMARK minimizedAffinity -7.85041857
REMARK  6 active torsions:
REMARK  status: ('A' for Active; 'I' for Inactive)
REMARK    1  A    between atoms: O1_2  and  C2_3 
REMARK    2  A    between atoms: C2_3  and  C3_4 
REMARK    3  A    between atoms: C3_4  and  N1_5 
REMARK    4  A    between atoms: C3_4  and  C15_25 
REMARK       I    between atoms: N1_5  and  C4_6 
REMARK       I    between atoms: C4_6  and  N2_8 
REMARK    5  A    between atoms: N2_8  and  C5_9 
REMARK    6  A    between atoms: N5_16  and  C9_17 
ROOT
HETATM    1  C5  UNL     1      -2.965  51.262 -20.453  1.00  0.00     0.111 A 
HETATM    2  C6  UNL     1      -4.337  51.371 -20.626  1.00  0.00     0.080 A 
HETATM    3  C7  UNL     1      -4.792  51.136 -21.923  1.00  0.00     0.067 A 
HETATM    4  N3  UNL     1      -6.048  51.154 -22.460  1.00  0.00    -0.298 N 
HETATM    5  N4  UNL     1      -6.087  50.872 -23.771  1.00  0.00    -0.284 N 
ATOM      6  H4  UNL     1      -6.906  50.819 -24.375  1.00  0.00     0.188 HD
HETATM    7  C8  UNL     1      -4.809  50.675 -24.104  1.00  0.00     0.130 A 
HETATM    8  N5  UNL     1      -4.476  50.384 -25.380  1.00  0.00    -0.370 N 
HETATM    9  C13 UNL     1      -3.946  50.818 -22.979  1.00  0.00     0.052 A 
HETATM   10  C14 UNL     1      -2.580  50.723 -22.706  1.00  0.00     0.107 A 
HETATM   11  N6  UNL     1      -2.109  50.941 -21.449  1.00  0.00    -0.351 N 
ATOM     12  H6  UNL     1      -1.110  50.863 -21.257  1.00  0.00     0.166 HD
HETATM   13  H10 UNL     1      -6.921  51.352 -21.985  1.00  0.00     0.187 HD
HETATM   14  H11 UNL     1      -5.268  50.234 -25.999  1.00  0.00     0.161 HD
ENDROOT
BRANCH   1  15
HETATM   15  N2  UNL     1      -2.323  51.460 -19.229  1.00  0.00    -0.295 N 
HETATM   16  C4  UNL     1      -1.673  50.539 -18.452  1.00  0.00     0.322 C 
HETATM   17  N1  UNL     1      -1.139  51.131 -17.327  1.00  0.00    -0.332 N 
HETATM   18  O2  UNL     1      -1.576  49.340 -18.677  1.00  0.00    -0.247 OA
HETATM   19  H7  UNL     1      -0.899  52.106 -17.422  1.00  0.00     0.165 HD
HETATM   20  H8  UNL     1      -2.505  52.373 -18.844  1.00  0.00     0.172 HD
BRANCH  17  21
HETATM   21  C3  UNL     1      -0.318  50.373 -16.381  1.00  0.00     0.143 C 
BRANCH  21  22
HETATM   22  C2  UNL     1      -1.152  50.070 -15.110  1.00  0.00     0.197 C 
BRANCH  22  23
HETATM   23  O1  UNL     1      -1.692  51.221 -14.452  1.00  0.00    -0.394 OA
HETATM   24  C1  UNL     1      -3.105  51.179 -14.309  1.00  0.00     0.201 C 
ENDBRANCH  22  23
ENDBRANCH  21  22
BRANCH  21  25
HETATM   25  C15 UNL     1       0.989  51.128 -16.164  1.00  0.00    -0.033 A 
HETATM   26  C16 UNL     1       1.473  52.099 -17.054  1.00  0.00     0.009 A 
HETATM   27  C17 UNL     1       2.694  52.737 -16.819  1.00  0.00     0.001 A 
HETATM   28  C18 UNL     1       3.455  52.408 -15.701  1.00  0.00     0.000 A 
HETATM   29  C19 UNL     1       2.996  51.439 -14.810  1.00  0.00     0.001 A 
HETATM   30  C20 UNL     1       1.775  50.805 -15.042  1.00  0.00     0.009 A 
ENDBRANCH  21  25
ENDBRANCH  17  21
ENDBRANCH   1  15
BRANCH   8  31
HETATM   31  C9  UNL     1      -3.193  50.047 -25.909  1.00  0.00     0.083 C 
HETATM   32  C10 UNL     1      -3.193  49.963 -27.455  1.00  0.00     0.025 C 
HETATM   33  C11 UNL     1      -3.481  48.454 -27.327  1.00  0.00     0.004 C 
HETATM   34  C12 UNL     1      -2.911  48.526 -25.896  1.00  0.00     0.025 C 
ENDBRANCH   8  31
TORSDOF 6
ENDMDL
MODEL 8
REMARK minimizedAffinity -7.80906534
REMARK  6 active torsions:
REMARK  status: ('A' for Active; 'I' for Inactive)
REMARK    1  A    between atoms: O1_2  and  C2_3 
REMARK    2  A    between atoms: C2_3  and  C3_4 
REMARK    3  A    between atoms: C3_4  and  N1_5 
REMARK    4  A    between atoms: C3_4  and  C15_25 
REMARK       I    between atoms: N1_5  and  C4_6 
REMARK       I    between atoms: C4_6  and  N2_8 
REMARK    5  A    between atoms: N2_8  and  C5_9 
REMARK    6  A    between atoms: N5_16  and  C9_17 
ROOT
HETATM    1  C5  UNL     1      -3.960  48.729 -26.544  1.00  0.00     0.111 A 
HETATM    2  C6  UNL     1      -5.023  48.226 -25.809  1.00  0.00     0.080 A 
HETATM    3  C7  UNL     1      -6.106  47.776 -26.563  1.00  0.00     0.067 A 
HETATM    4  N3  UNL     1      -7.303  47.230 -26.195  1.00  0.00    -0.298 N 
HETATM    5  N4  UNL     1      -8.103  46.919 -27.225  1.00  0.00    -0.284 N 
ATOM      6  H4  UNL     1      -9.031  46.497 -27.192  1.00  0.00     0.188 HD
HETATM    7  C8  UNL     1      -7.409  47.286 -28.305  1.00  0.00     0.130 A 
HETATM    8  N5  UNL     1      -7.936  47.129 -29.538  1.00  0.00    -0.370 N 
HETATM    9  C13 UNL     1      -6.137  47.824 -27.952  1.00  0.00     0.052 A 
HETATM   10  C14 UNL     1      -5.017  48.340 -28.606  1.00  0.00     0.107 A 
HETATM   11  N6  UNL     1      -3.943  48.781 -27.895  1.00  0.00    -0.351 N 
ATOM     12  H6  UNL     1      -3.126  49.150 -28.382  1.00  0.00     0.166 HD
HETATM   13  H10 UNL     1      -7.635  47.045 -25.256  1.00  0.00     0.187 HD
HETATM   14  H11 UNL     1      -8.821  46.630 -29.559  1.00  0.00     0.161 HD
ENDROOT
BRANCH   1  15
HETATM   15  N2  UNL     1      -2.789  49.224 -25.968  1.00  0.00    -0.295 N 
HETATM   16  C4  UNL     1      -2.329  50.514 -25.950  1.00  0.00     0.322 C 
HETATM   17  N1  UNL     1      -1.145  50.607 -25.251  1.00  0.00    -0.332 N 
HETATM   18  O2  UNL     1      -2.856  51.478 -26.490  1.00  0.00    -0.247 OA
HETATM   19  H7  UNL     1      -1.014  49.917 -24.525  1.00  0.00     0.165 HD
HETATM   20  H8  UNL     1      -2.173  48.488 -25.661  1.00  0.00     0.172 HD
BRANCH  17  21
HETATM   21  C3  UNL     1      -0.497  51.897 -25.012  1.00  0.00     0.143 C 
BRANCH  21  22
HETATM   22  C2  UNL     1       0.734  52.031 -25.943  1.00  0.00     0.197 C 
BRANCH  22  23
HETATM   23  O1  UNL     1       0.898  53.318 -26.548  1.00  0.00    -0.394 OA
HETATM   24  C1  UNL     1      -0.197  53.701 -27.369  1.00  0.00     0.201 C 
ENDBRANCH  22  23
ENDBRANCH  21  22
BRANCH  21  25
HETATM   25  C15 UNL     1      -0.228  52.034 -23.517  1.00  0.00    -0.033 A 
HETATM   26  C16 UNL     1       0.630  53.002 -22.976  1.00  0.00     0.009 A 
HETATM   27  C17 UNL     1       0.863  53.061 -21.599  1.00  0.00     0.001 A 
HETATM   28  C18 UNL     1       0.251  52.148 -20.744  1.00  0.00     0.000 A 
HETATM   29  C19 UNL     1      -0.598  51.173 -21.263  1.00  0.00     0.001 A 
HETATM   30  C20 UNL     1      -0.834  51.116 -22.638  1.00  0.00     0.009 A 
ENDBRANCH  21  25
ENDBRANCH  17  21
ENDBRANCH   1  15
BRANCH   8  31
HETATM   31  C9  UNL     1      -7.320  47.366 -30.805  1.00  0.00     0.083 C 
HETATM   32  C10 UNL     1      -8.020  48.493 -31.602  1.00  0.00     0.025 C 
HETATM   33  C11 UNL     1      -8.885  47.413 -32.282  1.00  0.00     0.004 C 
HETATM   34  C12 UNL     1      -7.797  46.388 -31.905  1.00  0.00     0.025 C 
ENDBRANCH   8  31
TORSDOF 6
ENDMDL
MODEL 9
REMARK minimizedAffinity -7.76141977
REMARK  6 active torsions:
REMARK  status: ('A' for Active; 'I' for Inactive)
REMARK    1  A    between atoms: O1_2  and  C2_3 
REMARK    2  A    between atoms: C2_3  and  C3_4 
REMARK    3  A    between atoms: C3_4  and  N1_5 
REMARK    4  A    between atoms: C3_4  and  C15_25 
REMARK       I    between atoms: N1_5  and  C4_6 
REMARK       I    between atoms: C4_6  and  N2_8 
REMARK    5  A    between atoms: N2_8  and  C5_9 
REMARK    6  A    between atoms: N5_16  and  C9_17 
ROOT
HETATM    1  C5  UNL     1      -4.629  48.303 -27.395  1.00  0.00     0.111 A 
HETATM    2  C6  UNL     1      -4.705  48.207 -28.777  1.00  0.00     0.080 A 
HETATM    3  C7  UNL     1      -5.932  47.770 -29.276  1.00  0.00     0.067 A 
HETATM    4  N3  UNL     1      -6.368  47.556 -30.552  1.00  0.00    -0.298 N 
HETATM    5  N4  UNL     1      -7.635  47.126 -30.633  1.00  0.00    -0.284 N 
ATOM      6  H4  UNL     1      -8.171  46.911 -31.474  1.00  0.00     0.188 HD
HETATM    7  C8  UNL     1      -8.038  47.042 -29.363  1.00  0.00     0.130 A 
HETATM    8  N5  UNL     1      -9.284  46.614 -29.071  1.00  0.00    -0.370 N 
HETATM    9  C13 UNL     1      -7.010  47.445 -28.461  1.00  0.00     0.052 A 
HETATM   10  C14 UNL     1      -6.842  47.581 -27.081  1.00  0.00     0.107 A 
HETATM   11  N6  UNL     1      -5.658  48.012 -26.568  1.00  0.00    -0.351 N 
ATOM     12  H6  UNL     1      -5.546  48.114 -25.559  1.00  0.00     0.166 HD
HETATM   13  H10 UNL     1      -5.849  47.686 -31.413  1.00  0.00     0.187 HD
HETATM   14  H11 UNL     1      -9.883  46.474 -29.880  1.00  0.00     0.161 HD
ENDROOT
BRANCH   1  15
HETATM   15  N2  UNL     1      -3.486  48.723 -26.713  1.00  0.00    -0.295 N 
HETATM   16  C4  UNL     1      -3.002  49.996 -26.570  1.00  0.00     0.322 C 
HETATM   17  N1  UNL     1      -1.862  50.006 -25.794  1.00  0.00    -0.332 N 
HETATM   18  O2  UNL     1      -3.472  51.010 -27.068  1.00  0.00    -0.247 OA
HETATM   19  H7  UNL     1      -1.792  49.262 -25.115  1.00  0.00     0.165 HD
HETATM   20  H8  UNL     1      -2.907  47.951 -26.424  1.00  0.00     0.172 HD
BRANCH  17  21
HETATM   21  C3  UNL     1      -1.203  51.259 -25.420  1.00  0.00     0.143 C 
BRANCH  21  22
HETATM   22  C2  UNL     1      -2.246  52.406 -25.426  1.00  0.00     0.197 C 
BRANCH  22  23
HETATM   23  O1  UNL     1      -2.471  53.026 -24.156  1.00  0.00    -0.394 OA
HETATM   24  C1  UNL     1      -3.354  52.293 -23.318  1.00  0.00     0.201 C 
ENDBRANCH  22  23
ENDBRANCH  21  22
BRANCH  21  25
HETATM   25  C15 UNL     1       0.015  51.451 -26.317  1.00  0.00    -0.033 A 
HETATM   26  C16 UNL     1      -0.076  51.678 -27.698  1.00  0.00     0.009 A 
HETATM   27  C17 UNL     1       1.076  51.818 -28.476  1.00  0.00     0.001 A 
HETATM   28  C18 UNL     1       2.335  51.721 -27.890  1.00  0.00     0.000 A 
HETATM   29  C19 UNL     1       2.447  51.487 -26.520  1.00  0.00     0.001 A 
HETATM   30  C20 UNL     1       1.296  51.352 -25.742  1.00  0.00     0.009 A 
ENDBRANCH  21  25
ENDBRANCH  17  21
ENDBRANCH   1  15
BRANCH   8  31
HETATM   31  C9  UNL     1      -9.927  46.549 -27.797  1.00  0.00     0.083 C 
HETATM   32  C10 UNL     1     -11.364  45.981 -27.886  1.00  0.00     0.025 C 
HETATM   33  C11 UNL     1     -11.879  47.428 -28.016  1.00  0.00     0.004 C 
HETATM   34  C12 UNL     1     -10.560  47.894 -27.367  1.00  0.00     0.025 C 
ENDBRANCH   8  31
TORSDOF 6
ENDMDL
