MODEL 1
REMARK minimizedAffinity -8.9870348
REMARK CNNscore 0.611317039
REMARK CNNaffinity 5.93012762
REMARK  7 active torsions:
REMARK  status: ('A' for Active; 'I' for Inactive)
REMARK       I    between atoms: C1_2  and  N1_3 
REMARK    1  A    between atoms: C1_2  and  C8_12 
REMARK    2  A    between atoms: N1_3  and  C2_4 
REMARK    3  A    between atoms: C5_7  and  O2_8 
REMARK    4  A    between atoms: N2_15  and  C11_16 
REMARK    5  A    between atoms: C11_16  and  C12_17 
REMARK       I    between atoms: C12_17  and  N3_19 
REMARK    6  A    between atoms: N4_22  and  C15_23 
REMARK    7  A    between atoms: C18_26  and  C19_27 
ROOT
HETATM    1  C12 UNL     1      -8.381  46.356 -30.411  1.00  0.00     0.248 C 
HETATM    2  O3  UNL     1      -7.914  45.450 -31.105  1.00  0.00    -0.271 OA
HETATM    3  N3  UNL     1      -7.577  47.031 -29.497  1.00  0.00    -0.348 N 
HETATM    4  C13 UNL     1      -8.042  48.024 -28.519  1.00  0.00     0.145 C 
HETATM    5  C14 UNL     1      -7.269  47.935 -27.188  1.00  0.00     0.143 C 
HETATM    6  N4  UNL     1      -5.824  48.108 -27.394  1.00  0.00    -0.378 N 
HETATM    7  C27 UNL     1      -5.278  47.691 -28.702  1.00  0.00     0.143 C 
HETATM    8  C28 UNL     1      -6.169  46.640 -29.392  1.00  0.00     0.145 C 
ENDROOT
BRANCH   1   9
HETATM    9  C11 UNL     1      -9.857  46.800 -30.486  1.00  0.00     0.374 C 
BRANCH   9  10
HETATM   10  N2  UNL     1     -10.820  46.059 -29.652  1.00  0.00     0.098 N 
HETATM   11  C10 UNL     1     -10.224  45.262 -28.580  1.00  0.00     0.274 C 
HETATM   12  C9  UNL     1     -11.338  44.301 -28.161  1.00  0.00     0.046 C 
HETATM   13  C8  UNL     1     -12.403  44.402 -29.256  1.00  0.00     0.108 C 
HETATM   14  C29 UNL     1     -11.717  45.161 -30.389  1.00  0.00     0.287 C 
BRANCH  13  15
HETATM   15  C1  UNL     1     -13.658  45.129 -28.757  1.00  0.00     0.228 C 
HETATM   16  O1  UNL     1     -13.849  46.308 -29.045  1.00  0.00    -0.273 OA
HETATM   17  N1  UNL     1     -14.500  44.320 -28.015  1.00  0.00    -0.327 N 
HETATM   18  H1  UNL     1     -14.128  43.393 -27.812  1.00  0.00     0.169 HD
BRANCH  17  19
HETATM   19  C2  UNL     1     -15.763  44.624 -27.479  1.00  0.00     0.036 A 
HETATM   20  C3  UNL     1     -16.872  44.052 -28.118  1.00  0.00     0.032 A 
HETATM   21  C4  UNL     1     -18.166  44.319 -27.672  1.00  0.00     0.040 A 
HETATM   22  C5  UNL     1     -18.356  45.161 -26.586  1.00  0.00     0.087 A 
HETATM   23  C6  UNL     1     -17.260  45.735 -25.939  1.00  0.00     0.069 A 
HETATM   24 CL1  UNL     1     -17.500  46.809 -24.608  1.00  0.00    -0.081 Cl
HETATM   25  C7  UNL     1     -15.964  45.467 -26.382  1.00  0.00     0.056 A 
BRANCH  22  26
HETATM   26  O2  UNL     1     -19.643  45.409 -26.200  1.00  0.00    -0.359 OA
HETATM   27  H4  UNL     1     -19.603  46.047 -25.463  1.00  0.00     0.217 HD
ENDBRANCH  22  26
ENDBRANCH  17  19
ENDBRANCH  13  15
ENDBRANCH   9  10
ENDBRANCH   1   9
BRANCH   6  28
HETATM   28  C15 UNL     1      -4.965  48.284 -26.315  1.00  0.00     0.030 A 
HETATM   29  C16 UNL     1      -5.433  48.268 -24.993  1.00  0.00     0.030 A 
HETATM   30  C17 UNL     1      -4.581  48.465 -23.892  1.00  0.00     0.014 A 
HETATM   31  C18 UNL     1      -3.208  48.675 -24.061  1.00  0.00    -0.023 A 
HETATM   32  C25 UNL     1      -2.726  48.662 -25.377  1.00  0.00     0.014 A 
HETATM   33  C26 UNL     1      -3.583  48.469 -26.473  1.00  0.00     0.030 A 
BRANCH  31  34
HETATM   34  C19 UNL     1      -2.309  48.908 -22.914  1.00  0.00     0.013 A 
HETATM   35  C20 UNL     1      -1.720  50.170 -22.704  1.00  0.00     0.015 A 
HETATM   36  C21 UNL     1      -0.870  50.409 -21.617  1.00  0.00     0.001 A 
HETATM   37  C22 UNL     1      -0.592  49.388 -20.711  1.00  0.00     0.003 A 
HETATM   38  C23 UNL     1      -1.162  48.131 -20.895  1.00  0.00     0.043 A 
HETATM   39  C24 UNL     1      -2.006  47.900 -21.982  1.00  0.00     0.127 A 
HETATM   40  F1  UNL     1      -2.525  46.669 -22.120  1.00  0.00    -0.205 F 
ENDBRANCH  31  34
ENDBRANCH   6  28
TORSDOF 7
ENDMDL
MODEL 2
REMARK minimizedAffinity -9.73899364
REMARK CNNscore 0.516503453
REMARK CNNaffinity 6.07382059
REMARK  7 active torsions:
REMARK  status: ('A' for Active; 'I' for Inactive)
REMARK       I    between atoms: C1_2  and  N1_3 
REMARK    1  A    between atoms: C1_2  and  C8_12 
REMARK    2  A    between atoms: N1_3  and  C2_4 
REMARK    3  A    between atoms: C5_7  and  O2_8 
REMARK    4  A    between atoms: N2_15  and  C11_16 
REMARK    5  A    between atoms: C11_16  and  C12_17 
REMARK       I    between atoms: C12_17  and  N3_19 
REMARK    6  A    between atoms: N4_22  and  C15_23 
REMARK    7  A    between atoms: C18_26  and  C19_27 
ROOT
HETATM    1  C12 UNL     1      -8.586  48.099 -31.078  1.00  0.00     0.248 C 
HETATM    2  O3  UNL     1      -9.756  48.313 -30.754  1.00  0.00    -0.271 OA
HETATM    3  N3  UNL     1      -7.607  47.915 -30.106  1.00  0.00    -0.348 N 
HETATM    4  C13 UNL     1      -6.164  47.795 -30.357  1.00  0.00     0.145 C 
HETATM    5  C14 UNL     1      -5.323  48.459 -29.249  1.00  0.00     0.143 C 
HETATM    6  N4  UNL     1      -5.627  47.887 -27.929  1.00  0.00    -0.378 N 
HETATM    7  C27 UNL     1      -6.988  47.347 -27.729  1.00  0.00     0.143 C 
HETATM    8  C28 UNL     1      -8.008  47.975 -28.698  1.00  0.00     0.145 C 
ENDROOT
BRANCH   1   9
HETATM    9  C11 UNL     1      -8.116  48.029 -32.546  1.00  0.00     0.374 C 
BRANCH   9  10
HETATM   10  N2  UNL     1      -8.819  47.077 -33.426  1.00  0.00     0.098 N 
HETATM   11  C10 UNL     1      -8.872  45.702 -32.930  1.00  0.00     0.274 C 
HETATM   12  C9  UNL     1      -9.250  44.873 -34.159  1.00  0.00     0.046 C 
HETATM   13  C8  UNL     1      -9.068  45.808 -35.358  1.00  0.00     0.108 C 
HETATM   14  C29 UNL     1      -8.305  47.005 -34.798  1.00  0.00     0.287 C 
BRANCH  13  15
HETATM   15  C1  UNL     1     -10.417  46.219 -35.960  1.00  0.00     0.228 C 
HETATM   16  O1  UNL     1     -11.468  45.849 -35.443  1.00  0.00    -0.273 OA
HETATM   17  N1  UNL     1     -10.295  47.034 -37.072  1.00  0.00    -0.327 N 
HETATM   18  H1  UNL     1      -9.339  47.162 -37.400  1.00  0.00     0.169 HD
BRANCH  17  19
HETATM   19  C2  UNL     1     -11.308  47.662 -37.817  1.00  0.00     0.036 A 
HETATM   20  C3  UNL     1     -10.898  48.408 -38.931  1.00  0.00     0.032 A 
HETATM   21  C4  UNL     1     -11.832  49.087 -39.714  1.00  0.00     0.040 A 
HETATM   22  C5  UNL     1     -13.178  49.026 -39.383  1.00  0.00     0.087 A 
HETATM   23  C6  UNL     1     -13.598  48.285 -38.277  1.00  0.00     0.069 A 
HETATM   24 CL1  UNL     1     -15.270  48.237 -37.847  1.00  0.00    -0.081 Cl
HETATM   25  C7  UNL     1     -12.666  47.602 -37.494  1.00  0.00     0.056 A 
BRANCH  22  26
HETATM   26  O2  UNL     1     -14.051  49.726 -40.168  1.00  0.00    -0.359 OA
HETATM   27  H4  UNL     1     -14.938  49.616 -39.776  1.00  0.00     0.217 HD
ENDBRANCH  22  26
ENDBRANCH  17  19
ENDBRANCH  13  15
ENDBRANCH   9  10
ENDBRANCH   1   9
BRANCH   6  28
HETATM   28  C15 UNL     1      -4.835  48.180 -26.824  1.00  0.00     0.030 A 
HETATM   29  C16 UNL     1      -5.369  48.227 -25.528  1.00  0.00     0.030 A 
HETATM   30  C17 UNL     1      -4.586  48.542 -24.404  1.00  0.00     0.014 A 
HETATM   31  C18 UNL     1      -3.217  48.810 -24.521  1.00  0.00    -0.023 A 
HETATM   32  C25 UNL     1      -2.668  48.734 -25.808  1.00  0.00     0.014 A 
HETATM   33  C26 UNL     1      -3.457  48.424 -26.928  1.00  0.00     0.030 A 
BRANCH  31  34
HETATM   34  C19 UNL     1      -2.391  49.166 -23.351  1.00  0.00     0.013 A 
HETATM   35  C20 UNL     1      -1.711  50.399 -23.295  1.00  0.00     0.015 A 
HETATM   36  C21 UNL     1      -0.929  50.753 -22.190  1.00  0.00     0.001 A 
HETATM   37  C22 UNL     1      -0.810  49.881 -21.109  1.00  0.00     0.003 A 
HETATM   38  C23 UNL     1      -1.473  48.657 -21.139  1.00  0.00     0.043 A 
HETATM   39  C24 UNL     1      -2.250  48.310 -22.246  1.00  0.00     0.127 A 
HETATM   40  F1  UNL     1      -2.862  47.115 -22.229  1.00  0.00    -0.205 F 
ENDBRANCH  31  34
ENDBRANCH   6  28
TORSDOF 7
ENDMDL
MODEL 3
REMARK minimizedAffinity -8.94869709
REMARK CNNscore 0.363359243
REMARK CNNaffinity 6.08143234
REMARK  7 active torsions:
REMARK  status: ('A' for Active; 'I' for Inactive)
REMARK       I    between atoms: C1_2  and  N1_3 
REMARK    1  A    between atoms: C1_2  and  C8_12 
REMARK    2  A    between atoms: N1_3  and  C2_4 
REMARK    3  A    between atoms: C5_7  and  O2_8 
REMARK    4  A    between atoms: N2_15  and  C11_16 
REMARK    5  A    between atoms: C11_16  and  C12_17 
REMARK       I    between atoms: C12_17  and  N3_19 
REMARK    6  A    between atoms: N4_22  and  C15_23 
REMARK    7  A    between atoms: C18_26  and  C19_27 
ROOT
HETATM    1  C12 UNL     1      -7.419  47.570 -26.791  1.00  0.00     0.248 C 
HETATM    2  O3  UNL     1      -8.501  47.552 -26.200  1.00  0.00    -0.271 OA
HETATM    3  N3  UNL     1      -6.253  47.920 -26.118  1.00  0.00    -0.348 N 
HETATM    4  C13 UNL     1      -4.934  48.117 -26.735  1.00  0.00     0.145 C 
HETATM    5  C14 UNL     1      -4.140  49.253 -26.062  1.00  0.00     0.143 C 
HETATM    6  N4  UNL     1      -3.961  49.005 -24.624  1.00  0.00    -0.378 N 
HETATM    7  C27 UNL     1      -5.002  48.204 -23.947  1.00  0.00     0.143 C 
HETATM    8  C28 UNL     1      -6.348  48.255 -24.694  1.00  0.00     0.145 C 
ENDROOT
BRANCH   1   9
HETATM    9  C11 UNL     1      -7.270  47.227 -28.288  1.00  0.00     0.374 C 
BRANCH   9  10
HETATM   10  N2  UNL     1      -8.400  46.528 -28.928  1.00  0.00     0.098 N 
HETATM   11  C10 UNL     1      -8.037  45.673 -30.058  1.00  0.00     0.274 C 
HETATM   12  C9  UNL     1      -9.363  45.420 -30.778  1.00  0.00     0.046 C 
HETATM   13  C8  UNL     1     -10.353  46.425 -30.185  1.00  0.00     0.108 C 
HETATM   14  C29 UNL     1      -9.483  47.400 -29.397  1.00  0.00     0.287 C 
BRANCH  13  15
HETATM   15  C1  UNL     1     -11.391  45.733 -29.293  1.00  0.00     0.228 C 
HETATM   16  O1  UNL     1     -11.178  44.607 -28.851  1.00  0.00    -0.273 OA
HETATM   17  N1  UNL     1     -12.508  46.511 -29.048  1.00  0.00    -0.327 N 
HETATM   18  H1  UNL     1     -12.539  47.385 -29.571  1.00  0.00     0.169 HD
BRANCH  17  19
HETATM   19  C2  UNL     1     -13.606  46.236 -28.214  1.00  0.00     0.036 A 
HETATM   20  C3  UNL     1     -13.563  46.771 -26.919  1.00  0.00     0.032 A 
HETATM   21  C4  UNL     1     -14.596  46.528 -26.014  1.00  0.00     0.040 A 
HETATM   22  C5  UNL     1     -15.674  45.745 -26.401  1.00  0.00     0.087 A 
HETATM   23  C6  UNL     1     -15.730  45.208 -27.688  1.00  0.00     0.069 A 
HETATM   24 CL1  UNL     1     -17.057  44.206 -28.155  1.00  0.00    -0.081 Cl
HETATM   25  C7  UNL     1     -14.699  45.452 -28.595  1.00  0.00     0.056 A 
BRANCH  22  26
HETATM   26  O2  UNL     1     -16.650  45.517 -25.472  1.00  0.00    -0.359 OA
HETATM   27  H4  UNL     1     -17.303  44.919 -25.883  1.00  0.00     0.217 HD
ENDBRANCH  22  26
ENDBRANCH  17  19
ENDBRANCH  13  15
ENDBRANCH   9  10
ENDBRANCH   1   9
BRANCH   6  28
HETATM   28  C15 UNL     1      -3.092  49.783 -23.868  1.00  0.00     0.030 A 
HETATM   29  C16 UNL     1      -2.234  49.213 -22.916  1.00  0.00     0.030 A 
HETATM   30  C17 UNL     1      -1.365  49.988 -22.128  1.00  0.00     0.014 A 
HETATM   31  C18 UNL     1      -1.301  51.380 -22.267  1.00  0.00    -0.023 A 
HETATM   32  C25 UNL     1      -2.132  51.955 -23.237  1.00  0.00     0.014 A 
HETATM   33  C26 UNL     1      -3.002  51.176 -24.017  1.00  0.00     0.030 A 
BRANCH  31  34
HETATM   34  C19 UNL     1      -0.410  52.205 -21.427  1.00  0.00     0.013 A 
HETATM   35  C20 UNL     1      -0.582  52.260 -20.031  1.00  0.00     0.015 A 
HETATM   36  C21 UNL     1       0.258  53.034 -19.221  1.00  0.00     0.001 A 
HETATM   37  C22 UNL     1       1.294  53.770 -19.790  1.00  0.00     0.003 A 
HETATM   38  C23 UNL     1       1.486  53.731 -21.169  1.00  0.00     0.043 A 
HETATM   39  C24 UNL     1       0.644  52.960 -21.971  1.00  0.00     0.127 A 
HETATM   40  F1  UNL     1       0.866  52.962 -23.295  1.00  0.00    -0.205 F 
ENDBRANCH  31  34
ENDBRANCH   6  28
TORSDOF 7
ENDMDL
MODEL 4
REMARK minimizedAffinity -9.18424034
REMARK CNNscore 0.348267734
REMARK CNNaffinity 5.98859358
REMARK  7 active torsions:
REMARK  status: ('A' for Active; 'I' for Inactive)
REMARK       I    between atoms: C1_2  and  N1_3 
REMARK    1  A    between atoms: C1_2  and  C8_12 
REMARK    2  A    between atoms: N1_3  and  C2_4 
REMARK    3  A    between atoms: C5_7  and  O2_8 
REMARK    4  A    between atoms: N2_15  and  C11_16 
REMARK    5  A    between atoms: C11_16  and  C12_17 
REMARK       I    between atoms: C12_17  and  N3_19 
REMARK    6  A    between atoms: N4_22  and  C15_23 
REMARK    7  A    between atoms: C18_26  and  C19_27 
ROOT
HETATM    1  C12 UNL     1      -8.516  46.590 -30.989  1.00  0.00     0.248 C 
HETATM    2  O3  UNL     1      -9.597  47.174 -30.887  1.00  0.00    -0.271 OA
HETATM    3  N3  UNL     1      -7.478  46.868 -30.105  1.00  0.00    -0.348 N 
HETATM    4  C13 UNL     1      -6.107  46.349 -30.205  1.00  0.00     0.145 C 
HETATM    5  C14 UNL     1      -5.058  47.384 -29.750  1.00  0.00     0.143 C 
HETATM    6  N4  UNL     1      -5.302  47.824 -28.369  1.00  0.00    -0.378 N 
HETATM    7  C27 UNL     1      -6.700  47.792 -27.892  1.00  0.00     0.143 C 
HETATM    8  C28 UNL     1      -7.710  47.862 -29.053  1.00  0.00     0.145 C 
ENDROOT
BRANCH   1   9
HETATM    9  C11 UNL     1      -8.225  45.537 -32.079  1.00  0.00     0.374 C 
BRANCH   9  10
HETATM   10  N2  UNL     1      -9.228  45.391 -33.150  1.00  0.00     0.098 N 
HETATM   11  C10 UNL     1     -10.543  44.929 -32.704  1.00  0.00     0.274 C 
HETATM   12  C9  UNL     1     -11.234  44.468 -33.989  1.00  0.00     0.046 C 
HETATM   13  C8  UNL     1     -10.131  44.398 -35.049  1.00  0.00     0.108 C 
HETATM   14  C29 UNL     1      -8.831  44.513 -34.256  1.00  0.00     0.287 C 
BRANCH  13  15
HETATM   15  C1  UNL     1     -10.273  45.521 -36.083  1.00  0.00     0.228 C 
HETATM   16  O1  UNL     1      -9.341  45.795 -36.835  1.00  0.00    -0.273 OA
HETATM   17  N1  UNL     1     -11.520  46.120 -36.074  1.00  0.00    -0.327 N 
HETATM   18  H1  UNL     1     -12.132  45.812 -35.320  1.00  0.00     0.169 HD
BRANCH  17  19
HETATM   19  C2  UNL     1     -12.025  47.112 -36.931  1.00  0.00     0.036 A 
HETATM   20  C3  UNL     1     -11.095  48.012 -37.470  1.00  0.00     0.032 A 
HETATM   21  C4  UNL     1     -11.510  49.045 -38.311  1.00  0.00     0.040 A 
HETATM   22  C5  UNL     1     -12.857  49.183 -38.612  1.00  0.00     0.087 A 
HETATM   23  C6  UNL     1     -13.793  48.293 -38.084  1.00  0.00     0.069 A 
HETATM   24 CL1  UNL     1     -15.473  48.487 -38.434  1.00  0.00    -0.081 Cl
HETATM   25  C7  UNL     1     -13.380  47.257 -37.245  1.00  0.00     0.056 A 
BRANCH  22  26
HETATM   26  O2  UNL     1     -13.216  50.224 -39.422  1.00  0.00    -0.359 OA
HETATM   27  H4  UNL     1     -14.189  50.206 -39.496  1.00  0.00     0.217 HD
ENDBRANCH  22  26
ENDBRANCH  17  19
ENDBRANCH  13  15
ENDBRANCH   9  10
ENDBRANCH   1   9
BRANCH   6  28
HETATM   28  C15 UNL     1      -4.359  48.582 -27.685  1.00  0.00     0.030 A 
HETATM   29  C16 UNL     1      -3.784  49.729 -28.253  1.00  0.00     0.030 A 
HETATM   30  C17 UNL     1      -2.814  50.494 -27.583  1.00  0.00     0.014 A 
HETATM   31  C18 UNL     1      -2.380  50.156 -26.296  1.00  0.00    -0.023 A 
HETATM   32  C25 UNL     1      -2.972  49.030 -25.707  1.00  0.00     0.014 A 
HETATM   33  C26 UNL     1      -3.937  48.267 -26.384  1.00  0.00     0.030 A 
BRANCH  31  34
HETATM   34  C19 UNL     1      -1.344  50.938 -25.593  1.00  0.00     0.013 A 
HETATM   35  C20 UNL     1      -1.589  51.475 -24.315  1.00  0.00     0.015 A 
HETATM   36  C21 UNL     1      -0.614  52.215 -23.634  1.00  0.00     0.001 A 
HETATM   37  C22 UNL     1       0.633  52.430 -24.215  1.00  0.00     0.003 A 
HETATM   38  C23 UNL     1       0.901  51.907 -25.478  1.00  0.00     0.043 A 
HETATM   39  C24 UNL     1      -0.076  51.174 -26.152  1.00  0.00     0.127 A 
HETATM   40  F1  UNL     1       0.229  50.699 -27.370  1.00  0.00    -0.205 F 
ENDBRANCH  31  34
ENDBRANCH   6  28
TORSDOF 7
ENDMDL
MODEL 5
REMARK minimizedAffinity -8.84390831
REMARK CNNscore 0.266219646
REMARK CNNaffinity 5.86191034
REMARK  7 active torsions:
REMARK  status: ('A' for Active; 'I' for Inactive)
REMARK       I    between atoms: C1_2  and  N1_3 
REMARK    1  A    between atoms: C1_2  and  C8_12 
REMARK    2  A    between atoms: N1_3  and  C2_4 
REMARK    3  A    between atoms: C5_7  and  O2_8 
REMARK    4  A    between atoms: N2_15  and  C11_16 
REMARK    5  A    between atoms: C11_16  and  C12_17 
REMARK       I    between atoms: C12_17  and  N3_19 
REMARK    6  A    between atoms: N4_22  and  C15_23 
REMARK    7  A    between atoms: C18_26  and  C19_27 
ROOT
HETATM    1  C12 UNL     1      -7.557  46.524 -30.926  1.00  0.00     0.248 C 
HETATM    2  O3  UNL     1      -6.848  46.117 -31.849  1.00  0.00    -0.271 OA
HETATM    3  N3  UNL     1      -6.987  47.154 -29.824  1.00  0.00    -0.348 N 
HETATM    4  C13 UNL     1      -7.701  47.554 -28.604  1.00  0.00     0.145 C 
HETATM    5  C14 UNL     1      -6.835  47.383 -27.340  1.00  0.00     0.143 C 
HETATM    6  N4  UNL     1      -5.586  48.153 -27.437  1.00  0.00    -0.378 N 
HETATM    7  C27 UNL     1      -5.044  48.385 -28.792  1.00  0.00     0.143 C 
HETATM    8  C28 UNL     1      -5.532  47.326 -29.799  1.00  0.00     0.145 C 
ENDROOT
BRANCH   1   9
HETATM    9  C11 UNL     1      -9.092  46.365 -30.908  1.00  0.00     0.374 C 
BRANCH   9  10
HETATM   10  N2  UNL     1      -9.697  45.608 -32.020  1.00  0.00     0.098 N 
HETATM   11  C10 UNL     1     -10.628  44.555 -31.615  1.00  0.00     0.274 C 
HETATM   12  C9  UNL     1     -10.774  43.683 -32.863  1.00  0.00     0.046 C 
HETATM   13  C8  UNL     1      -9.652  44.122 -33.807  1.00  0.00     0.108 C 
HETATM   14  C29 UNL     1      -8.739  44.986 -32.941  1.00  0.00     0.287 C 
BRANCH  13  15
HETATM   15  C1  UNL     1     -10.201  44.896 -35.012  1.00  0.00     0.228 C 
HETATM   16  O1  UNL     1     -11.412  44.985 -35.194  1.00  0.00    -0.273 OA
HETATM   17  N1  UNL     1      -9.211  45.467 -35.793  1.00  0.00    -0.327 N 
HETATM   18  H1  UNL     1      -8.261  45.210 -35.527  1.00  0.00     0.169 HD
BRANCH  17  19
HETATM   19  C2  UNL     1      -9.348  46.307 -36.911  1.00  0.00     0.036 A 
HETATM   20  C3  UNL     1      -8.433  47.362 -37.022  1.00  0.00     0.032 A 
HETATM   21  C4  UNL     1      -8.509  48.261 -38.085  1.00  0.00     0.040 A 
HETATM   22  C5  UNL     1      -9.505  48.110 -39.040  1.00  0.00     0.087 A 
HETATM   23  C6  UNL     1     -10.421  47.062 -38.942  1.00  0.00     0.069 A 
HETATM   24 CL1  UNL     1     -11.680  46.895 -40.113  1.00  0.00    -0.081 Cl
HETATM   25  C7  UNL     1     -10.344  46.159 -37.881  1.00  0.00     0.056 A 
BRANCH  22  26
HETATM   26  O2  UNL     1      -9.552  49.029 -40.050  1.00  0.00    -0.359 OA
HETATM   27  H4  UNL     1     -10.327  48.809 -40.601  1.00  0.00     0.217 HD
ENDBRANCH  22  26
ENDBRANCH  17  19
ENDBRANCH  13  15
ENDBRANCH   9  10
ENDBRANCH   1   9
BRANCH   6  28
HETATM   28  C15 UNL     1      -4.763  48.320 -26.329  1.00  0.00     0.030 A 
HETATM   29  C16 UNL     1      -5.274  48.295 -25.023  1.00  0.00     0.030 A 
HETATM   30  C17 UNL     1      -4.459  48.484 -23.893  1.00  0.00     0.014 A 
HETATM   31  C18 UNL     1      -3.080  48.692 -24.016  1.00  0.00    -0.023 A 
HETATM   32  C25 UNL     1      -2.556  48.687 -25.315  1.00  0.00     0.014 A 
HETATM   33  C26 UNL     1      -3.376  48.503 -26.440  1.00  0.00     0.030 A 
BRANCH  31  34
HETATM   34  C19 UNL     1      -2.220  48.916 -22.838  1.00  0.00     0.013 A 
HETATM   35  C20 UNL     1      -1.615  50.168 -22.614  1.00  0.00     0.015 A 
HETATM   36  C21 UNL     1      -0.801  50.398 -21.498  1.00  0.00     0.001 A 
HETATM   37  C22 UNL     1      -0.575  49.378 -20.577  1.00  0.00     0.003 A 
HETATM   38  C23 UNL     1      -1.162  48.131 -20.775  1.00  0.00     0.043 A 
HETATM   39  C24 UNL     1      -1.970  47.909 -21.890  1.00  0.00     0.127 A 
HETATM   40  F1  UNL     1      -2.506  46.687 -22.040  1.00  0.00    -0.205 F 
ENDBRANCH  31  34
ENDBRANCH   6  28
TORSDOF 7
ENDMDL
MODEL 6
REMARK minimizedAffinity -8.37572575
REMARK CNNscore 0.265508473
REMARK CNNaffinity 5.58404207
REMARK  7 active torsions:
REMARK  status: ('A' for Active; 'I' for Inactive)
REMARK       I    between atoms: C1_2  and  N1_3 
REMARK    1  A    between atoms: C1_2  and  C8_12 
REMARK    2  A    between atoms: N1_3  and  C2_4 
REMARK    3  A    between atoms: C5_7  and  O2_8 
REMARK    4  A    between atoms: N2_15  and  C11_16 
REMARK    5  A    between atoms: C11_16  and  C12_17 
REMARK       I    between atoms: C12_17  and  N3_19 
REMARK    6  A    between atoms: N4_22  and  C15_23 
REMARK    7  A    between atoms: C18_26  and  C19_27 
ROOT
HETATM    1  C12 UNL     1      -9.771  47.456 -26.033  1.00  0.00     0.248 C 
HETATM    2  O3  UNL     1     -10.772  48.072 -25.659  1.00  0.00    -0.271 OA
HETATM    3  N3  UNL     1      -8.534  47.695 -25.442  1.00  0.00    -0.348 N 
HETATM    4  C13 UNL     1      -7.251  47.136 -25.888  1.00  0.00     0.145 C 
HETATM    5  C14 UNL     1      -6.089  48.135 -25.713  1.00  0.00     0.143 C 
HETATM    6  N4  UNL     1      -5.960  48.570 -24.315  1.00  0.00    -0.378 N 
HETATM    7  C27 UNL     1      -7.191  48.575 -23.498  1.00  0.00     0.143 C 
HETATM    8  C28 UNL     1      -8.460  48.686 -24.364  1.00  0.00     0.145 C 
ENDROOT
BRANCH   1   9
HETATM    9  C11 UNL     1      -9.800  46.406 -27.163  1.00  0.00     0.374 C 
BRANCH   9  10
HETATM   10  N2  UNL     1     -11.028  45.600 -27.294  1.00  0.00     0.098 N 
HETATM   11  C10 UNL     1     -11.005  44.320 -26.585  1.00  0.00     0.274 C 
HETATM   12  C9  UNL     1     -12.159  43.529 -27.203  1.00  0.00     0.046 C 
HETATM   13  C8  UNL     1     -12.562  44.301 -28.462  1.00  0.00     0.108 C 
HETATM   14  C29 UNL     1     -11.433  45.306 -28.673  1.00  0.00     0.287 C 
BRANCH  13  15
HETATM   15  C1  UNL     1     -13.920  44.994 -28.285  1.00  0.00     0.228 C 
HETATM   16  O1  UNL     1     -14.194  45.999 -28.936  1.00  0.00    -0.273 OA
HETATM   17  N1  UNL     1     -14.746  44.356 -27.377  1.00  0.00    -0.327 N 
HETATM   18  H1  UNL     1     -14.308  43.584 -26.876  1.00  0.00     0.169 HD
BRANCH  17  19
HETATM   19  C2  UNL     1     -16.075  44.657 -27.036  1.00  0.00     0.036 A 
HETATM   20  C3  UNL     1     -16.265  45.520 -25.947  1.00  0.00     0.032 A 
HETATM   21  C4  UNL     1     -17.550  45.854 -25.520  1.00  0.00     0.040 A 
HETATM   22  C5  UNL     1     -18.650  45.323 -26.179  1.00  0.00     0.087 A 
HETATM   23  C6  UNL     1     -18.475  44.465 -27.265  1.00  0.00     0.069 A 
HETATM   24 CL1  UNL     1     -19.845  43.779 -28.062  1.00  0.00    -0.081 Cl
HETATM   25  C7  UNL     1     -17.190  44.132 -27.696  1.00  0.00     0.056 A 
BRANCH  22  26
HETATM   26  O2  UNL     1     -19.888  45.663 -25.710  1.00  0.00    -0.359 OA
HETATM   27  H4  UNL     1     -20.541  45.176 -26.246  1.00  0.00     0.217 HD
ENDBRANCH  22  26
ENDBRANCH  17  19
ENDBRANCH  13  15
ENDBRANCH   9  10
ENDBRANCH   1   9
BRANCH   6  28
HETATM   28  C15 UNL     1      -4.851  49.293 -23.891  1.00  0.00     0.030 A 
HETATM   29  C16 UNL     1      -4.857  50.696 -23.857  1.00  0.00     0.030 A 
HETATM   30  C17 UNL     1      -3.737  51.442 -23.451  1.00  0.00     0.014 A 
HETATM   31  C18 UNL     1      -2.553  50.816 -23.043  1.00  0.00    -0.023 A 
HETATM   32  C25 UNL     1      -2.548  49.415 -23.044  1.00  0.00     0.014 A 
HETATM   33  C26 UNL     1      -3.669  48.675 -23.455  1.00  0.00     0.030 A 
BRANCH  31  34
HETATM   34  C19 UNL     1      -1.363  51.591 -22.640  1.00  0.00     0.013 A 
HETATM   35  C20 UNL     1      -0.473  52.101 -23.605  1.00  0.00     0.015 A 
HETATM   36  C21 UNL     1       0.657  52.842 -23.238  1.00  0.00     0.001 A 
HETATM   37  C22 UNL     1       0.921  53.094 -21.894  1.00  0.00     0.003 A 
HETATM   38  C23 UNL     1       0.056  52.602 -20.920  1.00  0.00     0.043 A 
HETATM   39  C24 UNL     1      -1.067  51.862 -21.293  1.00  0.00     0.127 A 
HETATM   40  F1  UNL     1      -1.866  51.403 -20.316  1.00  0.00    -0.205 F 
ENDBRANCH  31  34
ENDBRANCH   6  28
TORSDOF 7
ENDMDL
MODEL 7
REMARK minimizedAffinity -9.87810516
REMARK CNNscore 0.259573966
REMARK CNNaffinity 6.51826859
REMARK  7 active torsions:
REMARK  status: ('A' for Active; 'I' for Inactive)
REMARK       I    between atoms: C1_2  and  N1_3 
REMARK    1  A    between atoms: C1_2  and  C8_12 
REMARK    2  A    between atoms: N1_3  and  C2_4 
REMARK    3  A    between atoms: C5_7  and  O2_8 
REMARK    4  A    between atoms: N2_15  and  C11_16 
REMARK    5  A    between atoms: C11_16  and  C12_17 
REMARK       I    between atoms: C12_17  and  N3_19 
REMARK    6  A    between atoms: N4_22  and  C15_23 
REMARK    7  A    between atoms: C18_26  and  C19_27 
ROOT
HETATM    1  C12 UNL     1      -5.815  48.060 -28.782  1.00  0.00     0.248 C 
HETATM    2  O3  UNL     1      -6.731  47.409 -28.275  1.00  0.00    -0.271 OA
HETATM    3  N3  UNL     1      -4.755  48.512 -28.002  1.00  0.00    -0.348 N 
HETATM    4  C13 UNL     1      -3.683  49.409 -28.454  1.00  0.00     0.145 C 
HETATM    5  C14 UNL     1      -3.236  50.384 -27.346  1.00  0.00     0.143 C 
HETATM    6  N4  UNL     1      -2.782  49.664 -26.148  1.00  0.00    -0.378 N 
HETATM    7  C27 UNL     1      -3.382  48.337 -25.896  1.00  0.00     0.143 C 
HETATM    8  C28 UNL     1      -4.756  48.185 -26.574  1.00  0.00     0.145 C 
ENDROOT
BRANCH   1   9
HETATM    9  C11 UNL     1      -5.771  48.429 -30.280  1.00  0.00     0.374 C 
BRANCH   9  10
HETATM   10  N2  UNL     1      -5.968  47.330 -31.243  1.00  0.00     0.098 N 
HETATM   11  C10 UNL     1      -6.891  47.627 -32.339  1.00  0.00     0.274 C 
HETATM   12  C9  UNL     1      -7.237  46.255 -32.920  1.00  0.00     0.046 C 
HETATM   13  C8  UNL     1      -6.732  45.234 -31.897  1.00  0.00     0.108 C 
HETATM   14  C29 UNL     1      -6.413  46.061 -30.655  1.00  0.00     0.287 C 
BRANCH  13  15
HETATM   15  C1  UNL     1      -5.501  44.480 -32.416  1.00  0.00     0.228 C 
HETATM   16  O1  UNL     1      -4.371  44.880 -32.152  1.00  0.00    -0.273 OA
HETATM   17  N1  UNL     1      -5.820  43.348 -33.145  1.00  0.00    -0.327 N 
HETATM   18  H1  UNL     1      -6.815  43.227 -33.327  1.00  0.00     0.169 HD
BRANCH  17  19
HETATM   19  C2  UNL     1      -4.957  42.382 -33.691  1.00  0.00     0.036 A 
HETATM   20  C3  UNL     1      -5.290  41.885 -34.958  1.00  0.00     0.032 A 
HETATM   21  C4  UNL     1      -4.506  40.905 -35.567  1.00  0.00     0.040 A 
HETATM   22  C5  UNL     1      -3.387  40.417 -34.907  1.00  0.00     0.087 A 
HETATM   23  C6  UNL     1      -3.043  40.905 -33.646  1.00  0.00     0.069 A 
HETATM   24 CL1  UNL     1      -1.669  40.272 -32.813  1.00  0.00    -0.081 Cl
HETATM   25  C7  UNL     1      -3.825  41.887 -33.037  1.00  0.00     0.056 A 
BRANCH  22  26
HETATM   26  O2  UNL     1      -2.663  39.442 -35.535  1.00  0.00    -0.359 OA
HETATM   27  H4  UNL     1      -1.947  39.180 -34.925  1.00  0.00     0.217 HD
ENDBRANCH  22  26
ENDBRANCH  17  19
ENDBRANCH  13  15
ENDBRANCH   9  10
ENDBRANCH   1   9
BRANCH   6  28
HETATM   28  C15 UNL     1      -2.132  50.332 -25.116  1.00  0.00     0.030 A 
HETATM   29  C16 UNL     1      -2.098  49.815 -23.812  1.00  0.00     0.030 A 
HETATM   30  C17 UNL     1      -1.463  50.488 -22.754  1.00  0.00     0.014 A 
HETATM   31  C18 UNL     1      -0.815  51.713 -22.953  1.00  0.00    -0.023 A 
HETATM   32  C25 UNL     1      -0.818  52.222 -24.258  1.00  0.00     0.014 A 
HETATM   33  C26 UNL     1      -1.458  51.546 -25.311  1.00  0.00     0.030 A 
BRANCH  31  34
HETATM   34  C19 UNL     1      -0.168  52.440 -21.844  1.00  0.00     0.013 A 
HETATM   35  C20 UNL     1      -0.596  52.258 -20.515  1.00  0.00     0.015 A 
HETATM   36  C21 UNL     1       0.011  52.936 -19.451  1.00  0.00     0.001 A 
HETATM   37  C22 UNL     1       1.067  53.812 -19.693  1.00  0.00     0.003 A 
HETATM   38  C23 UNL     1       1.510  54.009 -20.998  1.00  0.00     0.043 A 
HETATM   39  C24 UNL     1       0.898  53.332 -22.054  1.00  0.00     0.127 A 
HETATM   40  F1  UNL     1       1.358  53.562 -23.294  1.00  0.00    -0.205 F 
ENDBRANCH  31  34
ENDBRANCH   6  28
TORSDOF 7
ENDMDL
MODEL 8
REMARK minimizedAffinity -8.37539768
REMARK CNNscore 0.254557222
REMARK CNNaffinity 6.44035006
REMARK  7 active torsions:
REMARK  status: ('A' for Active; 'I' for Inactive)
REMARK       I    between atoms: C1_2  and  N1_3 
REMARK    1  A    between atoms: C1_2  and  C8_12 
REMARK    2  A    between atoms: N1_3  and  C2_4 
REMARK    3  A    between atoms: C5_7  and  O2_8 
REMARK    4  A    between atoms: N2_15  and  C11_16 
REMARK    5  A    between atoms: C11_16  and  C12_17 
REMARK       I    between atoms: C12_17  and  N3_19 
REMARK    6  A    between atoms: N4_22  and  C15_23 
REMARK    7  A    between atoms: C18_26  and  C19_27 
ROOT
HETATM    1  C12 UNL     1       1.929  50.357 -13.760  1.00  0.00     0.248 C 
HETATM    2  O3  UNL     1       1.638  49.191 -13.483  1.00  0.00    -0.271 OA
HETATM    3  N3  UNL     1       1.475  50.935 -14.942  1.00  0.00    -0.348 N 
HETATM    4  C13 UNL     1       1.864  52.256 -15.453  1.00  0.00     0.145 C 
HETATM    5  C14 UNL     1       1.975  52.276 -16.990  1.00  0.00     0.143 C 
HETATM    6  N4  UNL     1       0.711  51.873 -17.625  1.00  0.00    -0.378 N 
HETATM    7  C27 UNL     1      -0.156  50.948 -16.865  1.00  0.00     0.143 C 
HETATM    8  C28 UNL     1       0.640  50.125 -15.834  1.00  0.00     0.145 C 
ENDROOT
BRANCH   1   9
HETATM    9  C11 UNL     1       2.805  51.247 -12.854  1.00  0.00     0.374 C 
BRANCH   9  10
HETATM   10  N2  UNL     1       2.196  51.724 -11.599  1.00  0.00     0.098 N 
HETATM   11  C10 UNL     1       1.092  50.905 -11.097  1.00  0.00     0.274 C 
HETATM   12  C9  UNL     1       0.390  51.805 -10.079  1.00  0.00     0.046 C 
HETATM   13  C8  UNL     1       0.957  53.208 -10.308  1.00  0.00     0.108 C 
HETATM   14  C29 UNL     1       1.707  53.107 -11.633  1.00  0.00     0.287 C 
BRANCH  13  15
HETATM   15  C1  UNL     1       1.878  53.637  -9.159  1.00  0.00     0.228 C 
HETATM   16  O1  UNL     1       1.473  53.623  -7.999  1.00  0.00    -0.273 OA
HETATM   17  N1  UNL     1       3.149  53.988  -9.578  1.00  0.00    -0.327 N 
HETATM   18  H1  UNL     1       3.268  54.017 -10.590  1.00  0.00     0.169 HD
BRANCH  17  19
HETATM   19  C2  UNL     1       4.264  54.344  -8.801  1.00  0.00     0.036 A 
HETATM   20  C3  UNL     1       5.258  55.103  -9.436  1.00  0.00     0.032 A 
HETATM   21  C4  UNL     1       6.412  55.480  -8.750  1.00  0.00     0.040 A 
HETATM   22  C5  UNL     1       6.578  55.096  -7.427  1.00  0.00     0.087 A 
HETATM   23  C6  UNL     1       5.595  54.343  -6.783  1.00  0.00     0.069 A 
HETATM   24 CL1  UNL     1       5.819  53.837  -5.146  1.00  0.00    -0.081 Cl
HETATM   25  C7  UNL     1       4.438  53.967  -7.467  1.00  0.00     0.056 A 
BRANCH  22  26
HETATM   26  O2  UNL     1       7.736  55.471  -6.804  1.00  0.00    -0.359 OA
HETATM   27  H4  UNL     1       7.715  55.087  -5.908  1.00  0.00     0.217 HD
ENDBRANCH  22  26
ENDBRANCH  17  19
ENDBRANCH  13  15
ENDBRANCH   9  10
ENDBRANCH   1   9
BRANCH   6  28
HETATM   28  C15 UNL     1       0.516  52.030 -18.992  1.00  0.00     0.030 A 
HETATM   29  C16 UNL     1      -0.288  51.146 -19.727  1.00  0.00     0.030 A 
HETATM   30  C17 UNL     1      -0.478  51.279 -21.113  1.00  0.00     0.014 A 
HETATM   31  C18 UNL     1       0.120  52.320 -21.834  1.00  0.00    -0.023 A 
HETATM   32  C25 UNL     1       0.899  53.226 -21.104  1.00  0.00     0.014 A 
HETATM   33  C26 UNL     1       1.089  53.085 -19.719  1.00  0.00     0.030 A 
BRANCH  31  34
HETATM   34  C19 UNL     1      -0.053  52.454 -23.294  1.00  0.00     0.013 A 
HETATM   35  C20 UNL     1      -0.782  51.496 -24.026  1.00  0.00     0.015 A 
HETATM   36  C21 UNL     1      -0.959  51.612 -25.409  1.00  0.00     0.001 A 
HETATM   37  C22 UNL     1      -0.413  52.694 -26.095  1.00  0.00     0.003 A 
HETATM   38  C23 UNL     1       0.311  53.656 -25.395  1.00  0.00     0.043 A 
HETATM   39  C24 UNL     1       0.486  53.533 -24.016  1.00  0.00     0.127 A 
HETATM   40  F1  UNL     1       1.198  54.482 -23.389  1.00  0.00    -0.205 F 
ENDBRANCH  31  34
ENDBRANCH   6  28
TORSDOF 7
ENDMDL
MODEL 9
REMARK minimizedAffinity -8.8168726
REMARK CNNscore 0.200698167
REMARK CNNaffinity 5.25071955
REMARK  7 active torsions:
REMARK  status: ('A' for Active; 'I' for Inactive)
REMARK       I    between atoms: C1_2  and  N1_3 
REMARK    1  A    between atoms: C1_2  and  C8_12 
REMARK    2  A    between atoms: N1_3  and  C2_4 
REMARK    3  A    between atoms: C5_7  and  O2_8 
REMARK    4  A    between atoms: N2_15  and  C11_16 
REMARK    5  A    between atoms: C11_16  and  C12_17 
REMARK       I    between atoms: C12_17  and  N3_19 
REMARK    6  A    between atoms: N4_22  and  C15_23 
REMARK    7  A    between atoms: C18_26  and  C19_27 
ROOT
HETATM    1  C12 UNL     1      -7.683  45.939 -32.529  1.00  0.00     0.248 C 
HETATM    2  O3  UNL     1      -7.113  46.323 -33.553  1.00  0.00    -0.271 OA
HETATM    3  N3  UNL     1      -7.364  46.496 -31.294  1.00  0.00    -0.348 N 
HETATM    4  C13 UNL     1      -7.864  46.032 -29.992  1.00  0.00     0.145 C 
HETATM    5  C14 UNL     1      -6.801  46.157 -28.883  1.00  0.00     0.143 C 
HETATM    6  N4  UNL     1      -6.328  47.542 -28.746  1.00  0.00    -0.378 N 
HETATM    7  C27 UNL     1      -6.369  48.387 -29.957  1.00  0.00     0.143 C 
HETATM    8  C28 UNL     1      -6.346  47.549 -31.249  1.00  0.00     0.145 C 
ENDROOT
BRANCH   1   9
HETATM    9  C11 UNL     1      -8.759  44.834 -32.526  1.00  0.00     0.374 C 
BRANCH   9  10
HETATM   10  N2  UNL     1      -9.737  44.852 -33.630  1.00  0.00     0.098 N 
HETATM   11  C10 UNL     1     -11.056  44.314 -33.296  1.00  0.00     0.274 C 
HETATM   12  C9  UNL     1     -11.712  44.059 -34.654  1.00  0.00     0.046 C 
HETATM   13  C8  UNL     1     -10.585  44.169 -35.684  1.00  0.00     0.108 C 
HETATM   14  C29 UNL     1      -9.305  44.166 -34.853  1.00  0.00     0.287 C 
BRANCH  13  15
HETATM   15  C1  UNL     1     -10.717  45.442 -36.529  1.00  0.00     0.228 C 
HETATM   16  O1  UNL     1      -9.765  46.207 -36.653  1.00  0.00    -0.273 OA
HETATM   17  N1  UNL     1     -11.962  45.582 -37.117  1.00  0.00    -0.327 N 
HETATM   18  H1  UNL     1     -12.648  44.885 -36.828  1.00  0.00     0.169 HD
BRANCH  17  19
HETATM   19  C2  UNL     1     -12.405  46.568 -38.015  1.00  0.00     0.036 A 
HETATM   20  C3  UNL     1     -12.865  47.768 -37.454  1.00  0.00     0.032 A 
HETATM   21  C4  UNL     1     -13.347  48.794 -38.267  1.00  0.00     0.040 A 
HETATM   22  C5  UNL     1     -13.375  48.621 -39.644  1.00  0.00     0.087 A 
HETATM   23  C6  UNL     1     -12.917  47.432 -40.214  1.00  0.00     0.069 A 
HETATM   24 CL1  UNL     1     -12.983  47.206 -41.925  1.00  0.00    -0.081 Cl
HETATM   25  C7  UNL     1     -12.432  46.406 -39.403  1.00  0.00     0.056 A 
BRANCH  22  26
HETATM   26  O2  UNL     1     -13.877  49.646 -40.396  1.00  0.00    -0.359 OA
HETATM   27  H4  UNL     1     -13.868  49.349 -41.325  1.00  0.00     0.217 HD
ENDBRANCH  22  26
ENDBRANCH  17  19
ENDBRANCH  13  15
ENDBRANCH   9  10
ENDBRANCH   1   9
BRANCH   6  28
HETATM   28  C15 UNL     1      -5.537  47.923 -27.668  1.00  0.00     0.030 A 
HETATM   29  C16 UNL     1      -4.228  48.395 -27.847  1.00  0.00     0.030 A 
HETATM   30  C17 UNL     1      -3.408  48.764 -26.767  1.00  0.00     0.014 A 
HETATM   31  C18 UNL     1      -3.867  48.693 -25.446  1.00  0.00    -0.023 A 
HETATM   32  C25 UNL     1      -5.183  48.253 -25.259  1.00  0.00     0.014 A 
HETATM   33  C26 UNL     1      -5.996  47.880 -26.343  1.00  0.00     0.030 A 
BRANCH  31  34
HETATM   34  C19 UNL     1      -3.005  49.054 -24.303  1.00  0.00     0.013 A 
HETATM   35  C20 UNL     1      -2.950  48.239 -23.156  1.00  0.00     0.015 A 
HETATM   36  C21 UNL     1      -2.134  48.566 -22.066  1.00  0.00     0.001 A 
HETATM   37  C22 UNL     1      -1.349  49.716 -22.100  1.00  0.00     0.003 A 
HETATM   38  C23 UNL     1      -1.385  50.538 -23.224  1.00  0.00     0.043 A 
HETATM   39  C24 UNL     1      -2.203  50.208 -24.305  1.00  0.00     0.127 A 
HETATM   40  F1  UNL     1      -2.208  51.038 -25.361  1.00  0.00    -0.205 F 
ENDBRANCH  31  34
ENDBRANCH   6  28
TORSDOF 7
ENDMDL
