MODEL 1
REMARK minimizedAffinity -9.49217701
REMARK CNNscore 0.481847435
REMARK CNNaffinity 6.74269629
REMARK  7 active torsions:
REMARK  status: ('A' for Active; 'I' for Inactive)
REMARK       I    between atoms: C1_2  and  N1_3 
REMARK    1  A    between atoms: C1_2  and  C8_12 
REMARK    2  A    between atoms: N1_3  and  C2_4 
REMARK    3  A    between atoms: C5_7  and  O2_8 
REMARK    4  A    between atoms: N2_15  and  C11_16 
REMARK    5  A    between atoms: C11_16  and  C12_17 
REMARK       I    between atoms: C12_17  and  N3_19 
REMARK    6  A    between atoms: N4_22  and  C15_23 
REMARK    7  A    between atoms: C18_26  and  C19_27 
ROOT
HETATM    1  C12 UNL     1      -5.083  47.984 -28.268  1.00  0.00     0.248 C 
HETATM    2  O3  UNL     1      -4.474  47.843 -29.335  1.00  0.00    -0.271 OA
HETATM    3  N3  UNL     1      -6.479  47.850 -28.222  1.00  0.00    -0.348 N 
HETATM    4  C13 UNL     1      -7.082  47.175 -29.381  1.00  0.00     0.145 C 
HETATM    5  C14 UNL     1      -8.604  47.345 -29.497  1.00  0.00     0.143 C 
HETATM    6  N4  UNL     1      -9.258  47.046 -28.210  1.00  0.00    -0.378 N 
HETATM    7  C27 UNL     1      -8.752  47.905 -27.118  1.00  0.00     0.143 C 
HETATM    8  C28 UNL     1      -7.229  47.727 -26.962  1.00  0.00     0.145 C 
ENDROOT
BRANCH   1   9
HETATM    9  C11 UNL     1      -4.367  48.341 -26.943  1.00  0.00     0.374 C 
BRANCH   9  10
HETATM   10  N2  UNL     1      -3.110  49.078 -27.160  1.00  0.00     0.098 N 
HETATM   11  C10 UNL     1      -3.285  50.386 -27.797  1.00  0.00     0.274 C 
HETATM   12  C9  UNL     1      -1.920  51.031 -27.600  1.00  0.00     0.046 C 
HETATM   13  C8  UNL     1      -1.382  50.423 -26.301  1.00  0.00     0.108 C 
HETATM   14  C29 UNL     1      -2.396  49.350 -25.910  1.00  0.00     0.287 C 
BRANCH  13  15
HETATM   15  C1  UNL     1      -1.167  51.418 -25.167  1.00  0.00     0.228 C 
HETATM   16  O1  UNL     1      -1.150  52.622 -25.407  1.00  0.00    -0.273 OA
HETATM   17  N1  UNL     1      -0.958  50.837 -23.928  1.00  0.00    -0.327 N 
HETATM   18  H1  UNL     1      -1.057  49.833 -23.874  1.00  0.00     0.169 HD
BRANCH  17  19
HETATM   19  C2  UNL     1      -0.650  51.484 -22.713  1.00  0.00     0.036 A 
HETATM   20  C3  UNL     1      -1.267  51.192 -21.493  1.00  0.00     0.032 A 
HETATM   21  C4  UNL     1      -0.924  51.891 -20.333  1.00  0.00     0.040 A 
HETATM   22  C5  UNL     1       0.035  52.891 -20.391  1.00  0.00     0.087 A 
HETATM   23  C6  UNL     1       0.666  53.189 -21.598  1.00  0.00     0.069 A 
HETATM   24 CL1  UNL     1       1.865  54.425 -21.677  1.00  0.00    -0.081 Cl
HETATM   25  C7  UNL     1       0.328  52.488 -22.756  1.00  0.00     0.056 A 
BRANCH  22  26
HETATM   26  O2  UNL     1       0.322  53.557 -19.233  1.00  0.00    -0.359 OA
HETATM   27  H4  UNL     1       1.021  54.203 -19.436  1.00  0.00     0.217 HD
ENDBRANCH  22  26
ENDBRANCH  17  19
ENDBRANCH  13  15
ENDBRANCH   9  10
ENDBRANCH   1   9
BRANCH   6  28
HETATM   28  C15 UNL     1     -10.616  46.731 -28.193  1.00  0.00     0.030 A 
HETATM   29  C16 UNL     1     -11.510  47.485 -27.415  1.00  0.00     0.030 A 
HETATM   30  C17 UNL     1     -12.859  47.126 -27.274  1.00  0.00     0.014 A 
HETATM   31  C18 UNL     1     -13.376  45.985 -27.900  1.00  0.00    -0.026 A 
HETATM   32  C25 UNL     1     -12.500  45.253 -28.711  1.00  0.00     0.014 A 
HETATM   33  C26 UNL     1     -11.153  45.622 -28.855  1.00  0.00     0.030 A 
BRANCH  31  34
HETATM   34  C19 UNL     1     -14.761  45.532 -27.667  1.00  0.00    -0.026 A 
HETATM   35  C20 UNL     1     -15.459  44.773 -28.626  1.00  0.00     0.015 A 
HETATM   36  C21 UNL     1     -16.748  44.298 -28.369  1.00  0.00     0.043 A 
HETATM   37  C22 UNL     1     -17.356  44.587 -27.153  1.00  0.00     0.116 A 
HETATM   38  F1  UNL     1     -18.587  44.124 -26.906  1.00  0.00    -0.206 F 
HETATM   39  C23 UNL     1     -16.699  45.342 -26.190  1.00  0.00     0.043 A 
HETATM   40  C24 UNL     1     -15.408  45.808 -26.447  1.00  0.00     0.015 A 
ENDBRANCH  31  34
ENDBRANCH   6  28
TORSDOF 7
ENDMDL
MODEL 2
REMARK minimizedAffinity -8.32533741
REMARK CNNscore 0.432740539
REMARK CNNaffinity 6.61866522
REMARK  7 active torsions:
REMARK  status: ('A' for Active; 'I' for Inactive)
REMARK       I    between atoms: C1_2  and  N1_3 
REMARK    1  A    between atoms: C1_2  and  C8_12 
REMARK    2  A    between atoms: N1_3  and  C2_4 
REMARK    3  A    between atoms: C5_7  and  O2_8 
REMARK    4  A    between atoms: N2_15  and  C11_16 
REMARK    5  A    between atoms: C11_16  and  C12_17 
REMARK       I    between atoms: C12_17  and  N3_19 
REMARK    6  A    between atoms: N4_22  and  C15_23 
REMARK    7  A    between atoms: C18_26  and  C19_27 
ROOT
HETATM    1  C12 UNL     1      -7.037  48.071 -21.665  1.00  0.00     0.248 C 
HETATM    2  O3  UNL     1      -7.820  47.404 -20.977  1.00  0.00    -0.271 OA
HETATM    3  N3  UNL     1      -6.943  47.854 -23.048  1.00  0.00    -0.348 N 
HETATM    4  C13 UNL     1      -8.061  47.106 -23.642  1.00  0.00     0.145 C 
HETATM    5  C14 UNL     1      -7.791  46.570 -25.055  1.00  0.00     0.143 C 
HETATM    6  N4  UNL     1      -7.243  47.635 -25.917  1.00  0.00    -0.378 N 
HETATM    7  C27 UNL     1      -5.998  48.209 -25.365  1.00  0.00     0.143 C 
HETATM    8  C28 UNL     1      -6.254  48.783 -23.957  1.00  0.00     0.145 C 
ENDROOT
BRANCH   1   9
HETATM    9  C11 UNL     1      -6.104  49.145 -21.056  1.00  0.00     0.374 C 
BRANCH   9  10
HETATM   10  N2  UNL     1      -4.808  48.592 -20.627  1.00  0.00     0.098 N 
HETATM   11  C10 UNL     1      -4.192  47.684 -21.599  1.00  0.00     0.274 C 
HETATM   12  C9  UNL     1      -2.777  47.536 -21.057  1.00  0.00     0.046 C 
HETATM   13  C8  UNL     1      -2.489  48.862 -20.345  1.00  0.00     0.108 C 
HETATM   14  C29 UNL     1      -3.807  49.632 -20.382  1.00  0.00     0.287 C 
BRANCH  13  15
HETATM   15  C1  UNL     1      -1.354  49.681 -20.949  1.00  0.00     0.228 C 
HETATM   16  O1  UNL     1      -0.195  49.465 -20.605  1.00  0.00    -0.273 OA
HETATM   17  N1  UNL     1      -1.765  50.665 -21.832  1.00  0.00    -0.327 N 
HETATM   18  H1  UNL     1      -2.749  50.687 -22.062  1.00  0.00     0.169 HD
BRANCH  17  19
HETATM   19  C2  UNL     1      -0.968  51.630 -22.482  1.00  0.00     0.036 A 
HETATM   20  C3  UNL     1      -0.984  51.860 -23.860  1.00  0.00     0.032 A 
HETATM   21  C4  UNL     1      -0.148  52.820 -24.435  1.00  0.00     0.040 A 
HETATM   22  C5  UNL     1       0.714  53.551 -23.632  1.00  0.00     0.087 A 
HETATM   23  C6  UNL     1       0.737  53.340 -22.254  1.00  0.00     0.069 A 
HETATM   24 CL1  UNL     1       1.799  54.251 -21.246  1.00  0.00    -0.081 Cl
HETATM   25  C7  UNL     1      -0.101  52.385 -21.678  1.00  0.00     0.056 A 
BRANCH  22  26
HETATM   26  O2  UNL     1       1.524  54.465 -24.245  1.00  0.00    -0.359 OA
HETATM   27  H4  UNL     1       2.044  54.903 -23.548  1.00  0.00     0.217 HD
ENDBRANCH  22  26
ENDBRANCH  17  19
ENDBRANCH  13  15
ENDBRANCH   9  10
ENDBRANCH   1   9
BRANCH   6  28
HETATM   28  C15 UNL     1      -7.320  47.496 -27.302  1.00  0.00     0.030 A 
HETATM   29  C16 UNL     1      -6.177  47.156 -28.045  1.00  0.00     0.030 A 
HETATM   30  C17 UNL     1      -6.183  47.128 -29.448  1.00  0.00     0.014 A 
HETATM   31  C18 UNL     1      -7.337  47.450 -30.175  1.00  0.00    -0.026 A 
HETATM   32  C25 UNL     1      -8.490  47.749 -29.440  1.00  0.00     0.014 A 
HETATM   33  C26 UNL     1      -8.479  47.767 -28.036  1.00  0.00     0.030 A 
BRANCH  31  34
HETATM   34  C19 UNL     1      -7.325  47.538 -31.648  1.00  0.00    -0.026 A 
HETATM   35  C20 UNL     1      -6.119  47.589 -32.374  1.00  0.00     0.015 A 
HETATM   36  C21 UNL     1      -6.120  47.611 -33.771  1.00  0.00     0.043 A 
HETATM   37  C22 UNL     1      -7.328  47.591 -34.458  1.00  0.00     0.116 A 
HETATM   38  F1  UNL     1      -7.326  47.602 -35.795  1.00  0.00    -0.206 F 
HETATM   39  C23 UNL     1      -8.536  47.550 -33.772  1.00  0.00     0.043 A 
HETATM   40  C24 UNL     1      -8.531  47.521 -32.375  1.00  0.00     0.015 A 
ENDBRANCH  31  34
ENDBRANCH   6  28
TORSDOF 7
ENDMDL
MODEL 3
REMARK minimizedAffinity -8.69470215
REMARK CNNscore 0.368708044
REMARK CNNaffinity 6.83758307
REMARK  7 active torsions:
REMARK  status: ('A' for Active; 'I' for Inactive)
REMARK       I    between atoms: C1_2  and  N1_3 
REMARK    1  A    between atoms: C1_2  and  C8_12 
REMARK    2  A    between atoms: N1_3  and  C2_4 
REMARK    3  A    between atoms: C5_7  and  O2_8 
REMARK    4  A    between atoms: N2_15  and  C11_16 
REMARK    5  A    between atoms: C11_16  and  C12_17 
REMARK       I    between atoms: C12_17  and  N3_19 
REMARK    6  A    between atoms: N4_22  and  C15_23 
REMARK    7  A    between atoms: C18_26  and  C19_27 
ROOT
HETATM    1  C12 UNL     1       0.595  50.737 -14.505  1.00  0.00     0.248 C 
HETATM    2  O3  UNL     1       1.446  49.911 -14.854  1.00  0.00    -0.271 OA
HETATM    3  N3  UNL     1       0.823  51.571 -13.399  1.00  0.00    -0.348 N 
HETATM    4  C13 UNL     1       2.225  51.664 -12.964  1.00  0.00     0.145 C 
HETATM    5  C14 UNL     1       2.420  52.275 -11.570  1.00  0.00     0.143 C 
HETATM    6  N4  UNL     1       1.659  53.532 -11.444  1.00  0.00    -0.378 N 
HETATM    7  C27 UNL     1       0.215  53.333 -11.693  1.00  0.00     0.143 C 
HETATM    8  C28 UNL     1      -0.007  52.748 -13.102  1.00  0.00     0.145 C 
ENDROOT
BRANCH   1   9
HETATM    9  C11 UNL     1      -0.766  50.884 -15.227  1.00  0.00     0.374 C 
BRANCH   9  10
HETATM   10  N2  UNL     1      -0.772  50.251 -16.557  1.00  0.00     0.098 N 
HETATM   11  C10 UNL     1      -2.096  50.177 -17.181  1.00  0.00     0.274 C 
HETATM   12  C9  UNL     1      -1.762  49.797 -18.616  1.00  0.00     0.046 C 
HETATM   13  C8  UNL     1      -0.378  50.404 -18.871  1.00  0.00     0.108 C 
HETATM   14  C29 UNL     1       0.070  50.962 -17.521  1.00  0.00     0.287 C 
BRANCH  13  15
HETATM   15  C1  UNL     1      -0.337  51.478 -19.951  1.00  0.00     0.228 C 
HETATM   16  O1  UNL     1      -0.359  52.665 -19.635  1.00  0.00    -0.273 OA
HETATM   17  N1  UNL     1      -0.324  50.987 -21.246  1.00  0.00    -0.327 N 
HETATM   18  H1  UNL     1      -0.250  49.985 -21.351  1.00  0.00     0.169 HD
BRANCH  17  19
HETATM   19  C2  UNL     1      -0.371  51.722 -22.449  1.00  0.00     0.036 A 
HETATM   20  C3  UNL     1       0.692  52.486 -22.941  1.00  0.00     0.032 A 
HETATM   21  C4  UNL     1       0.562  53.206 -24.132  1.00  0.00     0.040 A 
HETATM   22  C5  UNL     1      -0.634  53.171 -24.830  1.00  0.00     0.087 A 
HETATM   23  C6  UNL     1      -1.701  52.407 -24.357  1.00  0.00     0.069 A 
HETATM   24 CL1  UNL     1      -3.190  52.351 -25.225  1.00  0.00    -0.081 Cl
HETATM   25  C7  UNL     1      -1.572  51.684 -23.172  1.00  0.00     0.056 A 
BRANCH  22  26
HETATM   26  O2  UNL     1      -0.715  53.906 -25.979  1.00  0.00    -0.359 OA
HETATM   27  H4  UNL     1      -1.601  53.758 -26.356  1.00  0.00     0.217 HD
ENDBRANCH  22  26
ENDBRANCH  17  19
ENDBRANCH  13  15
ENDBRANCH   9  10
ENDBRANCH   1   9
BRANCH   6  28
HETATM   28  C15 UNL     1       2.012  54.446 -10.453  1.00  0.00     0.030 A 
HETATM   29  C16 UNL     1       3.175  55.223 -10.585  1.00  0.00     0.030 A 
HETATM   30  C17 UNL     1       3.631  56.062  -9.557  1.00  0.00     0.014 A 
HETATM   31  C18 UNL     1       2.946  56.155  -8.339  1.00  0.00    -0.026 A 
HETATM   32  C25 UNL     1       1.764  55.415  -8.215  1.00  0.00     0.014 A 
HETATM   33  C26 UNL     1       1.309  54.584  -9.251  1.00  0.00     0.030 A 
BRANCH  31  34
HETATM   34  C19 UNL     1       3.477  56.942  -7.209  1.00  0.00    -0.026 A 
HETATM   35  C20 UNL     1       4.862  57.088  -6.999  1.00  0.00     0.015 A 
HETATM   36  C21 UNL     1       5.352  57.886  -5.962  1.00  0.00     0.043 A 
HETATM   37  C22 UNL     1       4.462  58.537  -5.116  1.00  0.00     0.116 A 
HETATM   38  F1  UNL     1       4.934  59.307  -4.130  1.00  0.00    -0.206 F 
HETATM   39  C23 UNL     1       3.090  58.405  -5.290  1.00  0.00     0.043 A 
HETATM   40  C24 UNL     1       2.603  57.614  -6.332  1.00  0.00     0.015 A 
ENDBRANCH  31  34
ENDBRANCH   6  28
TORSDOF 7
ENDMDL
MODEL 4
REMARK minimizedAffinity -9.61322689
REMARK CNNscore 0.357336342
REMARK CNNaffinity 5.95004654
REMARK  7 active torsions:
REMARK  status: ('A' for Active; 'I' for Inactive)
REMARK       I    between atoms: C1_2  and  N1_3 
REMARK    1  A    between atoms: C1_2  and  C8_12 
REMARK    2  A    between atoms: N1_3  and  C2_4 
REMARK    3  A    between atoms: C5_7  and  O2_8 
REMARK    4  A    between atoms: N2_15  and  C11_16 
REMARK    5  A    between atoms: C11_16  and  C12_17 
REMARK       I    between atoms: C12_17  and  N3_19 
REMARK    6  A    between atoms: N4_22  and  C15_23 
REMARK    7  A    between atoms: C18_26  and  C19_27 
ROOT
HETATM    1  C12 UNL     1      -6.450  47.089 -29.136  1.00  0.00     0.248 C 
HETATM    2  O3  UNL     1      -6.042  47.149 -30.302  1.00  0.00    -0.271 OA
HETATM    3  N3  UNL     1      -5.680  47.613 -28.085  1.00  0.00    -0.348 N 
HETATM    4  C13 UNL     1      -4.612  48.538 -28.491  1.00  0.00     0.145 C 
HETATM    5  C14 UNL     1      -3.568  48.824 -27.403  1.00  0.00     0.143 C 
HETATM    6  N4  UNL     1      -4.227  49.175 -26.132  1.00  0.00    -0.378 N 
HETATM    7  C27 UNL     1      -5.139  48.109 -25.667  1.00  0.00     0.143 C 
HETATM    8  C28 UNL     1      -6.217  47.827 -26.732  1.00  0.00     0.145 C 
ENDROOT
BRANCH   1   9
HETATM    9  C11 UNL     1      -7.793  46.419 -28.758  1.00  0.00     0.374 C 
BRANCH   9  10
HETATM   10  N2  UNL     1      -8.959  47.167 -29.260  1.00  0.00     0.098 N 
HETATM   11  C10 UNL     1      -9.831  46.393 -30.147  1.00  0.00     0.274 C 
HETATM   12  C9  UNL     1     -11.069  47.273 -30.239  1.00  0.00     0.046 C 
HETATM   13  C8  UNL     1     -11.122  48.017 -28.900  1.00  0.00     0.108 C 
HETATM   14  C29 UNL     1      -9.828  47.641 -28.181  1.00  0.00     0.287 C 
BRANCH  13  15
HETATM   15  C1  UNL     1     -12.341  47.707 -28.041  1.00  0.00     0.228 C 
HETATM   16  O1  UNL     1     -12.528  48.329 -26.998  1.00  0.00    -0.273 OA
HETATM   17  N1  UNL     1     -13.131  46.675 -28.518  1.00  0.00    -0.327 N 
HETATM   18  H1  UNL     1     -12.883  46.293 -29.421  1.00  0.00     0.169 HD
BRANCH  17  19
HETATM   19  C2  UNL     1     -14.267  46.104 -27.909  1.00  0.00     0.036 A 
HETATM   20  C3  UNL     1     -14.664  46.363 -26.593  1.00  0.00     0.032 A 
HETATM   21  C4  UNL     1     -15.791  45.741 -26.051  1.00  0.00     0.040 A 
HETATM   22  C5  UNL     1     -16.523  44.852 -26.821  1.00  0.00     0.087 A 
HETATM   23  C6  UNL     1     -16.146  44.588 -28.138  1.00  0.00     0.069 A 
HETATM   24 CL1  UNL     1     -17.056  43.489 -29.106  1.00  0.00    -0.081 Cl
HETATM   25  C7  UNL     1     -15.024  45.212 -28.682  1.00  0.00     0.056 A 
BRANCH  22  26
HETATM   26  O2  UNL     1     -17.607  44.257 -26.239  1.00  0.00    -0.359 OA
HETATM   27  H4  UNL     1     -18.019  43.685 -26.910  1.00  0.00     0.217 HD
ENDBRANCH  22  26
ENDBRANCH  17  19
ENDBRANCH  13  15
ENDBRANCH   9  10
ENDBRANCH   1   9
BRANCH   6  28
HETATM   28  C15 UNL     1      -3.505  49.863 -25.158  1.00  0.00     0.030 A 
HETATM   29  C16 UNL     1      -3.158  51.210 -25.351  1.00  0.00     0.030 A 
HETATM   30  C17 UNL     1      -2.328  51.901 -24.454  1.00  0.00     0.014 A 
HETATM   31  C18 UNL     1      -1.797  51.268 -23.322  1.00  0.00    -0.026 A 
HETATM   32  C25 UNL     1      -2.173  49.938 -23.102  1.00  0.00     0.014 A 
HETATM   33  C26 UNL     1      -3.010  49.255 -23.999  1.00  0.00     0.030 A 
BRANCH  31  34
HETATM   34  C19 UNL     1      -0.832  51.947 -22.436  1.00  0.00    -0.026 A 
HETATM   35  C20 UNL     1       0.186  52.772 -22.950  1.00  0.00     0.015 A 
HETATM   36  C21 UNL     1       1.056  53.457 -22.098  1.00  0.00     0.043 A 
HETATM   37  C22 UNL     1       0.923  53.317 -20.722  1.00  0.00     0.116 A 
HETATM   38  F1  UNL     1       1.751  53.981 -19.908  1.00  0.00    -0.206 F 
HETATM   39  C23 UNL     1      -0.065  52.503 -20.183  1.00  0.00     0.043 A 
HETATM   40  C24 UNL     1      -0.938  51.825 -21.037  1.00  0.00     0.015 A 
ENDBRANCH  31  34
ENDBRANCH   6  28
TORSDOF 7
ENDMDL
MODEL 5
REMARK minimizedAffinity -8.46922779
REMARK CNNscore 0.349610209
REMARK CNNaffinity 6.34166574
REMARK  7 active torsions:
REMARK  status: ('A' for Active; 'I' for Inactive)
REMARK       I    between atoms: C1_2  and  N1_3 
REMARK    1  A    between atoms: C1_2  and  C8_12 
REMARK    2  A    between atoms: N1_3  and  C2_4 
REMARK    3  A    between atoms: C5_7  and  O2_8 
REMARK    4  A    between atoms: N2_15  and  C11_16 
REMARK    5  A    between atoms: C11_16  and  C12_17 
REMARK       I    between atoms: C12_17  and  N3_19 
REMARK    6  A    between atoms: N4_22  and  C15_23 
REMARK    7  A    between atoms: C18_26  and  C19_27 
ROOT
HETATM    1  C12 UNL     1      -7.530  47.048 -24.516  1.00  0.00     0.248 C 
HETATM    2  O3  UNL     1      -7.791  46.221 -23.634  1.00  0.00    -0.271 OA
HETATM    3  N3  UNL     1      -7.863  46.790 -25.855  1.00  0.00    -0.348 N 
HETATM    4  C13 UNL     1      -8.844  45.714 -26.060  1.00  0.00     0.145 C 
HETATM    5  C14 UNL     1      -8.935  45.201 -27.504  1.00  0.00     0.143 C 
HETATM    6  N4  UNL     1      -9.061  46.329 -28.446  1.00  0.00    -0.378 N 
HETATM    7  C27 UNL     1      -7.931  47.275 -28.334  1.00  0.00     0.143 C 
HETATM    8  C28 UNL     1      -7.839  47.827 -26.897  1.00  0.00     0.145 C 
ENDROOT
BRANCH   1   9
HETATM    9  C11 UNL     1      -6.806  48.383 -24.216  1.00  0.00     0.374 C 
BRANCH   9  10
HETATM   10  N2  UNL     1      -5.349  48.216 -24.074  1.00  0.00     0.098 N 
HETATM   11  C10 UNL     1      -4.569  48.813 -25.161  1.00  0.00     0.274 C 
HETATM   12  C9  UNL     1      -3.152  48.779 -24.605  1.00  0.00     0.046 C 
HETATM   13  C8  UNL     1      -3.325  48.892 -23.086  1.00  0.00     0.108 C 
HETATM   14  C29 UNL     1      -4.831  48.826 -22.847  1.00  0.00     0.287 C 
BRANCH  13  15
HETATM   15  C1  UNL     1      -2.722  50.146 -22.464  1.00  0.00     0.228 C 
HETATM   16  O1  UNL     1      -3.443  50.932 -21.853  1.00  0.00    -0.273 OA
HETATM   17  N1  UNL     1      -1.367  50.307 -22.697  1.00  0.00    -0.327 N 
HETATM   18  H1  UNL     1      -0.894  49.549 -23.168  1.00  0.00     0.169 HD
BRANCH  17  19
HETATM   19  C2  UNL     1      -0.551  51.396 -22.328  1.00  0.00     0.036 A 
HETATM   20  C3  UNL     1       0.004  52.302 -23.236  1.00  0.00     0.032 A 
HETATM   21  C4  UNL     1       0.822  53.345 -22.796  1.00  0.00     0.040 A 
HETATM   22  C5  UNL     1       1.095  53.482 -21.445  1.00  0.00     0.087 A 
HETATM   23  C6  UNL     1       0.543  52.592 -20.523  1.00  0.00     0.069 A 
HETATM   24 CL1  UNL     1       0.870  52.760 -18.839  1.00  0.00    -0.081 Cl
HETATM   25  C7  UNL     1      -0.278  51.553 -20.961  1.00  0.00     0.056 A 
BRANCH  22  26
HETATM   26  O2  UNL     1       1.916  54.508 -21.067  1.00  0.00    -0.359 OA
HETATM   27  H4  UNL     1       1.988  54.479 -20.097  1.00  0.00     0.217 HD
ENDBRANCH  22  26
ENDBRANCH  17  19
ENDBRANCH  13  15
ENDBRANCH   9  10
ENDBRANCH   1   9
BRANCH   6  28
HETATM   28  C15 UNL     1      -9.569  46.095 -29.723  1.00  0.00     0.030 A 
HETATM   29  C16 UNL     1      -9.304  44.884 -30.382  1.00  0.00     0.030 A 
HETATM   30  C17 UNL     1      -9.691  44.659 -31.712  1.00  0.00     0.014 A 
HETATM   31  C18 UNL     1     -10.356  45.646 -32.451  1.00  0.00    -0.026 A 
HETATM   32  C25 UNL     1     -10.659  46.841 -31.788  1.00  0.00     0.014 A 
HETATM   33  C26 UNL     1     -10.277  47.056 -30.454  1.00  0.00     0.030 A 
BRANCH  31  34
HETATM   34  C19 UNL     1     -10.664  45.467 -33.883  1.00  0.00    -0.026 A 
HETATM   35  C20 UNL     1     -11.722  44.642 -34.311  1.00  0.00     0.015 A 
HETATM   36  C21 UNL     1     -12.043  44.528 -35.667  1.00  0.00     0.043 A 
HETATM   37  C22 UNL     1     -11.302  45.230 -36.609  1.00  0.00     0.116 A 
HETATM   38  F1  UNL     1     -11.617  45.127 -37.905  1.00  0.00    -0.206 F 
HETATM   39  C23 UNL     1     -10.245  46.045 -36.221  1.00  0.00     0.043 A 
HETATM   40  C24 UNL     1      -9.932  46.162 -34.865  1.00  0.00     0.015 A 
ENDBRANCH  31  34
ENDBRANCH   6  28
TORSDOF 7
ENDMDL
MODEL 6
REMARK minimizedAffinity -10.0712252
REMARK CNNscore 0.277274847
REMARK CNNaffinity 6.10267687
REMARK  7 active torsions:
REMARK  status: ('A' for Active; 'I' for Inactive)
REMARK       I    between atoms: C1_2  and  N1_3 
REMARK    1  A    between atoms: C1_2  and  C8_12 
REMARK    2  A    between atoms: N1_3  and  C2_4 
REMARK    3  A    between atoms: C5_7  and  O2_8 
REMARK    4  A    between atoms: N2_15  and  C11_16 
REMARK    5  A    between atoms: C11_16  and  C12_17 
REMARK       I    between atoms: C12_17  and  N3_19 
REMARK    6  A    between atoms: N4_22  and  C15_23 
REMARK    7  A    between atoms: C18_26  and  C19_27 
ROOT
HETATM    1  C12 UNL     1      -4.744  48.609 -29.188  1.00  0.00     0.248 C 
HETATM    2  O3  UNL     1      -4.475  49.295 -30.181  1.00  0.00    -0.271 OA
HETATM    3  N3  UNL     1      -4.118  48.862 -27.958  1.00  0.00    -0.348 N 
HETATM    4  C13 UNL     1      -3.464  50.174 -27.846  1.00  0.00     0.145 C 
HETATM    5  C14 UNL     1      -2.496  50.306 -26.661  1.00  0.00     0.143 C 
HETATM    6  N4  UNL     1      -3.133  49.833 -25.418  1.00  0.00    -0.378 N 
HETATM    7  C27 UNL     1      -3.587  48.431 -25.525  1.00  0.00     0.143 C 
HETATM    8  C28 UNL     1      -4.586  48.281 -26.690  1.00  0.00     0.145 C 
ENDROOT
BRANCH   1   9
HETATM    9  C11 UNL     1      -5.744  47.429 -29.239  1.00  0.00     0.374 C 
BRANCH   9  10
HETATM   10  N2  UNL     1      -6.015  46.976 -30.614  1.00  0.00     0.098 N 
HETATM   11  C10 UNL     1      -4.861  47.064 -31.514  1.00  0.00     0.274 C 
HETATM   12  C9  UNL     1      -5.323  46.256 -32.718  1.00  0.00     0.046 C 
HETATM   13  C8  UNL     1      -6.284  45.210 -32.145  1.00  0.00     0.108 C 
HETATM   14  C29 UNL     1      -6.442  45.576 -30.671  1.00  0.00     0.287 C 
BRANCH  13  15
HETATM   15  C1  UNL     1      -5.832  43.765 -32.309  1.00  0.00     0.228 C 
HETATM   16  O1  UNL     1      -6.245  42.904 -31.536  1.00  0.00    -0.273 OA
HETATM   17  N1  UNL     1      -4.922  43.561 -33.332  1.00  0.00    -0.327 N 
HETATM   18  H1  UNL     1      -4.717  44.356 -33.923  1.00  0.00     0.169 HD
BRANCH  17  19
HETATM   19  C2  UNL     1      -4.261  42.364 -33.676  1.00  0.00     0.036 A 
HETATM   20  C3  UNL     1      -3.168  41.845 -32.976  1.00  0.00     0.032 A 
HETATM   21  C4  UNL     1      -2.551  40.662 -33.390  1.00  0.00     0.040 A 
HETATM   22  C5  UNL     1      -3.021  39.997 -34.512  1.00  0.00     0.087 A 
HETATM   23  C6  UNL     1      -4.116  40.496 -35.216  1.00  0.00     0.069 A 
HETATM   24 CL1  UNL     1      -4.713  39.670 -36.607  1.00  0.00    -0.081 Cl
HETATM   25  C7  UNL     1      -4.737  41.674 -34.801  1.00  0.00     0.056 A 
BRANCH  22  26
HETATM   26  O2  UNL     1      -2.372  38.854 -34.886  1.00  0.00    -0.359 OA
HETATM   27  H4  UNL     1      -2.833  38.501 -35.667  1.00  0.00     0.217 HD
ENDBRANCH  22  26
ENDBRANCH  17  19
ENDBRANCH  13  15
ENDBRANCH   9  10
ENDBRANCH   1   9
BRANCH   6  28
HETATM   28  C15 UNL     1      -2.613  50.240 -24.190  1.00  0.00     0.030 A 
HETATM   29  C16 UNL     1      -2.449  51.606 -23.906  1.00  0.00     0.030 A 
HETATM   30  C17 UNL     1      -1.817  52.053 -22.735  1.00  0.00     0.014 A 
HETATM   31  C18 UNL     1      -1.307  51.148 -21.795  1.00  0.00    -0.026 A 
HETATM   32  C25 UNL     1      -1.504  49.786 -22.052  1.00  0.00     0.014 A 
HETATM   33  C26 UNL     1      -2.145  49.346 -23.221  1.00  0.00     0.030 A 
BRANCH  31  34
HETATM   34  C19 UNL     1      -0.539  51.601 -20.620  1.00  0.00    -0.026 A 
HETATM   35  C20 UNL     1       0.359  52.683 -20.700  1.00  0.00     0.015 A 
HETATM   36  C21 UNL     1       1.035  53.142 -19.566  1.00  0.00     0.043 A 
HETATM   37  C22 UNL     1       0.828  52.516 -18.342  1.00  0.00     0.116 A 
HETATM   38  F1  UNL     1       1.470  52.963 -17.257  1.00  0.00    -0.206 F 
HETATM   39  C23 UNL     1      -0.043  51.440 -18.232  1.00  0.00     0.043 A 
HETATM   40  C24 UNL     1      -0.723  50.989 -19.365  1.00  0.00     0.015 A 
ENDBRANCH  31  34
ENDBRANCH   6  28
TORSDOF 7
ENDMDL
MODEL 7
REMARK minimizedAffinity -9.813344
REMARK CNNscore 0.248589665
REMARK CNNaffinity 5.94114542
REMARK  7 active torsions:
REMARK  status: ('A' for Active; 'I' for Inactive)
REMARK       I    between atoms: C1_2  and  N1_3 
REMARK    1  A    between atoms: C1_2  and  C8_12 
REMARK    2  A    between atoms: N1_3  and  C2_4 
REMARK    3  A    between atoms: C5_7  and  O2_8 
REMARK    4  A    between atoms: N2_15  and  C11_16 
REMARK    5  A    between atoms: C11_16  and  C12_17 
REMARK       I    between atoms: C12_17  and  N3_19 
REMARK    6  A    between atoms: N4_22  and  C15_23 
REMARK    7  A    between atoms: C18_26  and  C19_27 
ROOT
HETATM    1  C12 UNL     1      -4.995  48.526 -29.000  1.00  0.00     0.248 C 
HETATM    2  O3  UNL     1      -4.752  49.121 -30.056  1.00  0.00    -0.271 OA
HETATM    3  N3  UNL     1      -4.201  48.740 -27.863  1.00  0.00    -0.348 N 
HETATM    4  C13 UNL     1      -3.364  49.948 -27.902  1.00  0.00     0.145 C 
HETATM    5  C14 UNL     1      -2.255  49.991 -26.840  1.00  0.00     0.143 C 
HETATM    6  N4  UNL     1      -2.802  49.670 -25.508  1.00  0.00    -0.378 N 
HETATM    7  C27 UNL     1      -3.455  48.345 -25.481  1.00  0.00     0.143 C 
HETATM    8  C28 UNL     1      -4.594  48.290 -26.518  1.00  0.00     0.145 C 
ENDROOT
BRANCH   1   9
HETATM    9  C11 UNL     1      -6.148  47.501 -28.870  1.00  0.00     0.374 C 
BRANCH   9  10
HETATM   10  N2  UNL     1      -7.476  48.122 -29.017  1.00  0.00     0.098 N 
HETATM   11  C10 UNL     1      -8.243  47.634 -30.166  1.00  0.00     0.274 C 
HETATM   12  C9  UNL     1      -9.635  48.181 -29.887  1.00  0.00     0.046 C 
HETATM   13  C8  UNL     1      -9.730  48.252 -28.359  1.00  0.00     0.108 C 
HETATM   14  C29 UNL     1      -8.335  47.892 -27.853  1.00  0.00     0.287 C 
BRANCH  13  15
HETATM   15  C1  UNL     1     -10.791  47.350 -27.740  1.00  0.00     0.228 C 
HETATM   16  O1  UNL     1     -10.470  46.527 -26.886  1.00  0.00    -0.273 OA
HETATM   17  N1  UNL     1     -12.064  47.524 -28.256  1.00  0.00    -0.327 N 
HETATM   18  H1  UNL     1     -12.188  48.281 -28.915  1.00  0.00     0.169 HD
BRANCH  17  19
HETATM   19  C2  UNL     1     -13.228  46.788 -27.950  1.00  0.00     0.036 A 
HETATM   20  C3  UNL     1     -13.882  45.948 -28.856  1.00  0.00     0.032 A 
HETATM   21  C4  UNL     1     -15.046  45.268 -28.486  1.00  0.00     0.040 A 
HETATM   22  C5  UNL     1     -15.563  45.432 -27.211  1.00  0.00     0.087 A 
HETATM   23  C6  UNL     1     -14.917  46.260 -26.293  1.00  0.00     0.069 A 
HETATM   24 CL1  UNL     1     -15.549  46.462 -24.702  1.00  0.00    -0.081 Cl
HETATM   25  C7  UNL     1     -13.753  46.936 -26.658  1.00  0.00     0.056 A 
BRANCH  22  26
HETATM   26  O2  UNL     1     -16.712  44.758 -26.905  1.00  0.00    -0.359 OA
HETATM   27  H4  UNL     1     -16.928  44.960 -25.978  1.00  0.00     0.217 HD
ENDBRANCH  22  26
ENDBRANCH  17  19
ENDBRANCH  13  15
ENDBRANCH   9  10
ENDBRANCH   1   9
BRANCH   6  28
HETATM   28  C15 UNL     1      -2.091  50.052 -24.372  1.00  0.00     0.030 A 
HETATM   29  C16 UNL     1      -2.249  49.349 -23.166  1.00  0.00     0.030 A 
HETATM   30  C17 UNL     1      -1.648  49.775 -21.971  1.00  0.00     0.014 A 
HETATM   31  C18 UNL     1      -0.866  50.936 -21.926  1.00  0.00    -0.026 A 
HETATM   32  C25 UNL     1      -0.671  51.619 -23.133  1.00  0.00     0.014 A 
HETATM   33  C26 UNL     1      -1.268  51.183 -24.326  1.00  0.00     0.030 A 
BRANCH  31  34
HETATM   34  C19 UNL     1      -0.326  51.459 -20.656  1.00  0.00    -0.026 A 
HETATM   35  C20 UNL     1       0.328  52.704 -20.591  1.00  0.00     0.015 A 
HETATM   36  C21 UNL     1       0.781  53.216 -19.372  1.00  0.00     0.043 A 
HETATM   37  C22 UNL     1       0.594  52.482 -18.207  1.00  0.00     0.116 A 
HETATM   38  F1  UNL     1       1.021  52.978 -17.040  1.00  0.00    -0.206 F 
HETATM   39  C23 UNL     1      -0.038  51.245 -18.239  1.00  0.00     0.043 A 
HETATM   40  C24 UNL     1      -0.497  50.741 -19.457  1.00  0.00     0.015 A 
ENDBRANCH  31  34
ENDBRANCH   6  28
TORSDOF 7
ENDMDL
MODEL 8
REMARK minimizedAffinity -9.44015884
REMARK CNNscore 0.244867206
REMARK CNNaffinity 6.93934774
REMARK  7 active torsions:
REMARK  status: ('A' for Active; 'I' for Inactive)
REMARK       I    between atoms: C1_2  and  N1_3 
REMARK    1  A    between atoms: C1_2  and  C8_12 
REMARK    2  A    between atoms: N1_3  and  C2_4 
REMARK    3  A    between atoms: C5_7  and  O2_8 
REMARK    4  A    between atoms: N2_15  and  C11_16 
REMARK    5  A    between atoms: C11_16  and  C12_17 
REMARK       I    between atoms: C12_17  and  N3_19 
REMARK    6  A    between atoms: N4_22  and  C15_23 
REMARK    7  A    between atoms: C18_26  and  C19_27 
ROOT
HETATM    1  C12 UNL     1       0.096  52.602 -25.509  1.00  0.00     0.248 C 
HETATM    2  O3  UNL     1       0.387  53.545 -26.252  1.00  0.00    -0.271 OA
HETATM    3  N3  UNL     1      -1.009  51.785 -25.795  1.00  0.00    -0.348 N 
HETATM    4  C13 UNL     1      -1.518  51.880 -27.171  1.00  0.00     0.145 C 
HETATM    5  C14 UNL     1      -2.913  51.272 -27.379  1.00  0.00     0.143 C 
HETATM    6  N4  UNL     1      -2.980  49.919 -26.796  1.00  0.00    -0.378 N 
HETATM    7  C27 UNL     1      -2.656  49.920 -25.354  1.00  0.00     0.143 C 
HETATM    8  C28 UNL     1      -1.246  50.497 -25.124  1.00  0.00     0.145 C 
ENDROOT
BRANCH   1   9
HETATM    9  C11 UNL     1       0.892  52.281 -24.221  1.00  0.00     0.374 C 
BRANCH   9  10
HETATM   10  N2  UNL     1       0.117  52.544 -22.996  1.00  0.00     0.098 N 
HETATM   11  C10 UNL     1      -0.238  51.340 -22.240  1.00  0.00     0.274 C 
HETATM   12  C9  UNL     1      -0.722  51.915 -20.917  1.00  0.00     0.046 C 
HETATM   13  C8  UNL     1       0.065  53.218 -20.743  1.00  0.00     0.108 C 
HETATM   14  C29 UNL     1       0.838  53.396 -22.048  1.00  0.00     0.287 C 
BRANCH  13  15
HETATM   15  C1  UNL     1       0.999  53.248 -19.540  1.00  0.00     0.228 C 
HETATM   16  O1  UNL     1       2.012  53.943 -19.570  1.00  0.00    -0.273 OA
HETATM   17  N1  UNL     1       0.621  52.416 -18.500  1.00  0.00    -0.327 N 
HETATM   18  H1  UNL     1      -0.269  51.946 -18.594  1.00  0.00     0.169 HD
BRANCH  17  19
HETATM   19  C2  UNL     1       1.317  52.163 -17.300  1.00  0.00     0.036 A 
HETATM   20  C3  UNL     1       2.592  52.661 -17.015  1.00  0.00     0.032 A 
HETATM   21  C4  UNL     1       3.228  52.348 -15.811  1.00  0.00     0.040 A 
HETATM   22  C5  UNL     1       2.594  51.530 -14.890  1.00  0.00     0.087 A 
HETATM   23  C6  UNL     1       1.318  51.032 -15.155  1.00  0.00     0.069 A 
HETATM   24 CL1  UNL     1       0.518  50.020 -14.011  1.00  0.00    -0.081 Cl
HETATM   25  C7  UNL     1       0.680  51.347 -16.354  1.00  0.00     0.056 A 
BRANCH  22  26
HETATM   26  O2  UNL     1       3.265  51.240 -13.736  1.00  0.00    -0.359 OA
HETATM   27  H4  UNL     1       2.681  50.680 -13.194  1.00  0.00     0.217 HD
ENDBRANCH  22  26
ENDBRANCH  17  19
ENDBRANCH  13  15
ENDBRANCH   9  10
ENDBRANCH   1   9
BRANCH   6  28
HETATM   28  C15 UNL     1      -3.976  49.043 -27.223  1.00  0.00     0.030 A 
HETATM   29  C16 UNL     1      -4.225  48.864 -28.594  1.00  0.00     0.030 A 
HETATM   30  C17 UNL     1      -5.297  48.089 -29.062  1.00  0.00     0.014 A 
HETATM   31  C18 UNL     1      -6.181  47.462 -28.173  1.00  0.00    -0.026 A 
HETATM   32  C25 UNL     1      -5.914  47.602 -26.806  1.00  0.00     0.014 A 
HETATM   33  C26 UNL     1      -4.835  48.372 -26.345  1.00  0.00     0.030 A 
BRANCH  31  34
HETATM   34  C19 UNL     1      -7.377  46.741 -28.649  1.00  0.00    -0.026 A 
HETATM   35  C20 UNL     1      -7.272  45.578 -29.436  1.00  0.00     0.015 A 
HETATM   36  C21 UNL     1      -8.411  44.871 -29.830  1.00  0.00     0.043 A 
HETATM   37  C22 UNL     1      -9.668  45.325 -29.449  1.00  0.00     0.116 A 
HETATM   38  F1  UNL     1     -10.756  44.640 -29.819  1.00  0.00    -0.206 F 
HETATM   39  C23 UNL     1      -9.807  46.474 -28.681  1.00  0.00     0.043 A 
HETATM   40  C24 UNL     1      -8.666  47.174 -28.283  1.00  0.00     0.015 A 
ENDBRANCH  31  34
ENDBRANCH   6  28
TORSDOF 7
ENDMDL
MODEL 9
REMARK minimizedAffinity -8.85282135
REMARK CNNscore 0.235926837
REMARK CNNaffinity 5.46798277
REMARK  7 active torsions:
REMARK  status: ('A' for Active; 'I' for Inactive)
REMARK       I    between atoms: C1_2  and  N1_3 
REMARK    1  A    between atoms: C1_2  and  C8_12 
REMARK    2  A    between atoms: N1_3  and  C2_4 
REMARK    3  A    between atoms: C5_7  and  O2_8 
REMARK    4  A    between atoms: N2_15  and  C11_16 
REMARK    5  A    between atoms: C11_16  and  C12_17 
REMARK       I    between atoms: C12_17  and  N3_19 
REMARK    6  A    between atoms: N4_22  and  C15_23 
REMARK    7  A    between atoms: C18_26  and  C19_27 
ROOT
HETATM    1  C12 UNL     1      -9.157  48.260 -19.294  1.00  0.00     0.248 C 
HETATM    2  O3  UNL     1      -9.341  48.855 -18.227  1.00  0.00    -0.271 OA
HETATM    3  N3  UNL     1      -8.115  48.643 -20.153  1.00  0.00    -0.348 N 
HETATM    4  C13 UNL     1      -7.077  49.486 -19.541  1.00  0.00     0.145 C 
HETATM    5  C14 UNL     1      -6.150  50.185 -20.545  1.00  0.00     0.143 C 
HETATM    6  N4  UNL     1      -5.645  49.222 -21.541  1.00  0.00    -0.378 N 
HETATM    7  C27 UNL     1      -6.741  48.553 -22.272  1.00  0.00     0.143 C 
HETATM    8  C28 UNL     1      -7.669  47.817 -21.285  1.00  0.00     0.145 C 
ENDROOT
BRANCH   1   9
HETATM    9  C11 UNL     1     -10.062  47.095 -19.763  1.00  0.00     0.374 C 
BRANCH   9  10
HETATM   10  N2  UNL     1     -11.293  47.565 -20.422  1.00  0.00     0.098 N 
HETATM   11  C10 UNL     1     -11.942  46.560 -21.268  1.00  0.00     0.274 C 
HETATM   12  C9  UNL     1     -13.301  47.189 -21.541  1.00  0.00     0.046 C 
HETATM   13  C8  UNL     1     -13.592  48.045 -20.304  1.00  0.00     0.108 C 
HETATM   14  C29 UNL     1     -12.318  47.984 -19.464  1.00  0.00     0.287 C 
BRANCH  13  15
HETATM   15  C1  UNL     1     -14.808  47.610 -19.494  1.00  0.00     0.228 C 
HETATM   16  O1  UNL     1     -14.771  47.653 -18.267  1.00  0.00    -0.273 OA
HETATM   17  N1  UNL     1     -15.866  47.146 -20.255  1.00  0.00    -0.327 N 
HETATM   18  H1  UNL     1     -15.774  47.223 -21.258  1.00  0.00     0.169 HD
BRANCH  17  19
HETATM   19  C2  UNL     1     -17.084  46.599 -19.798  1.00  0.00     0.036 A 
HETATM   20  C3  UNL     1     -18.273  47.325 -19.681  1.00  0.00     0.032 A 
HETATM   21  C4  UNL     1     -19.436  46.720 -19.199  1.00  0.00     0.040 A 
HETATM   22  C5  UNL     1     -19.412  45.385 -18.825  1.00  0.00     0.087 A 
HETATM   23  C6  UNL     1     -18.237  44.644 -18.943  1.00  0.00     0.069 A 
HETATM   24 CL1  UNL     1     -18.200  42.982 -18.488  1.00  0.00    -0.081 Cl
HETATM   25  C7  UNL     1     -17.076  45.246 -19.429  1.00  0.00     0.056 A 
BRANCH  22  26
HETATM   26  O2  UNL     1     -20.571  44.845 -18.343  1.00  0.00    -0.359 OA
HETATM   27  H4  UNL     1     -20.394  43.907 -18.149  1.00  0.00     0.217 HD
ENDBRANCH  22  26
ENDBRANCH  17  19
ENDBRANCH  13  15
ENDBRANCH   9  10
ENDBRANCH   1   9
BRANCH   6  28
HETATM   28  C15 UNL     1      -4.495  49.533 -22.265  1.00  0.00     0.030 A 
HETATM   29  C16 UNL     1      -3.804  50.731 -22.022  1.00  0.00     0.030 A 
HETATM   30  C17 UNL     1      -2.718  51.138 -22.812  1.00  0.00     0.014 A 
HETATM   31  C18 UNL     1      -2.277  50.365 -23.893  1.00  0.00    -0.026 A 
HETATM   32  C25 UNL     1      -2.934  49.149 -24.116  1.00  0.00     0.014 A 
HETATM   33  C26 UNL     1      -4.015  48.744 -23.317  1.00  0.00     0.030 A 
BRANCH  31  34
HETATM   34  C19 UNL     1      -1.213  50.836 -24.801  1.00  0.00    -0.026 A 
HETATM   35  C20 UNL     1      -1.211  50.502 -26.169  1.00  0.00     0.015 A 
HETATM   36  C21 UNL     1      -0.231  51.004 -27.030  1.00  0.00     0.043 A 
HETATM   37  C22 UNL     1       0.762  51.838 -26.530  1.00  0.00     0.116 A 
HETATM   38  F1  UNL     1       1.692  52.324 -27.359  1.00  0.00    -0.206 F 
HETATM   39  C23 UNL     1       0.793  52.178 -25.184  1.00  0.00     0.043 A 
HETATM   40  C24 UNL     1      -0.191  51.681 -24.327  1.00  0.00     0.015 A 
ENDBRANCH  31  34
ENDBRANCH   6  28
TORSDOF 7
ENDMDL
