MODEL 1
REMARK minimizedAffinity -8.87474251
REMARK  7 active torsions:
REMARK  status: ('A' for Active; 'I' for Inactive)
REMARK    1  A    between atoms: O1_2  and  C2_3 
REMARK    2  A    between atoms: C2_3  and  C3_4 
REMARK    3  A    between atoms: C3_4  and  N1_5 
REMARK    4  A    between atoms: C3_4  and  C17_28 
REMARK       I    between atoms: N1_5  and  C4_6 
REMARK       I    between atoms: C4_6  and  N2_8 
REMARK    5  A    between atoms: N2_8  and  C5_9 
REMARK    6  A    between atoms: C8_15  and  O3_16 
REMARK    7  A    between atoms: O3_16  and  C9_17 
ROOT
HETATM    1  C5  UNL     1      -3.063  48.749 -24.654  1.00  0.00     0.110 A 
HETATM    2  C6  UNL     1      -4.413  48.395 -24.660  1.00  0.00     0.080 A 
HETATM    3  C7  UNL     1      -4.997  48.279 -25.921  1.00  0.00     0.067 A 
HETATM    4  N3  UNL     1      -6.268  47.969 -26.327  1.00  0.00    -0.298 N 
HETATM    5  N4  UNL     1      -6.433  47.962 -27.663  1.00  0.00    -0.279 N 
ATOM      6  H4  UNL     1      -7.280  47.763 -28.196  1.00  0.00     0.189 HD
HETATM    7  C8  UNL     1      -5.220  48.278 -28.121  1.00  0.00     0.171 A 
HETATM    8  C15 UNL     1      -4.281  48.490 -27.093  1.00  0.00     0.060 A 
HETATM    9  C16 UNL     1      -2.935  48.828 -26.999  1.00  0.00     0.108 A 
HETATM   10  N5  UNL     1      -2.349  48.945 -25.780  1.00  0.00    -0.351 N 
ATOM     11  H5  UNL     1      -1.359  49.183 -25.716  1.00  0.00     0.166 HD
HETATM   12  H10 UNL     1      -7.070  47.754 -25.745  1.00  0.00     0.187 HD
ENDROOT
BRANCH   1  13
HETATM   13  N2  UNL     1      -2.447  48.856 -23.401  1.00  0.00    -0.299 N 
HETATM   14  C4  UNL     1      -2.564  49.921 -22.536  1.00  0.00     0.300 C 
HETATM   15  N1  UNL     1      -1.697  49.744 -21.467  1.00  0.00    -0.233 NA
HETATM   16  O2  UNL     1      -3.307  50.885 -22.638  1.00  0.00    -0.254 OA
HETATM   17  H7  UNL     1      -0.777  49.469 -21.786  1.00  0.00     0.133 HD
HETATM   18  H8  UNL     1      -2.036  48.028 -23.005  1.00  0.00     0.171 HD
BRANCH  15  19
HETATM   19  C3  UNL     1      -1.620  50.781 -20.435  1.00  0.00     0.121 C 
BRANCH  19  20
HETATM   20  C2  UNL     1      -3.015  51.406 -20.207  1.00  0.00     0.191 C 
BRANCH  20  21
HETATM   21  O1  UNL     1      -3.151  51.766 -18.822  1.00  0.00    -0.394 OA
HETATM   22  C1  UNL     1      -2.800  50.685 -17.970  1.00  0.00     0.201 C 
ENDBRANCH  20  21
ENDBRANCH  19  20
BRANCH  19  23
HETATM   23  C17 UNL     1      -0.611  51.858 -20.792  1.00  0.00    -0.038 A 
HETATM   24  C18 UNL     1      -0.111  52.744 -19.823  1.00  0.00     0.009 A 
HETATM   25  C19 UNL     1       0.836  53.712 -20.164  1.00  0.00     0.001 A 
HETATM   26  C20 UNL     1       1.290  53.813 -21.477  1.00  0.00     0.000 A 
HETATM   27  C21 UNL     1       0.792  52.951 -22.452  1.00  0.00     0.001 A 
HETATM   28  C22 UNL     1      -0.153  51.981 -22.113  1.00  0.00     0.009 A 
ENDBRANCH  19  23
ENDBRANCH  15  19
ENDBRANCH   1  13
BRANCH   7  29
HETATM   29  O3  UNL     1      -4.962  48.374 -29.445  1.00  0.00    -0.329 OA
BRANCH  29  30
HETATM   30  C9  UNL     1      -5.757  47.544 -30.305  1.00  0.00     0.135 C 
HETATM   31  C10 UNL     1      -6.879  48.376 -30.940  1.00  0.00     0.059 C 
HETATM   32  C11 UNL     1      -7.244  47.824 -32.305  1.00  0.00     0.170 C 
HETATM   33  O4  UNL     1      -6.153  47.841 -33.227  1.00  0.00    -0.386 OA
HETATM   34  C12 UNL     1      -4.848  47.833 -32.634  1.00  0.00     0.119 C 
HETATM   35  C13 UNL     1      -3.874  47.317 -33.685  1.00  0.00     0.039 C 
HETATM   36  C14 UNL     1      -4.815  46.970 -31.375  1.00  0.00     0.064 C 
ENDBRANCH  29  30
ENDBRANCH   7  29
TORSDOF 7
ENDMDL
MODEL 2
REMARK minimizedAffinity -8.7009964
REMARK  7 active torsions:
REMARK  status: ('A' for Active; 'I' for Inactive)
REMARK    1  A    between atoms: O1_2  and  C2_3 
REMARK    2  A    between atoms: C2_3  and  C3_4 
REMARK    3  A    between atoms: C3_4  and  N1_5 
REMARK    4  A    between atoms: C3_4  and  C17_28 
REMARK       I    between atoms: N1_5  and  C4_6 
REMARK       I    between atoms: C4_6  and  N2_8 
REMARK    5  A    between atoms: N2_8  and  C5_9 
REMARK    6  A    between atoms: C8_15  and  O3_16 
REMARK    7  A    between atoms: O3_16  and  C9_17 
ROOT
HETATM    1  C5  UNL     1      -2.529  51.288 -27.351  1.00  0.00     0.110 A 
HETATM    2  C6  UNL     1      -1.169  51.324 -27.662  1.00  0.00     0.080 A 
HETATM    3  C7  UNL     1      -0.352  51.937 -26.711  1.00  0.00     0.067 A 
HETATM    4  N3  UNL     1       0.997  52.170 -26.662  1.00  0.00    -0.298 N 
HETATM    5  N4  UNL     1       1.405  52.806 -25.548  1.00  0.00    -0.279 N 
ATOM      6  H4  UNL     1       2.352  53.086 -25.290  1.00  0.00     0.189 HD
HETATM    7  C8  UNL     1       0.273  52.982 -24.865  1.00  0.00     0.171 A 
HETATM    8  C15 UNL     1      -0.857  52.467 -25.531  1.00  0.00     0.060 A 
HETATM    9  C16 UNL     1      -2.225  52.380 -25.292  1.00  0.00     0.108 A 
HETATM   10  N5  UNL     1      -3.035  51.786 -26.205  1.00  0.00    -0.351 N 
ATOM     11  H5  UNL     1      -4.036  51.715 -26.023  1.00  0.00     0.166 HD
HETATM   12  H10 UNL     1       1.694  51.923 -27.355  1.00  0.00     0.187 HD
ENDROOT
BRANCH   1  13
HETATM   13  N2  UNL     1      -3.369  50.664 -28.281  1.00  0.00    -0.299 N 
HETATM   14  C4  UNL     1      -3.925  49.411 -28.147  1.00  0.00     0.300 C 
HETATM   15  N1  UNL     1      -4.572  49.065 -29.326  1.00  0.00    -0.233 NA
HETATM   16  O2  UNL     1      -3.896  48.684 -27.166  1.00  0.00    -0.254 OA
HETATM   17  H7  UNL     1      -3.991  49.262 -30.130  1.00  0.00     0.133 HD
HETATM   18  H8  UNL     1      -3.757  51.226 -29.019  1.00  0.00     0.171 HD
BRANCH  15  19
HETATM   19  C3  UNL     1      -5.205  47.749 -29.429  1.00  0.00     0.121 C 
BRANCH  19  20
HETATM   20  C2  UNL     1      -5.147  47.247 -30.890  1.00  0.00     0.191 C 
BRANCH  20  21
HETATM   21  O1  UNL     1      -4.668  48.306 -31.735  1.00  0.00    -0.394 OA
HETATM   22  C1  UNL     1      -4.560  47.881 -33.086  1.00  0.00     0.201 C 
ENDBRANCH  20  21
ENDBRANCH  19  20
BRANCH  19  23
HETATM   23  C17 UNL     1      -6.642  47.774 -28.937  1.00  0.00    -0.038 A 
HETATM   24  C18 UNL     1      -6.999  47.233 -27.690  1.00  0.00     0.009 A 
HETATM   25  C19 UNL     1      -8.320  47.288 -27.242  1.00  0.00     0.001 A 
HETATM   26  C20 UNL     1      -9.302  47.877 -28.035  1.00  0.00     0.000 A 
HETATM   27  C21 UNL     1      -8.967  48.404 -29.280  1.00  0.00     0.001 A 
HETATM   28  C22 UNL     1      -7.645  48.353 -29.729  1.00  0.00     0.009 A 
ENDBRANCH  19  23
ENDBRANCH  15  19
ENDBRANCH   1  13
BRANCH   7  29
HETATM   29  O3  UNL     1       0.257  53.595 -23.660  1.00  0.00    -0.329 OA
BRANCH  29  30
HETATM   30  C9  UNL     1       0.973  52.937 -22.606  1.00  0.00     0.135 C 
HETATM   31  C10 UNL     1       1.298  53.939 -21.491  1.00  0.00     0.059 C 
HETATM   32  C11 UNL     1       1.358  53.240 -20.146  1.00  0.00     0.170 C 
HETATM   33  O4  UNL     1       0.127  52.612 -19.785  1.00  0.00    -0.386 OA
HETATM   34  C12 UNL     1      -0.729  52.264 -20.880  1.00  0.00     0.119 C 
HETATM   35  C13 UNL     1      -1.672  51.173 -20.392  1.00  0.00     0.039 C 
HETATM   36  C14 UNL     1       0.076  51.801 -22.091  1.00  0.00     0.064 C 
ENDBRANCH  29  30
ENDBRANCH   7  29
TORSDOF 7
ENDMDL
MODEL 3
REMARK minimizedAffinity -8.67454147
REMARK  7 active torsions:
REMARK  status: ('A' for Active; 'I' for Inactive)
REMARK    1  A    between atoms: O1_2  and  C2_3 
REMARK    2  A    between atoms: C2_3  and  C3_4 
REMARK    3  A    between atoms: C3_4  and  N1_5 
REMARK    4  A    between atoms: C3_4  and  C17_28 
REMARK       I    between atoms: N1_5  and  C4_6 
REMARK       I    between atoms: C4_6  and  N2_8 
REMARK    5  A    between atoms: N2_8  and  C5_9 
REMARK    6  A    between atoms: C8_15  and  O3_16 
REMARK    7  A    between atoms: O3_16  and  C9_17 
ROOT
HETATM    1  C5  UNL     1       0.717  52.684 -19.113  1.00  0.00     0.110 A 
HETATM    2  C6  UNL     1       1.167  53.578 -20.086  1.00  0.00     0.080 A 
HETATM    3  C7  UNL     1       0.852  53.241 -21.403  1.00  0.00     0.067 A 
HETATM    4  N3  UNL     1       1.122  53.845 -22.602  1.00  0.00    -0.298 N 
HETATM    5  N4  UNL     1       0.634  53.188 -23.671  1.00  0.00    -0.279 N 
ATOM      6  H4  UNL     1       0.708  53.440 -24.657  1.00  0.00     0.189 HD
HETATM    7  C8  UNL     1       0.032  52.128 -23.129  1.00  0.00     0.171 A 
HETATM    8  C15 UNL     1       0.131  52.098 -21.723  1.00  0.00     0.060 A 
HETATM    9  C16 UNL     1      -0.291  51.265 -20.693  1.00  0.00     0.108 A 
HETATM   10  N5  UNL     1       0.004  51.577 -19.405  1.00  0.00    -0.351 N 
ATOM     11  H5  UNL     1      -0.315  50.969 -18.651  1.00  0.00     0.166 HD
HETATM   12  H10 UNL     1       1.635  54.705 -22.762  1.00  0.00     0.187 HD
ENDROOT
BRANCH   1  13
HETATM   13  N2  UNL     1       1.005  53.006 -17.782  1.00  0.00    -0.299 N 
HETATM   14  C4  UNL     1       1.075  52.115 -16.736  1.00  0.00     0.300 C 
HETATM   15  N1  UNL     1       1.230  52.811 -15.545  1.00  0.00    -0.233 NA
HETATM   16  O2  UNL     1       1.028  50.895 -16.791  1.00  0.00    -0.254 OA
HETATM   17  H7  UNL     1       0.580  53.584 -15.489  1.00  0.00     0.133 HD
HETATM   18  H8  UNL     1       1.374  53.922 -17.587  1.00  0.00     0.171 HD
BRANCH  15  19
HETATM   19  C3  UNL     1       1.287  52.065 -14.286  1.00  0.00     0.121 C 
BRANCH  19  20
HETATM   20  C2  UNL     1       1.806  50.632 -14.543  1.00  0.00     0.191 C 
BRANCH  20  21
HETATM   21  O1  UNL     1       3.201  50.567 -14.202  1.00  0.00    -0.394 OA
HETATM   22  C1  UNL     1       3.385  50.148 -12.857  1.00  0.00     0.201 C 
ENDBRANCH  20  21
ENDBRANCH  19  20
BRANCH  19  23
HETATM   23  C17 UNL     1      -0.066  52.020 -13.596  1.00  0.00    -0.038 A 
HETATM   24  C18 UNL     1      -0.290  52.685 -12.379  1.00  0.00     0.009 A 
HETATM   25  C19 UNL     1      -1.546  52.655 -11.772  1.00  0.00     0.001 A 
HETATM   26  C20 UNL     1      -2.593  51.954 -12.367  1.00  0.00     0.000 A 
HETATM   27  C21 UNL     1      -2.382  51.277 -13.566  1.00  0.00     0.001 A 
HETATM   28  C22 UNL     1      -1.127  51.308 -14.176  1.00  0.00     0.009 A 
ENDBRANCH  19  23
ENDBRANCH  15  19
ENDBRANCH   1  13
BRANCH   7  29
HETATM   29  O3  UNL     1      -0.599  51.203 -23.887  1.00  0.00    -0.329 OA
BRANCH  29  30
HETATM   30  C9  UNL     1      -0.813  51.551 -25.262  1.00  0.00     0.135 C 
HETATM   31  C10 UNL     1      -0.885  53.077 -25.407  1.00  0.00     0.059 C 
HETATM   32  C11 UNL     1      -0.384  53.506 -26.774  1.00  0.00     0.170 C 
HETATM   33  O4  UNL     1       0.974  53.138 -27.014  1.00  0.00    -0.386 OA
HETATM   34  C12 UNL     1       1.452  52.022 -26.253  1.00  0.00     0.119 C 
HETATM   35  C13 UNL     1       2.654  51.448 -26.990  1.00  0.00     0.039 C 
HETATM   36  C14 UNL     1       0.363  50.970 -26.063  1.00  0.00     0.064 C 
ENDBRANCH  29  30
ENDBRANCH   7  29
TORSDOF 7
ENDMDL
MODEL 4
REMARK minimizedAffinity -8.60354805
REMARK  7 active torsions:
REMARK  status: ('A' for Active; 'I' for Inactive)
REMARK    1  A    between atoms: O1_2  and  C2_3 
REMARK    2  A    between atoms: C2_3  and  C3_4 
REMARK    3  A    between atoms: C3_4  and  N1_5 
REMARK    4  A    between atoms: C3_4  and  C17_28 
REMARK       I    between atoms: N1_5  and  C4_6 
REMARK       I    between atoms: C4_6  and  N2_8 
REMARK    5  A    between atoms: N2_8  and  C5_9 
REMARK    6  A    between atoms: C8_15  and  O3_16 
REMARK    7  A    between atoms: O3_16  and  C9_17 
ROOT
HETATM    1  C5  UNL     1       0.969  52.996 -19.442  1.00  0.00     0.110 A 
HETATM    2  C6  UNL     1       1.434  54.071 -20.202  1.00  0.00     0.080 A 
HETATM    3  C7  UNL     1       1.253  53.955 -21.580  1.00  0.00     0.067 A 
HETATM    4  N3  UNL     1       1.577  54.775 -22.629  1.00  0.00    -0.298 N 
HETATM    5  N4  UNL     1       1.227  54.291 -23.834  1.00  0.00    -0.279 N 
ATOM      6  H4  UNL     1       1.364  54.716 -24.752  1.00  0.00     0.189 HD
HETATM    7  C8  UNL     1       0.659  53.120 -23.540  1.00  0.00     0.171 A 
HETATM    8  C15 UNL     1       0.644  52.848 -22.157  1.00  0.00     0.060 A 
HETATM    9  C16 UNL     1       0.198  51.824 -21.328  1.00  0.00     0.108 A 
HETATM   10  N5  UNL     1       0.364  51.920 -19.984  1.00  0.00    -0.351 N 
ATOM     11  H5  UNL     1       0.027  51.172 -19.378  1.00  0.00     0.166 HD
HETATM   12  H10 UNL     1       2.039  55.677 -22.590  1.00  0.00     0.187 HD
ENDROOT
BRANCH   1  13
HETATM   13  N2  UNL     1       1.123  53.095 -18.054  1.00  0.00    -0.299 N 
HETATM   14  C4  UNL     1       0.868  52.094 -17.144  1.00  0.00     0.300 C 
HETATM   15  N1  UNL     1       0.985  52.599 -15.857  1.00  0.00    -0.233 NA
HETATM   16  O2  UNL     1       0.592  50.927 -17.378  1.00  0.00    -0.254 OA
HETATM   17  H7  UNL     1       0.497  53.481 -15.767  1.00  0.00     0.133 HD
HETATM   18  H8  UNL     1       1.631  53.882 -17.690  1.00  0.00     0.171 HD
BRANCH  15  19
HETATM   19  C3  UNL     1       0.715  51.718 -14.719  1.00  0.00     0.121 C 
BRANCH  19  20
HETATM   20  C2  UNL     1       0.198  52.544 -13.520  1.00  0.00     0.191 C 
BRANCH  20  21
HETATM   21  O1  UNL     1      -1.180  52.214 -13.277  1.00  0.00    -0.394 OA
HETATM   22  C1  UNL     1      -1.568  52.555 -11.954  1.00  0.00     0.201 C 
ENDBRANCH  20  21
ENDBRANCH  19  20
BRANCH  19  23
HETATM   23  C17 UNL     1       1.945  50.921 -14.320  1.00  0.00    -0.038 A 
HETATM   24  C18 UNL     1       3.240  51.361 -14.641  1.00  0.00     0.009 A 
HETATM   25  C19 UNL     1       4.360  50.629 -14.243  1.00  0.00     0.001 A 
HETATM   26  C20 UNL     1       4.202  49.445 -13.527  1.00  0.00     0.000 A 
HETATM   27  C21 UNL     1       2.924  48.987 -13.214  1.00  0.00     0.001 A 
HETATM   28  C22 UNL     1       1.802  49.719 -13.609  1.00  0.00     0.009 A 
ENDBRANCH  19  23
ENDBRANCH  15  19
ENDBRANCH   1  13
BRANCH   7  29
HETATM   29  O3  UNL     1       0.161  52.309 -24.500  1.00  0.00    -0.329 OA
BRANCH  29  30
HETATM   30  C9  UNL     1       0.196  52.821 -25.840  1.00  0.00     0.135 C 
HETATM   31  C10 UNL     1       1.215  52.031 -26.673  1.00  0.00     0.059 C 
HETATM   32  C11 UNL     1       0.798  51.996 -28.131  1.00  0.00     0.170 C 
HETATM   33  O4  UNL     1      -0.469  51.371 -28.338  1.00  0.00    -0.386 OA
HETATM   34  C12 UNL     1      -1.351  51.382 -27.208  1.00  0.00     0.119 C 
HETATM   35  C13 UNL     1      -2.767  51.192 -27.734  1.00  0.00     0.039 C 
HETATM   36  C14 UNL     1      -1.222  52.680 -26.415  1.00  0.00     0.064 C 
ENDBRANCH  29  30
ENDBRANCH   7  29
TORSDOF 7
ENDMDL
MODEL 5
REMARK minimizedAffinity -8.54083347
REMARK  7 active torsions:
REMARK  status: ('A' for Active; 'I' for Inactive)
REMARK    1  A    between atoms: O1_2  and  C2_3 
REMARK    2  A    between atoms: C2_3  and  C3_4 
REMARK    3  A    between atoms: C3_4  and  N1_5 
REMARK    4  A    between atoms: C3_4  and  C17_28 
REMARK       I    between atoms: N1_5  and  C4_6 
REMARK       I    between atoms: C4_6  and  N2_8 
REMARK    5  A    between atoms: N2_8  and  C5_9 
REMARK    6  A    between atoms: C8_15  and  O3_16 
REMARK    7  A    between atoms: O3_16  and  C9_17 
ROOT
HETATM    1  C5  UNL     1      -2.958  49.249 -24.617  1.00  0.00     0.110 A 
HETATM    2  C6  UNL     1      -4.221  48.657 -24.578  1.00  0.00     0.080 A 
HETATM    3  C7  UNL     1      -4.799  48.394 -25.820  1.00  0.00     0.067 A 
HETATM    4  N3  UNL     1      -6.001  47.846 -26.184  1.00  0.00    -0.298 N 
HETATM    5  N4  UNL     1      -6.188  47.764 -27.514  1.00  0.00    -0.279 N 
ATOM      6  H4  UNL     1      -6.995  47.397 -28.019  1.00  0.00     0.189 HD
HETATM    7  C8  UNL     1      -5.062  48.279 -28.012  1.00  0.00     0.171 A 
HETATM    8  C15 UNL     1      -4.157  48.692 -27.015  1.00  0.00     0.060 A 
HETATM    9  C16 UNL     1      -2.893  49.271 -26.966  1.00  0.00     0.108 A 
HETATM   10  N5  UNL     1      -2.314  49.533 -25.767  1.00  0.00    -0.351 N 
ATOM     11  H5  UNL     1      -1.383  49.948 -25.735  1.00  0.00     0.166 HD
HETATM   12  H10 UNL     1      -6.738  47.509 -25.575  1.00  0.00     0.187 HD
ENDROOT
BRANCH   1  13
HETATM   13  N2  UNL     1      -2.347  49.508 -23.384  1.00  0.00    -0.299 N 
HETATM   14  C4  UNL     1      -1.808  50.712 -22.991  1.00  0.00     0.300 C 
HETATM   15  N1  UNL     1      -1.158  50.552 -21.775  1.00  0.00    -0.233 NA
HETATM   16  O2  UNL     1      -1.873  51.784 -23.575  1.00  0.00    -0.254 OA
HETATM   17  H7  UNL     1      -0.570  49.730 -21.783  1.00  0.00     0.133 HD
HETATM   18  H8  UNL     1      -2.466  48.834 -22.647  1.00  0.00     0.171 HD
BRANCH  15  19
HETATM   19  C3  UNL     1      -0.470  51.700 -21.180  1.00  0.00     0.121 C 
BRANCH  19  20
HETATM   20  C2  UNL     1       0.842  51.986 -21.945  1.00  0.00     0.191 C 
BRANCH  20  21
HETATM   21  O1  UNL     1       0.790  53.314 -22.492  1.00  0.00    -0.394 OA
HETATM   22  C1  UNL     1       1.516  54.233 -21.687  1.00  0.00     0.201 C 
ENDBRANCH  20  21
ENDBRANCH  19  20
BRANCH  19  23
HETATM   23  C17 UNL     1      -0.183  51.482 -19.705  1.00  0.00    -0.038 A 
HETATM   24  C18 UNL     1      -0.527  50.282 -19.061  1.00  0.00     0.009 A 
HETATM   25  C19 UNL     1      -0.233  50.089 -17.709  1.00  0.00     0.001 A 
HETATM   26  C20 UNL     1       0.402  51.094 -16.982  1.00  0.00     0.000 A 
HETATM   27  C21 UNL     1       0.736  52.295 -17.603  1.00  0.00     0.001 A 
HETATM   28  C22 UNL     1       0.445  52.489 -18.955  1.00  0.00     0.009 A 
ENDBRANCH  19  23
ENDBRANCH  15  19
ENDBRANCH   1  13
BRANCH   7  29
HETATM   29  O3  UNL     1      -4.852  48.375 -29.345  1.00  0.00    -0.329 OA
BRANCH  29  30
HETATM   30  C9  UNL     1      -5.726  47.602 -30.179  1.00  0.00     0.135 C 
HETATM   31  C10 UNL     1      -6.819  48.504 -30.767  1.00  0.00     0.059 C 
HETATM   32  C11 UNL     1      -7.266  47.987 -32.122  1.00  0.00     0.170 C 
HETATM   33  O4  UNL     1      -6.211  47.945 -33.083  1.00  0.00    -0.386 OA
HETATM   34  C12 UNL     1      -4.888  47.853 -32.539  1.00  0.00     0.119 C 
HETATM   35  C13 UNL     1      -3.987  47.288 -33.628  1.00  0.00     0.039 C 
HETATM   36  C14 UNL     1      -4.861  46.981 -31.287  1.00  0.00     0.064 C 
ENDBRANCH  29  30
ENDBRANCH   7  29
TORSDOF 7
ENDMDL
MODEL 6
REMARK minimizedAffinity -8.47297955
REMARK  7 active torsions:
REMARK  status: ('A' for Active; 'I' for Inactive)
REMARK    1  A    between atoms: O1_2  and  C2_3 
REMARK    2  A    between atoms: C2_3  and  C3_4 
REMARK    3  A    between atoms: C3_4  and  N1_5 
REMARK    4  A    between atoms: C3_4  and  C17_28 
REMARK       I    between atoms: N1_5  and  C4_6 
REMARK       I    between atoms: C4_6  and  N2_8 
REMARK    5  A    between atoms: N2_8  and  C5_9 
REMARK    6  A    between atoms: C8_15  and  O3_16 
REMARK    7  A    between atoms: O3_16  and  C9_17 
ROOT
HETATM    1  C5  UNL     1      -3.203  49.183 -25.637  1.00  0.00     0.110 A 
HETATM    2  C6  UNL     1      -4.484  48.994 -25.115  1.00  0.00     0.080 A 
HETATM    3  C7  UNL     1      -5.416  48.447 -25.995  1.00  0.00     0.067 A 
HETATM    4  N3  UNL     1      -6.743  48.131 -25.861  1.00  0.00    -0.298 N 
HETATM    5  N4  UNL     1      -7.300  47.612 -26.970  1.00  0.00    -0.279 N 
ATOM      6  H4  UNL     1      -8.263  47.305 -27.111  1.00  0.00     0.189 HD
HETATM    7  C8  UNL     1      -6.290  47.597 -27.841  1.00  0.00     0.171 A 
HETATM    8  C15 UNL     1      -5.091  48.104 -27.302  1.00  0.00     0.060 A 
HETATM    9  C16 UNL     1      -3.788  48.313 -27.741  1.00  0.00     0.108 A 
HETATM   10  N5  UNL     1      -2.865  48.843 -26.897  1.00  0.00    -0.351 N 
ATOM     11  H5  UNL     1      -1.909  48.987 -27.219  1.00  0.00     0.166 HD
HETATM   12  H10 UNL     1      -7.327  48.246 -25.040  1.00  0.00     0.187 HD
ENDROOT
BRANCH   1  13
HETATM   13  N2  UNL     1      -2.243  49.715 -24.768  1.00  0.00    -0.299 N 
HETATM   14  C4  UNL     1      -1.960  51.052 -24.605  1.00  0.00     0.300 C 
HETATM   15  N1  UNL     1      -0.853  51.193 -23.780  1.00  0.00    -0.233 NA
HETATM   16  O2  UNL     1      -2.563  52.005 -25.075  1.00  0.00    -0.254 OA
HETATM   17  H7  UNL     1      -0.110  50.564 -24.058  1.00  0.00     0.133 HD
HETATM   18  H8  UNL     1      -1.850  49.108 -24.069  1.00  0.00     0.171 HD
BRANCH  15  19
HETATM   19  C3  UNL     1      -0.341  52.536 -23.497  1.00  0.00     0.121 C 
BRANCH  19  20
HETATM   20  C2  UNL     1       0.864  52.847 -24.412  1.00  0.00     0.191 C 
BRANCH  20  21
HETATM   21  O1  UNL     1       0.540  53.965 -25.256  1.00  0.00    -0.394 OA
HETATM   22  C1  UNL     1       0.122  53.536 -26.545  1.00  0.00     0.201 C 
ENDBRANCH  20  21
ENDBRANCH  19  20
BRANCH  19  23
HETATM   23  C17 UNL     1       0.049  52.695 -22.038  1.00  0.00    -0.038 A 
HETATM   24  C18 UNL     1       1.057  53.591 -21.642  1.00  0.00     0.009 A 
HETATM   25  C19 UNL     1       1.385  53.743 -20.294  1.00  0.00     0.001 A 
HETATM   26  C20 UNL     1       0.719  52.997 -19.324  1.00  0.00     0.000 A 
HETATM   27  C21 UNL     1      -0.272  52.093 -19.702  1.00  0.00     0.001 A 
HETATM   28  C22 UNL     1      -0.604  51.942 -21.050  1.00  0.00     0.009 A 
ENDBRANCH  19  23
ENDBRANCH  15  19
ENDBRANCH   1  13
BRANCH   7  29
HETATM   29  O3  UNL     1      -6.444  47.133 -29.102  1.00  0.00    -0.329 OA
BRANCH  29  30
HETATM   30  C9  UNL     1      -6.020  48.012 -30.154  1.00  0.00     0.135 C 
HETATM   31  C10 UNL     1      -4.969  47.313 -31.025  1.00  0.00     0.059 C 
HETATM   32  C11 UNL     1      -5.035  47.822 -32.453  1.00  0.00     0.170 C 
HETATM   33  O4  UNL     1      -6.300  47.588 -33.074  1.00  0.00    -0.386 OA
HETATM   34  C12 UNL     1      -7.407  47.446 -32.176  1.00  0.00     0.119 C 
HETATM   35  C13 UNL     1      -8.674  47.746 -32.965  1.00  0.00     0.039 C 
HETATM   36  C14 UNL     1      -7.270  48.373 -30.972  1.00  0.00     0.064 C 
ENDBRANCH  29  30
ENDBRANCH   7  29
TORSDOF 7
ENDMDL
MODEL 7
REMARK minimizedAffinity -8.32305336
REMARK  7 active torsions:
REMARK  status: ('A' for Active; 'I' for Inactive)
REMARK    1  A    between atoms: O1_2  and  C2_3 
REMARK    2  A    between atoms: C2_3  and  C3_4 
REMARK    3  A    between atoms: C3_4  and  N1_5 
REMARK    4  A    between atoms: C3_4  and  C17_28 
REMARK       I    between atoms: N1_5  and  C4_6 
REMARK       I    between atoms: C4_6  and  N2_8 
REMARK    5  A    between atoms: N2_8  and  C5_9 
REMARK    6  A    between atoms: C8_15  and  O3_16 
REMARK    7  A    between atoms: O3_16  and  C9_17 
ROOT
HETATM    1  C5  UNL     1      -3.488  49.017 -25.866  1.00  0.00     0.110 A 
HETATM    2  C6  UNL     1      -4.569  48.657 -25.060  1.00  0.00     0.080 A 
HETATM    3  C7  UNL     1      -5.660  48.105 -25.731  1.00  0.00     0.067 A 
HETATM    4  N3  UNL     1      -6.879  47.651 -25.301  1.00  0.00    -0.298 N 
HETATM    5  N4  UNL     1      -7.671  47.183 -26.283  1.00  0.00    -0.279 N 
ATOM      6  H4  UNL     1      -8.612  46.798 -26.208  1.00  0.00     0.189 HD
HETATM    7  C8  UNL     1      -6.926  47.347 -27.378  1.00  0.00     0.171 A 
HETATM    8  C15 UNL     1      -5.666  47.916 -27.108  1.00  0.00     0.060 A 
HETATM    9  C16 UNL     1      -4.543  48.291 -27.837  1.00  0.00     0.108 A 
HETATM   10  N5  UNL     1      -3.470  48.829 -27.201  1.00  0.00    -0.351 N 
ATOM     11  H5  UNL     1      -2.645  49.093 -27.738  1.00  0.00     0.166 HD
HETATM   12  H10 UNL     1      -7.233  47.633 -24.351  1.00  0.00     0.187 HD
ENDROOT
BRANCH   1  13
HETATM   13  N2  UNL     1      -2.372  49.558 -25.216  1.00  0.00    -0.299 N 
HETATM   14  C4  UNL     1      -2.065  50.897 -25.127  1.00  0.00     0.300 C 
HETATM   15  N1  UNL     1      -0.813  51.046 -24.545  1.00  0.00    -0.233 NA
HETATM   16  O2  UNL     1      -2.752  51.844 -25.477  1.00  0.00    -0.254 OA
HETATM   17  H7  UNL     1      -0.142  50.414 -24.960  1.00  0.00     0.133 HD
HETATM   18  H8  UNL     1      -1.845  48.958 -24.604  1.00  0.00     0.171 HD
BRANCH  15  19
HETATM   19  C3  UNL     1      -0.258  52.392 -24.386  1.00  0.00     0.121 C 
BRANCH  19  20
HETATM   20  C2  UNL     1       0.918  52.598 -25.367  1.00  0.00     0.191 C 
BRANCH  20  21
HETATM   21  O1  UNL     1       0.644  53.737 -26.200  1.00  0.00    -0.394 OA
HETATM   22  C1  UNL     1      -0.052  53.359 -27.380  1.00  0.00     0.201 C 
ENDBRANCH  20  21
ENDBRANCH  19  20
BRANCH  19  23
HETATM   23  C17 UNL     1       0.194  52.650 -22.959  1.00  0.00    -0.038 A 
HETATM   24  C18 UNL     1      -0.165  51.788 -21.909  1.00  0.00     0.009 A 
HETATM   25  C19 UNL     1       0.280  52.027 -20.608  1.00  0.00     0.001 A 
HETATM   26  C20 UNL     1       1.083  53.132 -20.336  1.00  0.00     0.000 A 
HETATM   27  C21 UNL     1       1.434  54.005 -21.363  1.00  0.00     0.001 A 
HETATM   28  C22 UNL     1       0.992  53.766 -22.666  1.00  0.00     0.009 A 
ENDBRANCH  19  23
ENDBRANCH  15  19
ENDBRANCH   1  13
BRANCH   7  29
HETATM   29  O3  UNL     1      -7.374  46.988 -28.603  1.00  0.00    -0.329 OA
BRANCH  29  30
HETATM   30  C9  UNL     1      -7.859  48.052 -29.435  1.00  0.00     0.135 C 
HETATM   31  C10 UNL     1      -7.233  47.949 -30.832  1.00  0.00     0.059 C 
HETATM   32  C11 UNL     1      -8.178  48.503 -31.881  1.00  0.00     0.170 C 
HETATM   33  O4  UNL     1      -9.423  47.806 -31.940  1.00  0.00    -0.386 OA
HETATM   34  C12 UNL     1      -9.803  47.126 -30.737  1.00  0.00     0.119 C 
HETATM   35  C13 UNL     1     -11.311  46.923 -30.786  1.00  0.00     0.039 C 
HETATM   36  C14 UNL     1      -9.389  47.914 -29.498  1.00  0.00     0.064 C 
ENDBRANCH  29  30
ENDBRANCH   7  29
TORSDOF 7
ENDMDL
MODEL 8
REMARK minimizedAffinity -8.28230286
REMARK  7 active torsions:
REMARK  status: ('A' for Active; 'I' for Inactive)
REMARK    1  A    between atoms: O1_2  and  C2_3 
REMARK    2  A    between atoms: C2_3  and  C3_4 
REMARK    3  A    between atoms: C3_4  and  N1_5 
REMARK    4  A    between atoms: C3_4  and  C17_28 
REMARK       I    between atoms: N1_5  and  C4_6 
REMARK       I    between atoms: C4_6  and  N2_8 
REMARK    5  A    between atoms: N2_8  and  C5_9 
REMARK    6  A    between atoms: C8_15  and  O3_16 
REMARK    7  A    between atoms: O3_16  and  C9_17 
ROOT
HETATM    1  C5  UNL     1      -3.570  48.962 -25.672  1.00  0.00     0.110 A 
HETATM    2  C6  UNL     1      -3.450  48.761 -27.048  1.00  0.00     0.080 A 
HETATM    3  C7  UNL     1      -4.572  48.218 -27.675  1.00  0.00     0.067 A 
HETATM    4  N3  UNL     1      -4.830  47.874 -28.976  1.00  0.00    -0.298 N 
HETATM    5  N4  UNL     1      -6.060  47.369 -29.178  1.00  0.00    -0.279 N 
ATOM      6  H4  UNL     1      -6.476  47.045 -30.052  1.00  0.00     0.189 HD
HETATM    7  C8  UNL     1      -6.604  47.394 -27.960  1.00  0.00     0.171 A 
HETATM    8  C15 UNL     1      -5.734  47.908 -26.979  1.00  0.00     0.060 A 
HETATM    9  C16 UNL     1      -5.775  48.150 -25.610  1.00  0.00     0.108 A 
HETATM   10  N5  UNL     1      -4.693  48.679 -24.982  1.00  0.00    -0.351 N 
ATOM     11  H5  UNL     1      -4.731  48.864 -23.980  1.00  0.00     0.166 HD
HETATM   12  H10 UNL     1      -4.209  47.958 -29.773  1.00  0.00     0.187 HD
ENDROOT
BRANCH   1  13
HETATM   13  N2  UNL     1      -2.465  49.521 -25.020  1.00  0.00    -0.299 N 
HETATM   14  C4  UNL     1      -2.127  50.856 -25.011  1.00  0.00     0.300 C 
HETATM   15  N1  UNL     1      -0.893  51.016 -24.396  1.00  0.00    -0.233 NA
HETATM   16  O2  UNL     1      -2.779  51.792 -25.447  1.00  0.00    -0.254 OA
HETATM   17  H7  UNL     1      -0.224  50.342 -24.744  1.00  0.00     0.133 HD
HETATM   18  H8  UNL     1      -1.973  48.953 -24.351  1.00  0.00     0.171 HD
BRANCH  15  19
HETATM   19  C3  UNL     1      -0.311  52.357 -24.308  1.00  0.00     0.121 C 
BRANCH  19  20
HETATM   20  C2  UNL     1       0.845  52.500 -25.324  1.00  0.00     0.191 C 
BRANCH  20  21
HETATM   21  O1  UNL     1       0.629  53.676 -26.122  1.00  0.00    -0.394 OA
HETATM   22  C1  UNL     1      -0.123  53.377 -27.291  1.00  0.00     0.201 C 
ENDBRANCH  20  21
ENDBRANCH  19  20
BRANCH  19  23
HETATM   23  C17 UNL     1       0.180  52.668 -22.905  1.00  0.00    -0.038 A 
HETATM   24  C18 UNL     1       1.019  53.765 -22.648  1.00  0.00     0.009 A 
HETATM   25  C19 UNL     1       1.439  54.051 -21.348  1.00  0.00     0.001 A 
HETATM   26  C20 UNL     1       1.035  53.242 -20.289  1.00  0.00     0.000 A 
HETATM   27  C21 UNL     1       0.215  52.141 -20.530  1.00  0.00     0.001 A 
HETATM   28  C22 UNL     1      -0.209  51.855 -21.829  1.00  0.00     0.009 A 
ENDBRANCH  19  23
ENDBRANCH  15  19
ENDBRANCH   1  13
BRANCH   7  29
HETATM   29  O3  UNL     1      -7.866  46.962 -27.735  1.00  0.00    -0.329 OA
BRANCH  29  30
HETATM   30  C9  UNL     1      -8.918  47.777 -28.268  1.00  0.00     0.135 C 
HETATM   31  C10 UNL     1      -8.376  48.644 -29.412  1.00  0.00     0.059 C 
HETATM   32  C11 UNL     1      -9.466  48.928 -30.428  1.00  0.00     0.170 C 
HETATM   33  O4  UNL     1      -9.995  47.745 -31.029  1.00  0.00    -0.386 OA
HETATM   34  C12 UNL     1      -9.854  46.548 -30.255  1.00  0.00     0.119 C 
HETATM   35  C13 UNL     1     -10.898  45.558 -30.752  1.00  0.00     0.039 C 
HETATM   36  C14 UNL     1     -10.020  46.827 -28.763  1.00  0.00     0.064 C 
ENDBRANCH  29  30
ENDBRANCH   7  29
TORSDOF 7
ENDMDL
MODEL 9
REMARK minimizedAffinity -8.25698662
REMARK  7 active torsions:
REMARK  status: ('A' for Active; 'I' for Inactive)
REMARK    1  A    between atoms: O1_2  and  C2_3 
REMARK    2  A    between atoms: C2_3  and  C3_4 
REMARK    3  A    between atoms: C3_4  and  N1_5 
REMARK    4  A    between atoms: C3_4  and  C17_28 
REMARK       I    between atoms: N1_5  and  C4_6 
REMARK       I    between atoms: C4_6  and  N2_8 
REMARK    5  A    between atoms: N2_8  and  C5_9 
REMARK    6  A    between atoms: C8_15  and  O3_16 
REMARK    7  A    between atoms: O3_16  and  C9_17 
ROOT
HETATM    1  C5  UNL     1      -0.537  50.641 -20.793  1.00  0.00     0.110 A 
HETATM    2  C6  UNL     1       0.142  51.841 -20.577  1.00  0.00     0.080 A 
HETATM    3  C7  UNL     1       0.468  52.116 -19.249  1.00  0.00     0.067 A 
HETATM    4  N3  UNL     1       1.106  53.171 -18.651  1.00  0.00    -0.298 N 
HETATM    5  N4  UNL     1       1.225  53.058 -17.316  1.00  0.00    -0.279 N 
ATOM      6  H4  UNL     1       1.657  53.709 -16.660  1.00  0.00     0.189 HD
HETATM    7  C8  UNL     1       0.640  51.887 -17.056  1.00  0.00     0.171 A 
HETATM    8  C15 UNL     1       0.146  51.250 -18.212  1.00  0.00     0.060 A 
HETATM    9  C16 UNL     1      -0.522  50.068 -18.514  1.00  0.00     0.108 A 
HETATM   10  N5  UNL     1      -0.845  49.782 -19.801  1.00  0.00    -0.351 N 
ATOM     11  H5  UNL     1      -1.326  48.910 -20.020  1.00  0.00     0.166 HD
HETATM   12  H10 UNL     1       1.484  54.000 -19.097  1.00  0.00     0.187 HD
ENDROOT
BRANCH   1  13
HETATM   13  N2  UNL     1      -0.860  50.333 -22.120  1.00  0.00    -0.299 N 
HETATM   14  C4  UNL     1      -1.035  51.243 -23.137  1.00  0.00     0.300 C 
HETATM   15  N1  UNL     1      -1.495  50.587 -24.270  1.00  0.00    -0.233 NA
HETATM   16  O2  UNL     1      -0.821  52.446 -23.106  1.00  0.00    -0.254 OA
HETATM   17  H7  UNL     1      -2.251  49.954 -24.042  1.00  0.00     0.133 HD
HETATM   18  H8  UNL     1      -0.781  49.374 -22.414  1.00  0.00     0.171 HD
BRANCH  15  19
HETATM   19  C3  UNL     1      -1.793  51.367 -25.473  1.00  0.00     0.121 C 
BRANCH  19  20
HETATM   20  C2  UNL     1      -2.960  50.717 -26.251  1.00  0.00     0.191 C 
BRANCH  20  21
HETATM   21  O1  UNL     1      -3.061  49.332 -25.880  1.00  0.00    -0.394 OA
HETATM   22  C1  UNL     1      -3.366  48.517 -27.003  1.00  0.00     0.201 C 
ENDBRANCH  20  21
ENDBRANCH  19  20
BRANCH  19  23
HETATM   23  C17 UNL     1      -0.575  51.508 -26.370  1.00  0.00    -0.038 A 
HETATM   24  C18 UNL     1      -0.681  52.016 -27.676  1.00  0.00     0.009 A 
HETATM   25  C19 UNL     1       0.453  52.162 -28.477  1.00  0.00     0.001 A 
HETATM   26  C20 UNL     1       1.705  51.797 -27.989  1.00  0.00     0.000 A 
HETATM   27  C21 UNL     1       1.824  51.277 -26.702  1.00  0.00     0.001 A 
HETATM   28  C22 UNL     1       0.692  51.132 -25.898  1.00  0.00     0.009 A 
ENDBRANCH  19  23
ENDBRANCH  15  19
ENDBRANCH   1  13
BRANCH   7  29
HETATM   29  O3  UNL     1       0.553  51.398 -15.798  1.00  0.00    -0.329 OA
BRANCH  29  30
HETATM   30  C9  UNL     1       1.277  52.116 -14.790  1.00  0.00     0.135 C 
HETATM   31  C10 UNL     1       0.532  52.030 -13.452  1.00  0.00     0.059 C 
HETATM   32  C11 UNL     1       1.508  52.092 -12.292  1.00  0.00     0.170 C 
HETATM   33  O4  UNL     1       2.457  51.025 -12.300  1.00  0.00    -0.386 OA
HETATM   34  C12 UNL     1       2.705  50.433 -13.581  1.00  0.00     0.119 C 
HETATM   35  C13 UNL     1       4.060  49.743 -13.510  1.00  0.00     0.039 C 
HETATM   36  C14 UNL     1       2.672  51.478 -14.693  1.00  0.00     0.064 C 
ENDBRANCH  29  30
ENDBRANCH   7  29
TORSDOF 7
ENDMDL
