MODEL 1
REMARK minimizedAffinity -7.36957455
REMARK  3 active torsions:
REMARK  status: ('A' for Active; 'I' for Inactive)
REMARK    1  A    between atoms: C3_4  and  C4_5 
REMARK    2  A    between atoms: C9_12  and  N3_13 
REMARK       I    between atoms: N3_13  and  C10_14 
REMARK       I    between atoms: C10_14  and  N4_16 
REMARK    3  A    between atoms: N4_16  and  C11_17 
ROOT
HETATM    1  C4  UNL     1      10.577  36.032  18.930  1.00  0.00    -0.005 A 
HETATM    2  C5  UNL     1      11.410  36.230  20.023  1.00  0.00     0.101 A 
HETATM    3  N2  UNL     1      12.759  36.311  19.948  1.00  0.00    -0.363 N 
ATOM      4  H2  UNL     1      13.330  36.454  20.781  1.00  0.00     0.165 HD
HETATM    5  C6  UNL     1      13.318  36.195  18.727  1.00  0.00     0.059 A 
HETATM    6  C7  UNL     1      14.691  36.269  18.583  1.00  0.00     0.035 A 
HETATM    7  C8  UNL     1      15.289  36.151  17.328  1.00  0.00     0.051 A 
HETATM    8  C9  UNL     1      14.477  35.962  16.223  1.00  0.00     0.109 A 
HETATM    9  N5  UNL     1      13.134  35.879  16.323  1.00  0.00    -0.341 N 
ATOM     10  H5  UNL     1      12.556  35.731  15.496  1.00  0.00     0.167 HD
HETATM   11  C15 UNL     1      12.576  35.996  17.546  1.00  0.00     0.061 A 
HETATM   12  C16 UNL     1      11.196  35.919  17.681  1.00  0.00     0.045 A 
ENDROOT
BRANCH   8  13
HETATM   13  N3  UNL     1      14.947  35.821  14.919  1.00  0.00    -0.295 N 
HETATM   14  C10 UNL     1      16.123  35.257  14.496  1.00  0.00     0.322 C 
HETATM   15  O1  UNL     1      17.007  34.816  15.215  1.00  0.00    -0.247 OA
HETATM   16  N4  UNL     1      16.193  35.260  13.114  1.00  0.00    -0.335 N 
HETATM   17  H9  UNL     1      15.290  35.210  12.666  1.00  0.00     0.165 HD
HETATM   18  H8  UNL     1      14.399  36.336  14.249  1.00  0.00     0.172 HD
BRANCH  16  19
HETATM   19  C11 UNL     1      17.311  34.690  12.344  1.00  0.00     0.023 C 
HETATM   20  C12 UNL     1      17.549  35.485  11.051  1.00  0.00     0.037 C 
HETATM   21  C13 UNL     1      18.577  34.785  13.218  1.00  0.00     0.037 C 
HETATM   22  C14 UNL     1      17.070  33.206  12.018  1.00  0.00     0.037 C 
ENDBRANCH  16  19
ENDBRANCH   8  13
BRANCH   1  23
HETATM   23  C3  UNL     1       9.134  35.953  19.059  1.00  0.00     0.009 A 
HETATM   24  C2  UNL     1       8.445  35.009  19.793  1.00  0.00     0.123 A 
HETATM   25  N1  UNL     1       7.118  35.288  19.633  1.00  0.00    -0.307 N 
HETATM   26  C1  UNL     1       6.002  34.574  20.207  1.00  0.00     0.177 C 
HETATM   27  N6  UNL     1       6.887  36.349  18.842  1.00  0.00    -0.310 N 
HETATM   28  C17 UNL     1       8.111  36.751  18.493  1.00  0.00     0.121 A 
ATOM     29  H6  UNL     1       5.989  36.751  18.573  1.00  0.00     0.186 HD
ENDBRANCH   1  23
TORSDOF 3
ENDMDL
MODEL 2
REMARK minimizedAffinity -7.30460978
REMARK  3 active torsions:
REMARK  status: ('A' for Active; 'I' for Inactive)
REMARK    1  A    between atoms: C3_4  and  C4_5 
REMARK    2  A    between atoms: C9_12  and  N3_13 
REMARK       I    between atoms: N3_13  and  C10_14 
REMARK       I    between atoms: C10_14  and  N4_16 
REMARK    3  A    between atoms: N4_16  and  C11_17 
ROOT
HETATM    1  C4  UNL     1      11.243  35.183  18.733  1.00  0.00    -0.005 A 
HETATM    2  C5  UNL     1      12.022  34.531  19.681  1.00  0.00     0.101 A 
HETATM    3  N2  UNL     1      13.341  34.267  19.532  1.00  0.00    -0.363 N 
ATOM      4  H2  UNL     1      13.871  33.781  20.256  1.00  0.00     0.165 HD
HETATM    5  C6  UNL     1      13.927  34.670  18.387  1.00  0.00     0.059 A 
HETATM    6  C7  UNL     1      15.271  34.430  18.174  1.00  0.00     0.035 A 
HETATM    7  C8  UNL     1      15.896  34.840  16.995  1.00  0.00     0.051 A 
HETATM    8  C9  UNL     1      15.142  35.498  16.041  1.00  0.00     0.109 A 
HETATM    9  N5  UNL     1      13.826  35.746  16.209  1.00  0.00    -0.341 N 
ATOM     10  H5  UNL     1      13.287  36.227  15.487  1.00  0.00     0.167 HD
HETATM   11  C15 UNL     1      13.241  35.343  17.356  1.00  0.00     0.061 A 
HETATM   12  C16 UNL     1      11.890  35.587  17.560  1.00  0.00     0.045 A 
ENDROOT
BRANCH   8  13
HETATM   13  N3  UNL     1      15.641  35.951  14.820  1.00  0.00    -0.295 N 
HETATM   14  C10 UNL     1      16.695  35.454  14.097  1.00  0.00     0.322 C 
HETATM   15  O1  UNL     1      17.427  34.536  14.434  1.00  0.00    -0.247 OA
HETATM   16  N4  UNL     1      16.838  36.148  12.909  1.00  0.00    -0.335 N 
HETATM   17  H9  UNL     1      15.969  36.522  12.556  1.00  0.00     0.165 HD
HETATM   18  H8  UNL     1      15.249  36.835  14.543  1.00  0.00     0.172 HD
BRANCH  16  19
HETATM   19  C11 UNL     1      17.851  35.836  11.888  1.00  0.00     0.023 C 
HETATM   20  C12 UNL     1      17.745  36.800  10.696  1.00  0.00     0.037 C 
HETATM   21  C13 UNL     1      19.238  36.011  12.538  1.00  0.00     0.037 C 
HETATM   22  C14 UNL     1      17.734  34.381  11.406  1.00  0.00     0.037 C 
ENDBRANCH  16  19
ENDBRANCH   8  13
BRANCH   1  23
HETATM   23  C3  UNL     1       9.832  35.446  18.938  1.00  0.00     0.009 A 
HETATM   24  C2  UNL     1       9.064  34.946  19.970  1.00  0.00     0.123 A 
HETATM   25  N1  UNL     1       7.800  35.426  19.779  1.00  0.00    -0.307 N 
HETATM   26  C1  UNL     1       6.640  35.175  20.600  1.00  0.00     0.177 C 
HETATM   27  N6  UNL     1       7.683  36.205  18.691  1.00  0.00    -0.310 N 
HETATM   28  C17 UNL     1       8.916  36.216  18.180  1.00  0.00     0.121 A 
ATOM     29  H6  UNL     1       6.849  36.676  18.339  1.00  0.00     0.186 HD
ENDBRANCH   1  23
TORSDOF 3
ENDMDL
MODEL 3
REMARK minimizedAffinity -7.19363499
REMARK  3 active torsions:
REMARK  status: ('A' for Active; 'I' for Inactive)
REMARK    1  A    between atoms: C3_4  and  C4_5 
REMARK    2  A    between atoms: C9_12  and  N3_13 
REMARK       I    between atoms: N3_13  and  C10_14 
REMARK       I    between atoms: C10_14  and  N4_16 
REMARK    3  A    between atoms: N4_16  and  C11_17 
ROOT
HETATM    1  C4  UNL     1      15.867  35.365  16.849  1.00  0.00    -0.005 A 
HETATM    2  C5  UNL     1      16.792  35.039  17.831  1.00  0.00     0.101 A 
HETATM    3  N2  UNL     1      16.467  34.572  19.060  1.00  0.00    -0.363 N 
ATOM      4  H2  UNL     1      17.183  34.351  19.751  1.00  0.00     0.165 HD
HETATM    5  C6  UNL     1      15.157  34.412  19.333  1.00  0.00     0.059 A 
HETATM    6  C7  UNL     1      14.759  33.939  20.569  1.00  0.00     0.035 A 
HETATM    7  C8  UNL     1      13.408  33.767  20.871  1.00  0.00     0.051 A 
HETATM    8  C9  UNL     1      12.468  34.077  19.904  1.00  0.00     0.109 A 
HETATM    9  N5  UNL     1      12.816  34.547  18.687  1.00  0.00    -0.341 N 
ATOM     10  H5  UNL     1      12.105  34.776  17.992  1.00  0.00     0.167 HD
HETATM   11  C15 UNL     1      14.128  34.705  18.415  1.00  0.00     0.061 A 
HETATM   12  C16 UNL     1      14.518  35.182  17.171  1.00  0.00     0.045 A 
ENDROOT
BRANCH   8  13
HETATM   13  N3  UNL     1      11.091  33.958  20.081  1.00  0.00    -0.295 N 
HETATM   14  C10 UNL     1      10.142  34.948  20.046  1.00  0.00     0.322 C 
HETATM   15  O1  UNL     1      10.356  36.142  19.900  1.00  0.00    -0.247 OA
HETATM   16  N4  UNL     1       8.877  34.413  20.213  1.00  0.00    -0.335 N 
HETATM   17  H9  UNL     1       8.793  33.467  19.872  1.00  0.00     0.165 HD
HETATM   18  H8  UNL     1      10.817  33.049  20.416  1.00  0.00     0.172 HD
BRANCH  16  19
HETATM   19  C11 UNL     1       7.637  35.205  20.185  1.00  0.00     0.023 C 
HETATM   20  C12 UNL     1       6.410  34.300  19.994  1.00  0.00     0.037 C 
HETATM   21  C13 UNL     1       7.510  35.923  21.543  1.00  0.00     0.037 C 
HETATM   22  C14 UNL     1       7.680  36.279  19.084  1.00  0.00     0.037 C 
ENDBRANCH  16  19
ENDBRANCH   8  13
BRANCH   1  23
HETATM   23  C3  UNL     1      16.263  35.861  15.544  1.00  0.00     0.009 A 
HETATM   24  C2  UNL     1      16.738  37.130  15.279  1.00  0.00     0.123 A 
HETATM   25  N1  UNL     1      16.975  37.181  13.936  1.00  0.00    -0.307 N 
HETATM   26  C1  UNL     1      17.477  38.305  13.182  1.00  0.00     0.177 C 
HETATM   27  N6  UNL     1      16.687  36.035  13.298  1.00  0.00    -0.310 N 
HETATM   28  C17 UNL     1      16.253  35.234  14.275  1.00  0.00     0.121 A 
ATOM     29  H6  UNL     1      16.778  35.825  12.304  1.00  0.00     0.186 HD
ENDBRANCH   1  23
TORSDOF 3
ENDMDL
MODEL 4
REMARK minimizedAffinity -7.17656994
REMARK  3 active torsions:
REMARK  status: ('A' for Active; 'I' for Inactive)
REMARK    1  A    between atoms: C3_4  and  C4_5 
REMARK    2  A    between atoms: C9_12  and  N3_13 
REMARK       I    between atoms: N3_13  and  C10_14 
REMARK       I    between atoms: C10_14  and  N4_16 
REMARK    3  A    between atoms: N4_16  and  C11_17 
ROOT
HETATM    1  C4  UNL     1      10.144  35.071  20.444  1.00  0.00    -0.005 A 
HETATM    2  C5  UNL     1      10.742  33.823  20.566  1.00  0.00     0.101 A 
HETATM    3  N2  UNL     1      11.802  33.411  19.831  1.00  0.00    -0.363 N 
ATOM      4  H2  UNL     1      12.205  32.482  19.954  1.00  0.00     0.165 HD
HETATM    5  C6  UNL     1      12.303  34.279  18.930  1.00  0.00     0.059 A 
HETATM    6  C7  UNL     1      13.385  33.918  18.148  1.00  0.00     0.035 A 
HETATM    7  C8  UNL     1      13.918  34.802  17.208  1.00  0.00     0.051 A 
HETATM    8  C9  UNL     1      13.344  36.053  17.076  1.00  0.00     0.109 A 
HETATM    9  N5  UNL     1      12.283  36.441  17.816  1.00  0.00    -0.341 N 
ATOM     10  H5  UNL     1      11.871  37.366  17.695  1.00  0.00     0.167 HD
HETATM   11  C15 UNL     1      11.783  35.571  18.719  1.00  0.00     0.061 A 
HETATM   12  C16 UNL     1      10.696  35.942  19.499  1.00  0.00     0.045 A 
ENDROOT
BRANCH   8  13
HETATM   13  N3  UNL     1      13.774  37.023  16.172  1.00  0.00    -0.295 N 
HETATM   14  C10 UNL     1      14.894  37.811  16.240  1.00  0.00     0.322 C 
HETATM   15  O1  UNL     1      15.702  37.831  17.157  1.00  0.00    -0.247 OA
HETATM   16  N4  UNL     1      14.994  38.610  15.116  1.00  0.00    -0.335 N 
HETATM   17  H9  UNL     1      14.578  38.199  14.293  1.00  0.00     0.165 HD
HETATM   18  H8  UNL     1      13.079  37.244  15.477  1.00  0.00     0.172 HD
BRANCH  16  19
HETATM   19  C11 UNL     1      16.105  39.543  14.863  1.00  0.00     0.023 C 
HETATM   20  C12 UNL     1      16.119  39.995  13.395  1.00  0.00     0.037 C 
HETATM   21  C13 UNL     1      15.889  40.780  15.756  1.00  0.00     0.037 C 
HETATM   22  C14 UNL     1      17.459  38.918  15.238  1.00  0.00     0.037 C 
ENDBRANCH  16  19
ENDBRANCH   8  13
BRANCH   1  23
HETATM   23  C3  UNL     1       9.010  35.470  21.256  1.00  0.00     0.009 A 
HETATM   24  C2  UNL     1       9.054  35.773  22.602  1.00  0.00     0.123 A 
HETATM   25  N1  UNL     1       7.776  36.081  22.971  1.00  0.00    -0.307 N 
HETATM   26  C1  UNL     1       7.317  36.461  24.285  1.00  0.00     0.177 C 
HETATM   27  N6  UNL     1       6.894  35.999  21.961  1.00  0.00    -0.310 N 
HETATM   28  C17 UNL     1       7.643  35.626  20.920  1.00  0.00     0.121 A 
ATOM     29  H6  UNL     1       5.890  36.178  21.984  1.00  0.00     0.186 HD
ENDBRANCH   1  23
TORSDOF 3
ENDMDL
MODEL 5
REMARK minimizedAffinity -6.94135332
REMARK  3 active torsions:
REMARK  status: ('A' for Active; 'I' for Inactive)
REMARK    1  A    between atoms: C3_4  and  C4_5 
REMARK    2  A    between atoms: C9_12  and  N3_13 
REMARK       I    between atoms: N3_13  and  C10_14 
REMARK       I    between atoms: C10_14  and  N4_16 
REMARK    3  A    between atoms: N4_16  and  C11_17 
ROOT
HETATM    1  C4  UNL     1      18.285  46.814   6.509  1.00  0.00    -0.005 A 
HETATM    2  C5  UNL     1      19.429  47.267   7.154  1.00  0.00     0.101 A 
HETATM    3  N2  UNL     1      19.719  48.573   7.364  1.00  0.00    -0.363 N 
ATOM      4  H2  UNL     1      20.576  48.856   7.840  1.00  0.00     0.165 HD
HETATM    5  C6  UNL     1      18.831  49.482   6.919  1.00  0.00     0.059 A 
HETATM    6  C7  UNL     1      19.069  50.832   7.102  1.00  0.00     0.035 A 
HETATM    7  C8  UNL     1      18.161  51.789   6.648  1.00  0.00     0.051 A 
HETATM    8  C9  UNL     1      17.010  51.361   6.011  1.00  0.00     0.109 A 
HETATM    9  N5  UNL     1      16.744  50.053   5.808  1.00  0.00    -0.341 N 
ATOM     10  H5  UNL     1      15.893  49.761   5.328  1.00  0.00     0.167 HD
HETATM   11  C15 UNL     1      17.635  49.144   6.255  1.00  0.00     0.061 A 
HETATM   12  C16 UNL     1      17.388  47.791   6.065  1.00  0.00     0.045 A 
ENDROOT
BRANCH   8  13
HETATM   13  N3  UNL     1      16.030  52.212   5.504  1.00  0.00    -0.295 N 
HETATM   14  C10 UNL     1      16.115  53.561   5.269  1.00  0.00     0.322 C 
HETATM   15  O1  UNL     1      17.076  54.273   5.519  1.00  0.00    -0.247 OA
HETATM   16  N4  UNL     1      14.941  54.030   4.709  1.00  0.00    -0.335 N 
HETATM   17  H9  UNL     1      14.454  53.338   4.158  1.00  0.00     0.165 HD
HETATM   18  H8  UNL     1      15.123  51.777   5.455  1.00  0.00     0.172 HD
BRANCH  16  19
HETATM   19  C11 UNL     1      14.723  55.428   4.300  1.00  0.00     0.023 C 
HETATM   20  C12 UNL     1      13.333  55.606   3.670  1.00  0.00     0.037 C 
HETATM   21  C13 UNL     1      14.805  56.303   5.566  1.00  0.00     0.037 C 
HETATM   22  C14 UNL     1      15.812  55.904   3.324  1.00  0.00     0.037 C 
ENDBRANCH  16  19
ENDBRANCH   8  13
BRANCH   1  23
HETATM   23  C3  UNL     1      18.015  45.403   6.308  1.00  0.00     0.009 A 
HETATM   24  C2  UNL     1      18.295  44.689   5.160  1.00  0.00     0.123 A 
HETATM   25  N1  UNL     1      17.872  43.411   5.388  1.00  0.00    -0.307 N 
HETATM   26  C1  UNL     1      17.948  42.294   4.478  1.00  0.00     0.177 C 
HETATM   27  N6  UNL     1      17.330  43.236   6.604  1.00  0.00    -0.310 N 
HETATM   28  C17 UNL     1      17.416  44.446   7.162  1.00  0.00     0.121 A 
ATOM     29  H6  UNL     1      16.945  42.382   7.007  1.00  0.00     0.186 HD
ENDBRANCH   1  23
TORSDOF 3
ENDMDL
MODEL 6
REMARK minimizedAffinity -6.89484501
REMARK  3 active torsions:
REMARK  status: ('A' for Active; 'I' for Inactive)
REMARK    1  A    between atoms: C3_4  and  C4_5 
REMARK    2  A    between atoms: C9_12  and  N3_13 
REMARK       I    between atoms: N3_13  and  C10_14 
REMARK       I    between atoms: C10_14  and  N4_16 
REMARK    3  A    between atoms: N4_16  and  C11_17 
ROOT
HETATM    1  C4  UNL     1      15.667  37.476  16.488  1.00  0.00    -0.005 A 
HETATM    2  C5  UNL     1      16.186  36.210  16.245  1.00  0.00     0.101 A 
HETATM    3  N2  UNL     1      15.654  35.063  16.729  1.00  0.00    -0.363 N 
ATOM      4  H2  UNL     1      16.074  34.156  16.526  1.00  0.00     0.165 HD
HETATM    5  C6  UNL     1      14.547  35.168  17.490  1.00  0.00     0.059 A 
HETATM    6  C7  UNL     1      13.956  34.033  18.015  1.00  0.00     0.035 A 
HETATM    7  C8  UNL     1      12.810  34.121  18.806  1.00  0.00     0.051 A 
HETATM    8  C9  UNL     1      12.270  35.371  19.054  1.00  0.00     0.109 A 
HETATM    9  N5  UNL     1      12.821  36.502  18.565  1.00  0.00    -0.341 N 
ATOM     10  H5  UNL     1      12.410  37.414  18.768  1.00  0.00     0.167 HD
HETATM   11  C15 UNL     1      13.929  36.395  17.802  1.00  0.00     0.061 A 
HETATM   12  C16 UNL     1      14.516  37.540  17.281  1.00  0.00     0.045 A 
ENDROOT
BRANCH   8  13
HETATM   13  N3  UNL     1      11.137  35.596  19.833  1.00  0.00    -0.295 N 
HETATM   14  C10 UNL     1       9.820  35.454  19.478  1.00  0.00     0.322 C 
HETATM   15  O1  UNL     1       9.405  35.145  18.371  1.00  0.00    -0.247 OA
HETATM   16  N4  UNL     1       8.995  35.723  20.555  1.00  0.00    -0.335 N 
HETATM   17  H9  UNL     1       9.419  35.513  21.447  1.00  0.00     0.165 HD
HETATM   18  H8  UNL     1      11.347  36.056  20.703  1.00  0.00     0.172 HD
BRANCH  16  19
HETATM   19  C11 UNL     1       7.527  35.620  20.516  1.00  0.00     0.023 C 
HETATM   20  C12 UNL     1       6.960  36.334  19.279  1.00  0.00     0.037 C 
HETATM   21  C13 UNL     1       7.165  34.125  20.428  1.00  0.00     0.037 C 
HETATM   22  C14 UNL     1       6.890  36.188  21.795  1.00  0.00     0.037 C 
ENDBRANCH  16  19
ENDBRANCH   8  13
BRANCH   1  23
HETATM   23  C3  UNL     1      16.270  38.678  15.946  1.00  0.00     0.009 A 
HETATM   24  C2  UNL     1      15.909  39.294  14.764  1.00  0.00     0.123 A 
HETATM   25  N1  UNL     1      16.731  40.375  14.625  1.00  0.00    -0.307 N 
HETATM   26  C1  UNL     1      16.740  41.329  13.543  1.00  0.00     0.177 C 
HETATM   27  N6  UNL     1      17.609  40.512  15.633  1.00  0.00    -0.310 N 
HETATM   28  C17 UNL     1      17.330  39.481  16.434  1.00  0.00     0.121 A 
ATOM     29  H6  UNL     1      18.321  41.232  15.756  1.00  0.00     0.186 HD
ENDBRANCH   1  23
TORSDOF 3
ENDMDL
MODEL 7
REMARK minimizedAffinity -6.87406826
REMARK  3 active torsions:
REMARK  status: ('A' for Active; 'I' for Inactive)
REMARK    1  A    between atoms: C3_4  and  C4_5 
REMARK    2  A    between atoms: C9_12  and  N3_13 
REMARK       I    between atoms: N3_13  and  C10_14 
REMARK       I    between atoms: C10_14  and  N4_16 
REMARK    3  A    between atoms: N4_16  and  C11_17 
ROOT
HETATM    1  C4  UNL     1      18.105  47.985   6.236  1.00  0.00    -0.005 A 
HETATM    2  C5  UNL     1      18.918  48.318   7.312  1.00  0.00     0.101 A 
HETATM    3  N2  UNL     1      19.247  49.586   7.654  1.00  0.00    -0.363 N 
ATOM      4  H2  UNL     1      19.852  49.781   8.452  1.00  0.00     0.165 HD
HETATM    5  C6  UNL     1      18.742  50.581   6.899  1.00  0.00     0.059 A 
HETATM    6  C7  UNL     1      19.040  51.898   7.196  1.00  0.00     0.035 A 
HETATM    7  C8  UNL     1      18.528  52.942   6.425  1.00  0.00     0.051 A 
HETATM    8  C9  UNL     1      17.708  52.634   5.354  1.00  0.00     0.109 A 
HETATM    9  N5  UNL     1      17.398  51.361   5.028  1.00  0.00    -0.341 N 
ATOM     10  H5  UNL     1      16.798  51.157   4.228  1.00  0.00     0.167 HD
HETATM   11  C15 UNL     1      17.904  50.366   5.787  1.00  0.00     0.061 A 
HETATM   12  C16 UNL     1      17.600  49.047   5.479  1.00  0.00     0.045 A 
ENDROOT
BRANCH   8  13
HETATM   13  N3  UNL     1      17.140  53.580   4.502  1.00  0.00    -0.295 N 
HETATM   14  C10 UNL     1      16.008  54.328   4.698  1.00  0.00     0.322 C 
HETATM   15  O1  UNL     1      15.256  54.253   5.658  1.00  0.00    -0.247 OA
HETATM   16  N4  UNL     1      15.810  55.194   3.638  1.00  0.00    -0.335 N 
HETATM   17  H9  UNL     1      16.668  55.480   3.187  1.00  0.00     0.165 HD
HETATM   18  H8  UNL     1      17.557  53.578   3.585  1.00  0.00     0.172 HD
BRANCH  16  19
HETATM   19  C11 UNL     1      14.705  56.163   3.560  1.00  0.00     0.023 C 
HETATM   20  C12 UNL     1      14.583  56.746   2.144  1.00  0.00     0.037 C 
HETATM   21  C13 UNL     1      13.401  55.412   3.896  1.00  0.00     0.037 C 
HETATM   22  C14 UNL     1      14.876  57.296   4.586  1.00  0.00     0.037 C 
ENDBRANCH  16  19
ENDBRANCH   8  13
BRANCH   1  23
HETATM   23  C3  UNL     1      17.778  46.610   5.908  1.00  0.00     0.009 A 
HETATM   24  C2  UNL     1      18.023  45.995   4.697  1.00  0.00     0.123 A 
HETATM   25  N1  UNL     1      17.550  44.719   4.809  1.00  0.00    -0.307 N 
HETATM   26  C1  UNL     1      17.576  43.689   3.799  1.00  0.00     0.177 C 
HETATM   27  N6  UNL     1      17.009  44.454   6.009  1.00  0.00    -0.310 N 
HETATM   28  C17 UNL     1      17.146  45.603   6.676  1.00  0.00     0.121 A 
ATOM     29  H6  UNL     1      16.592  43.581   6.334  1.00  0.00     0.186 HD
ENDBRANCH   1  23
TORSDOF 3
ENDMDL
MODEL 8
REMARK minimizedAffinity -6.62773991
REMARK  3 active torsions:
REMARK  status: ('A' for Active; 'I' for Inactive)
REMARK    1  A    between atoms: C3_4  and  C4_5 
REMARK    2  A    between atoms: C9_12  and  N3_13 
REMARK       I    between atoms: N3_13  and  C10_14 
REMARK       I    between atoms: C10_14  and  N4_16 
REMARK    3  A    between atoms: N4_16  and  C11_17 
ROOT
HETATM    1  C4  UNL     1      15.036  55.739   4.200  1.00  0.00    -0.005 A 
HETATM    2  C5  UNL     1      15.084  56.116   2.864  1.00  0.00     0.101 A 
HETATM    3  N2  UNL     1      14.614  57.293   2.388  1.00  0.00    -0.363 N 
ATOM      4  H2  UNL     1      14.668  57.524   1.396  1.00  0.00     0.165 HD
HETATM    5  C6  UNL     1      14.073  58.148   3.278  1.00  0.00     0.059 A 
HETATM    6  C7  UNL     1      13.576  59.367   2.854  1.00  0.00     0.035 A 
HETATM    7  C8  UNL     1      13.011  60.265   3.760  1.00  0.00     0.051 A 
HETATM    8  C9  UNL     1      12.961  59.915   5.097  1.00  0.00     0.109 A 
HETATM    9  N5  UNL     1      13.430  58.732   5.549  1.00  0.00    -0.341 N 
ATOM     10  H5  UNL     1      13.375  58.491   6.539  1.00  0.00     0.167 HD
HETATM   11  C15 UNL     1      13.973  57.878   4.657  1.00  0.00     0.061 A 
HETATM   12  C16 UNL     1      14.468  56.656   5.091  1.00  0.00     0.045 A 
ENDROOT
BRANCH   8  13
HETATM   13  N3  UNL     1      12.416  60.716   6.099  1.00  0.00    -0.295 N 
HETATM   14  C10 UNL     1      12.177  60.391   7.410  1.00  0.00     0.322 C 
HETATM   15  O1  UNL     1      12.360  59.297   7.923  1.00  0.00    -0.247 OA
HETATM   16  N4  UNL     1      11.678  61.483   8.097  1.00  0.00    -0.335 N 
HETATM   17  H9  UNL     1      11.996  62.368   7.729  1.00  0.00     0.165 HD
HETATM   18  H8  UNL     1      12.031  61.576   5.745  1.00  0.00     0.172 HD
BRANCH  16  19
HETATM   19  C11 UNL     1      11.356  61.477   9.533  1.00  0.00     0.023 C 
HETATM   20  C12 UNL     1      10.154  60.565   9.823  1.00  0.00     0.037 C 
HETATM   21  C13 UNL     1      12.583  60.925  10.285  1.00  0.00     0.037 C 
HETATM   22  C14 UNL     1      11.081  62.898  10.054  1.00  0.00     0.037 C 
ENDBRANCH  16  19
ENDBRANCH   8  13
BRANCH   1  23
HETATM   23  C3  UNL     1      15.554  54.466   4.666  1.00  0.00     0.009 A 
HETATM   24  C2  UNL     1      16.883  54.094   4.669  1.00  0.00     0.123 A 
HETATM   25  N1  UNL     1      16.928  52.825   5.171  1.00  0.00    -0.307 N 
HETATM   26  C1  UNL     1      18.100  52.007   5.366  1.00  0.00     0.177 C 
HETATM   27  N6  UNL     1      15.720  52.336   5.495  1.00  0.00    -0.310 N 
HETATM   28  C17 UNL     1      14.886  53.332   5.187  1.00  0.00     0.121 A 
ATOM     29  H6  UNL     1      15.493  51.421   5.884  1.00  0.00     0.186 HD
ENDBRANCH   1  23
TORSDOF 3
ENDMDL
MODEL 9
REMARK minimizedAffinity -6.61320162
REMARK  3 active torsions:
REMARK  status: ('A' for Active; 'I' for Inactive)
REMARK    1  A    between atoms: C3_4  and  C4_5 
REMARK    2  A    between atoms: C9_12  and  N3_13 
REMARK       I    between atoms: N3_13  and  C10_14 
REMARK       I    between atoms: C10_14  and  N4_16 
REMARK    3  A    between atoms: N4_16  and  C11_17 
ROOT
HETATM    1  C4  UNL     1      11.969  35.058  18.400  1.00  0.00    -0.005 A 
HETATM    2  C5  UNL     1      12.850  33.991  18.521  1.00  0.00     0.101 A 
HETATM    3  N2  UNL     1      14.086  33.957  17.970  1.00  0.00    -0.363 N 
ATOM      4  H2  UNL     1      14.696  33.148  18.084  1.00  0.00     0.165 HD
HETATM    5  C6  UNL     1      14.478  35.037  17.265  1.00  0.00     0.059 A 
HETATM    6  C7  UNL     1      15.729  35.064  16.677  1.00  0.00     0.035 A 
HETATM    7  C8  UNL     1      16.153  36.172  15.943  1.00  0.00     0.051 A 
HETATM    8  C9  UNL     1      15.295  37.250  15.816  1.00  0.00     0.109 A 
HETATM    9  N5  UNL     1      14.064  37.259  16.370  1.00  0.00    -0.341 N 
ATOM     10  H5  UNL     1      13.445  38.063  16.256  1.00  0.00     0.167 HD
HETATM   11  C15 UNL     1      13.674  36.178  17.077  1.00  0.00     0.061 A 
HETATM   12  C16 UNL     1      12.415  36.159  17.662  1.00  0.00     0.045 A 
ENDROOT
BRANCH   8  13
HETATM   13  N3  UNL     1      15.592  38.411  15.104  1.00  0.00    -0.295 N 
HETATM   14  C10 UNL     1      16.344  39.485  15.506  1.00  0.00     0.322 C 
HETATM   15  O1  UNL     1      16.852  39.633  16.608  1.00  0.00    -0.247 OA
HETATM   16  N4  UNL     1      16.448  40.413  14.486  1.00  0.00    -0.335 N 
HETATM   17  H9  UNL     1      16.402  40.004  13.564  1.00  0.00     0.165 HD
HETATM   18  H8  UNL     1      15.054  38.497  14.258  1.00  0.00     0.172 HD
BRANCH  16  19
HETATM   19  C11 UNL     1      17.222  41.662  14.583  1.00  0.00     0.023 C 
HETATM   20  C12 UNL     1      16.754  42.507  15.778  1.00  0.00     0.037 C 
HETATM   21  C13 UNL     1      18.699  41.280  14.800  1.00  0.00     0.037 C 
HETATM   22  C14 UNL     1      17.130  42.482  13.285  1.00  0.00     0.037 C 
ENDBRANCH  16  19
ENDBRANCH   8  13
BRANCH   1  23
HETATM   23  C3  UNL     1      10.653  35.050  19.010  1.00  0.00     0.009 A 
HETATM   24  C2  UNL     1       9.563  35.776  18.575  1.00  0.00     0.123 A 
HETATM   25  N1  UNL     1       8.540  35.490  19.433  1.00  0.00    -0.307 N 
HETATM   26  C1  UNL     1       7.195  36.012  19.390  1.00  0.00     0.177 C 
HETATM   27  N6  UNL     1       8.883  34.628  20.404  1.00  0.00    -0.310 N 
HETATM   28  C17 UNL     1      10.166  34.362  20.148  1.00  0.00     0.121 A 
ATOM     29  H6  UNL     1       8.301  34.263  21.158  1.00  0.00     0.186 HD
ENDBRANCH   1  23
TORSDOF 3
ENDMDL
