MODEL 1
REMARK minimizedAffinity -9.6686697
REMARK  6 active torsions:
REMARK  status: ('A' for Active; 'I' for Inactive)
REMARK       I    between atoms: C1_2  and  N1_3 
REMARK       I    between atoms: C1_2  and  N2_12 
REMARK    1  A    between atoms: N1_3  and  C2_4 
REMARK    2  A    between atoms: C2_4  and  C3_5 
REMARK    3  A    between atoms: N2_12  and  C9_13 
REMARK    4  A    between atoms: C12_19  and  C13_20 
REMARK    5  A    between atoms: C16_23  and  O2_24 
REMARK    6  A    between atoms: O2_24  and  C17_25 
ROOT
HETATM    1  C9  UNL     1       1.127  53.116 -19.958  1.00  0.00     0.111 A 
HETATM    2  C10 UNL     1       1.606  54.081 -20.843  1.00  0.00     0.080 A 
HETATM    3  C11 UNL     1       1.233  53.915 -22.177  1.00  0.00     0.065 A 
HETATM    4  N3  UNL     1       1.518  54.629 -23.305  1.00  0.00    -0.299 N 
HETATM    5  N4  UNL     1       0.975  54.130 -24.425  1.00  0.00    -0.299 N 
ATOM      6  H4  UNL     1       1.067  54.487 -25.376  1.00  0.00     0.187 HD
HETATM    7  C12 UNL     1       0.281  53.055 -24.012  1.00  0.00     0.072 A 
HETATM    8  C20 UNL     1       0.429  52.866 -22.603  1.00  0.00     0.036 A 
HETATM    9  C21 UNL     1      -0.002  51.942 -21.651  1.00  0.00     0.105 A 
HETATM   10  N5  UNL     1       0.346  52.092 -20.347  1.00  0.00    -0.351 N 
ATOM     11  H5  UNL     1       0.011  51.422 -19.655  1.00  0.00     0.166 HD
HETATM   12  H10 UNL     1       2.086  55.466 -23.383  1.00  0.00     0.187 HD
ENDROOT
BRANCH   1  13
HETATM   13  N2  UNL     1       1.480  53.268 -18.611  1.00  0.00    -0.295 N 
HETATM   14  C1  UNL     1       1.051  52.469 -17.576  1.00  0.00     0.322 C 
HETATM   15  O1  UNL     1       0.388  51.444 -17.650  1.00  0.00    -0.247 OA
HETATM   16  N1  UNL     1       1.507  52.967 -16.366  1.00  0.00    -0.339 N 
HETATM   17  H1  UNL     1       1.608  53.969 -16.320  1.00  0.00     0.164 HD
HETATM   18  H8  UNL     1       2.215  53.917 -18.394  1.00  0.00     0.172 HD
BRANCH  16  19
HETATM   19  C2  UNL     1       1.124  52.330 -15.124  1.00  0.00     0.162 C 
BRANCH  19  20
HETATM   20  C3  UNL     1       0.385  51.039 -15.382  1.00  0.00    -0.040 A 
HETATM   21  C4  UNL     1       1.085  49.834 -15.554  1.00  0.00     0.012 A 
HETATM   22  C5  UNL     1       0.394  48.642 -15.771  1.00  0.00     0.043 A 
HETATM   23  C6  UNL     1      -0.995  48.651 -15.810  1.00  0.00     0.116 A 
HETATM   24  F1  UNL     1      -1.656  47.504 -16.015  1.00  0.00    -0.206 F 
HETATM   25  C7  UNL     1      -1.708  49.830 -15.636  1.00  0.00     0.043 A 
HETATM   26  C8  UNL     1      -1.019  51.024 -15.420  1.00  0.00     0.012 A 
ENDBRANCH  19  20
ENDBRANCH  16  19
ENDBRANCH   1  13
BRANCH   7  27
HETATM   27  C13 UNL     1      -0.477  52.245 -24.965  1.00  0.00    -0.007 A 
HETATM   28  C14 UNL     1      -1.868  52.354 -25.068  1.00  0.00     0.016 A 
HETATM   29  C15 UNL     1      -2.572  51.564 -25.982  1.00  0.00     0.038 A 
HETATM   30  C16 UNL     1      -1.906  50.656 -26.809  1.00  0.00     0.078 A 
HETATM   31  C18 UNL     1      -0.519  50.553 -26.721  1.00  0.00     0.038 A 
HETATM   32  C19 UNL     1       0.189  51.344 -25.808  1.00  0.00     0.016 A 
BRANCH  30  33
HETATM   33  O2  UNL     1      -2.723  49.952 -27.647  1.00  0.00    -0.255 OA
BRANCH  33  34
HETATM   34  C17 UNL     1      -3.310  48.761 -27.151  1.00  0.00     0.530 C 
HETATM   35  F2  UNL     1      -4.450  49.022 -26.475  1.00  0.00    -0.144 F 
HETATM   36  F3  UNL     1      -2.454  48.092 -26.349  1.00  0.00    -0.144 F 
HETATM   37  F4  UNL     1      -3.617  47.961 -28.197  1.00  0.00    -0.144 F 
ENDBRANCH  33  34
ENDBRANCH  30  33
ENDBRANCH   7  27
TORSDOF 6
ENDMDL
MODEL 2
REMARK minimizedAffinity -9.65641022
REMARK  6 active torsions:
REMARK  status: ('A' for Active; 'I' for Inactive)
REMARK       I    between atoms: C1_2  and  N1_3 
REMARK       I    between atoms: C1_2  and  N2_12 
REMARK    1  A    between atoms: N1_3  and  C2_4 
REMARK    2  A    between atoms: C2_4  and  C3_5 
REMARK    3  A    between atoms: N2_12  and  C9_13 
REMARK    4  A    between atoms: C12_19  and  C13_20 
REMARK    5  A    between atoms: C16_23  and  O2_24 
REMARK    6  A    between atoms: O2_24  and  C17_25 
ROOT
HETATM    1  C9  UNL     1       1.048  53.098 -20.339  1.00  0.00     0.111 A 
HETATM    2  C10 UNL     1       1.524  54.060 -21.227  1.00  0.00     0.080 A 
HETATM    3  C11 UNL     1       1.115  53.913 -22.552  1.00  0.00     0.065 A 
HETATM    4  N3  UNL     1       1.387  54.631 -23.682  1.00  0.00    -0.299 N 
HETATM    5  N4  UNL     1       0.806  54.153 -24.792  1.00  0.00    -0.299 N 
ATOM      6  H4  UNL     1       0.882  54.515 -25.742  1.00  0.00     0.187 HD
HETATM    7  C12 UNL     1       0.101  53.088 -24.371  1.00  0.00     0.072 A 
HETATM    8  C20 UNL     1       0.280  52.884 -22.968  1.00  0.00     0.036 A 
HETATM    9  C21 UNL     1      -0.146  51.961 -22.012  1.00  0.00     0.105 A 
HETATM   10  N5  UNL     1       0.237  52.093 -20.716  1.00  0.00    -0.351 N 
ATOM     11  H5  UNL     1      -0.095  51.424 -20.022  1.00  0.00     0.166 HD
HETATM   12  H10 UNL     1       1.969  55.457 -23.767  1.00  0.00     0.187 HD
ENDROOT
BRANCH   1  13
HETATM   13  N2  UNL     1       1.436  53.232 -18.999  1.00  0.00    -0.295 N 
HETATM   14  C1  UNL     1       0.897  52.543 -17.937  1.00  0.00     0.322 C 
HETATM   15  O1  UNL     1       0.078  51.636 -17.974  1.00  0.00    -0.247 OA
HETATM   16  N1  UNL     1       1.441  52.998 -16.746  1.00  0.00    -0.339 N 
HETATM   17  H1  UNL     1       1.702  53.971 -16.733  1.00  0.00     0.164 HD
HETATM   18  H8  UNL     1       2.268  53.760 -18.808  1.00  0.00     0.172 HD
BRANCH  16  19
HETATM   19  C2  UNL     1       0.976  52.467 -15.482  1.00  0.00     0.162 C 
BRANCH  19  20
HETATM   20  C3  UNL     1       2.064  51.681 -14.791  1.00  0.00    -0.040 A 
HETATM   21  C4  UNL     1       1.765  50.852 -13.698  1.00  0.00     0.012 A 
HETATM   22  C5  UNL     1       2.773  50.112 -13.077  1.00  0.00     0.043 A 
HETATM   23  C6  UNL     1       4.076  50.195 -13.552  1.00  0.00     0.116 A 
HETATM   24  F1  UNL     1       5.041  49.482 -12.957  1.00  0.00    -0.206 F 
HETATM   25  C7  UNL     1       4.393  51.004 -14.636  1.00  0.00     0.043 A 
HETATM   26  C8  UNL     1       3.387  51.746 -15.257  1.00  0.00     0.012 A 
ENDBRANCH  19  20
ENDBRANCH  16  19
ENDBRANCH   1  13
BRANCH   7  27
HETATM   27  C13 UNL     1      -0.696  52.301 -25.311  1.00  0.00    -0.007 A 
HETATM   28  C14 UNL     1      -2.073  52.506 -25.446  1.00  0.00     0.016 A 
HETATM   29  C15 UNL     1      -2.816  51.736 -26.347  1.00  0.00     0.038 A 
HETATM   30  C16 UNL     1      -2.203  50.754 -27.130  1.00  0.00     0.078 A 
HETATM   31  C18 UNL     1      -0.828  50.555 -27.010  1.00  0.00     0.038 A 
HETATM   32  C19 UNL     1      -0.082  51.326 -26.110  1.00  0.00     0.016 A 
BRANCH  30  33
HETATM   33  O2  UNL     1      -3.053  50.082 -27.960  1.00  0.00    -0.255 OA
BRANCH  33  34
HETATM   34  C17 UNL     1      -3.626  48.876 -27.482  1.00  0.00     0.530 C 
HETATM   35  F2  UNL     1      -2.682  48.046 -26.991  1.00  0.00    -0.144 F 
HETATM   36  F3  UNL     1      -4.319  48.246 -28.455  1.00  0.00    -0.144 F 
HETATM   37  F4  UNL     1      -4.484  49.173 -26.480  1.00  0.00    -0.144 F 
ENDBRANCH  33  34
ENDBRANCH  30  33
ENDBRANCH   7  27
TORSDOF 6
ENDMDL
MODEL 3
REMARK minimizedAffinity -9.47735691
REMARK  6 active torsions:
REMARK  status: ('A' for Active; 'I' for Inactive)
REMARK       I    between atoms: C1_2  and  N1_3 
REMARK       I    between atoms: C1_2  and  N2_12 
REMARK    1  A    between atoms: N1_3  and  C2_4 
REMARK    2  A    between atoms: C2_4  and  C3_5 
REMARK    3  A    between atoms: N2_12  and  C9_13 
REMARK    4  A    between atoms: C12_19  and  C13_20 
REMARK    5  A    between atoms: C16_23  and  O2_24 
REMARK    6  A    between atoms: O2_24  and  C17_25 
ROOT
HETATM    1  C9  UNL     1       0.807  52.227 -17.275  1.00  0.00     0.111 A 
HETATM    2  C10 UNL     1       0.194  51.023 -17.616  1.00  0.00     0.080 A 
HETATM    3  C11 UNL     1      -0.183  50.896 -18.954  1.00  0.00     0.065 A 
HETATM    4  N3  UNL     1      -0.810  49.894 -19.639  1.00  0.00    -0.299 N 
HETATM    5  N4  UNL     1      -1.015  50.160 -20.937  1.00  0.00    -0.299 N 
ATOM      6  H4  UNL     1      -1.476  49.570 -21.630  1.00  0.00     0.187 HD
HETATM    7  C12 UNL     1      -0.477  51.379 -21.120  1.00  0.00     0.072 A 
HETATM    8  C20 UNL     1       0.044  51.893 -19.893  1.00  0.00     0.036 A 
HETATM    9  C21 UNL     1       0.660  53.068 -19.463  1.00  0.00     0.105 A 
HETATM   10  N5  UNL     1       1.039  53.207 -18.167  1.00  0.00    -0.351 N 
ATOM     11  H5  UNL     1       1.505  54.063 -17.866  1.00  0.00     0.166 HD
HETATM   12  H10 UNL     1      -1.134  49.004 -19.279  1.00  0.00     0.187 HD
ENDROOT
BRANCH   1  13
HETATM   13  N2  UNL     1       1.205  52.373 -15.940  1.00  0.00    -0.295 N 
HETATM   14  C1  UNL     1       0.595  51.788 -14.854  1.00  0.00     0.322 C 
HETATM   15  O1  UNL     1      -0.314  50.970 -14.860  1.00  0.00    -0.247 OA
HETATM   16  N1  UNL     1       1.181  52.231 -13.679  1.00  0.00    -0.339 N 
HETATM   17  H1  UNL     1       1.542  53.172 -13.703  1.00  0.00     0.164 HD
HETATM   18  H8  UNL     1       2.087  52.819 -15.765  1.00  0.00     0.172 HD
BRANCH  16  19
HETATM   19  C2  UNL     1       0.661  51.803 -12.398  1.00  0.00     0.162 C 
BRANCH  19  20
HETATM   20  C3  UNL     1       0.086  52.969 -11.629  1.00  0.00    -0.040 A 
HETATM   21  C4  UNL     1      -1.287  53.030 -11.341  1.00  0.00     0.012 A 
HETATM   22  C5  UNL     1      -1.807  54.100 -10.612  1.00  0.00     0.043 A 
HETATM   23  C6  UNL     1      -0.957  55.104 -10.166  1.00  0.00     0.116 A 
HETATM   24  F1  UNL     1      -1.459  56.128  -9.463  1.00  0.00    -0.206 F 
HETATM   25  C7  UNL     1       0.405  55.060 -10.433  1.00  0.00     0.043 A 
HETATM   26  C8  UNL     1       0.928  53.992 -11.164  1.00  0.00     0.012 A 
ENDBRANCH  19  20
ENDBRANCH  16  19
ENDBRANCH   1  13
BRANCH   7  27
HETATM   27  C13 UNL     1      -0.491  52.011 -22.439  1.00  0.00    -0.007 A 
HETATM   28  C14 UNL     1       0.662  52.586 -22.983  1.00  0.00     0.016 A 
HETATM   29  C15 UNL     1       0.622  53.191 -24.243  1.00  0.00     0.038 A 
HETATM   30  C16 UNL     1      -0.563  53.231 -24.984  1.00  0.00     0.078 A 
HETATM   31  C18 UNL     1      -1.712  52.647 -24.453  1.00  0.00     0.038 A 
HETATM   32  C19 UNL     1      -1.674  52.039 -23.192  1.00  0.00     0.016 A 
BRANCH  30  33
HETATM   33  O2  UNL     1      -0.451  53.856 -26.193  1.00  0.00    -0.255 OA
BRANCH  33  34
HETATM   34  C17 UNL     1      -0.111  53.062 -27.317  1.00  0.00     0.530 C 
HETATM   35  F2  UNL     1      -0.216  53.766 -28.464  1.00  0.00    -0.144 F 
HETATM   36  F3  UNL     1      -0.890  51.961 -27.391  1.00  0.00    -0.144 F 
HETATM   37  F4  UNL     1       1.173  52.659 -27.190  1.00  0.00    -0.144 F 
ENDBRANCH  33  34
ENDBRANCH  30  33
ENDBRANCH   7  27
TORSDOF 6
ENDMDL
MODEL 4
REMARK minimizedAffinity -9.45387077
REMARK  6 active torsions:
REMARK  status: ('A' for Active; 'I' for Inactive)
REMARK       I    between atoms: C1_2  and  N1_3 
REMARK       I    between atoms: C1_2  and  N2_12 
REMARK    1  A    between atoms: N1_3  and  C2_4 
REMARK    2  A    between atoms: C2_4  and  C3_5 
REMARK    3  A    between atoms: N2_12  and  C9_13 
REMARK    4  A    between atoms: C12_19  and  C13_20 
REMARK    5  A    between atoms: C16_23  and  O2_24 
REMARK    6  A    between atoms: O2_24  and  C17_25 
ROOT
HETATM    1  C9  UNL     1       0.747  52.882 -19.273  1.00  0.00     0.111 A 
HETATM    2  C10 UNL     1       1.361  53.767 -20.157  1.00  0.00     0.080 A 
HETATM    3  C11 UNL     1       1.019  53.611 -21.500  1.00  0.00     0.065 A 
HETATM    4  N3  UNL     1       1.421  54.264 -22.631  1.00  0.00    -0.299 N 
HETATM    5  N4  UNL     1       0.865  53.802 -23.760  1.00  0.00    -0.299 N 
ATOM      6  H4  UNL     1       1.029  54.124 -24.714  1.00  0.00     0.187 HD
HETATM    7  C12 UNL     1       0.042  52.820 -23.353  1.00  0.00     0.072 A 
HETATM    8  C20 UNL     1       0.118  52.649 -21.937  1.00  0.00     0.036 A 
HETATM    9  C21 UNL     1      -0.446  51.801 -20.983  1.00  0.00     0.105 A 
HETATM   10  N5  UNL     1      -0.129  51.942 -19.671  1.00  0.00    -0.351 N 
ATOM     11  H5  UNL     1      -0.561  51.329 -18.979  1.00  0.00     0.166 HD
HETATM   12  H10 UNL     1       2.081  55.030 -22.704  1.00  0.00     0.187 HD
ENDROOT
BRANCH   1  13
HETATM   13  N2  UNL     1       1.067  53.025 -17.917  1.00  0.00    -0.295 N 
HETATM   14  C1  UNL     1       1.043  52.020 -16.977  1.00  0.00     0.322 C 
HETATM   15  O1  UNL     1       0.847  50.828 -17.165  1.00  0.00    -0.247 OA
HETATM   16  N1  UNL     1       1.312  52.534 -15.719  1.00  0.00    -0.339 N 
HETATM   17  H1  UNL     1       1.003  53.481 -15.562  1.00  0.00     0.164 HD
HETATM   18  H8  UNL     1       1.488  53.890 -17.628  1.00  0.00     0.172 HD
BRANCH  16  19
HETATM   19  C2  UNL     1       1.274  51.673 -14.555  1.00  0.00     0.162 C 
BRANCH  19  20
HETATM   20  C3  UNL     1       0.063  51.967 -13.702  1.00  0.00    -0.040 A 
HETATM   21  C4  UNL     1      -1.204  51.483 -14.065  1.00  0.00     0.012 A 
HETATM   22  C5  UNL     1      -2.314  51.741 -13.260  1.00  0.00     0.043 A 
HETATM   23  C6  UNL     1      -2.158  52.477 -12.091  1.00  0.00     0.116 A 
HETATM   24  F1  UNL     1      -3.225  52.720 -11.319  1.00  0.00    -0.206 F 
HETATM   25  C7  UNL     1      -0.913  52.960 -11.711  1.00  0.00     0.043 A 
HETATM   26  C8  UNL     1       0.199  52.704 -12.515  1.00  0.00     0.012 A 
ENDBRANCH  19  20
ENDBRANCH  16  19
ENDBRANCH   1  13
BRANCH   7  27
HETATM   27  C13 UNL     1      -0.768  52.076 -24.318  1.00  0.00    -0.007 A 
HETATM   28  C14 UNL     1      -2.161  52.014 -24.204  1.00  0.00     0.016 A 
HETATM   29  C15 UNL     1      -2.914  51.291 -25.134  1.00  0.00     0.038 A 
HETATM   30  C16 UNL     1      -2.296  50.621 -26.194  1.00  0.00     0.078 A 
HETATM   31  C18 UNL     1      -0.909  50.692 -26.322  1.00  0.00     0.038 A 
HETATM   32  C19 UNL     1      -0.153  51.417 -25.392  1.00  0.00     0.016 A 
BRANCH  30  33
HETATM   33  O2  UNL     1      -3.156  49.956 -27.020  1.00  0.00    -0.255 OA
BRANCH  33  34
HETATM   34  C17 UNL     1      -3.378  48.578 -26.770  1.00  0.00     0.530 C 
HETATM   35  F2  UNL     1      -3.616  47.905 -27.916  1.00  0.00    -0.144 F 
HETATM   36  F3  UNL     1      -4.408  48.396 -25.917  1.00  0.00    -0.144 F 
HETATM   37  F4  UNL     1      -2.267  48.057 -26.203  1.00  0.00    -0.144 F 
ENDBRANCH  33  34
ENDBRANCH  30  33
ENDBRANCH   7  27
TORSDOF 6
ENDMDL
MODEL 5
REMARK minimizedAffinity -9.32397842
REMARK  6 active torsions:
REMARK  status: ('A' for Active; 'I' for Inactive)
REMARK       I    between atoms: C1_2  and  N1_3 
REMARK       I    between atoms: C1_2  and  N2_12 
REMARK    1  A    between atoms: N1_3  and  C2_4 
REMARK    2  A    between atoms: C2_4  and  C3_5 
REMARK    3  A    between atoms: N2_12  and  C9_13 
REMARK    4  A    between atoms: C12_19  and  C13_20 
REMARK    5  A    between atoms: C16_23  and  O2_24 
REMARK    6  A    between atoms: O2_24  and  C17_25 
ROOT
HETATM    1  C9  UNL     1      -0.322  51.117 -17.621  1.00  0.00     0.111 A 
HETATM    2  C10 UNL     1       0.425  52.288 -17.734  1.00  0.00     0.080 A 
HETATM    3  C11 UNL     1       0.634  52.747 -19.034  1.00  0.00     0.065 A 
HETATM    4  N3  UNL     1       1.315  53.822 -19.530  1.00  0.00    -0.299 N 
HETATM    5  N4  UNL     1       1.298  53.916 -20.867  1.00  0.00    -0.299 N 
ATOM      6  H4  UNL     1       1.750  54.622 -21.449  1.00  0.00     0.187 HD
HETATM    7  C12 UNL     1       0.552  52.872 -21.268  1.00  0.00     0.072 A 
HETATM    8  C20 UNL     1       0.125  52.094 -20.149  1.00  0.00     0.036 A 
HETATM    9  C21 UNL     1      -0.608  50.925 -19.944  1.00  0.00     0.105 A 
HETATM   10  N5  UNL     1      -0.827  50.467 -18.685  1.00  0.00    -0.351 N 
ATOM     11  H5  UNL     1      -1.379  49.621 -18.544  1.00  0.00     0.166 HD
HETATM   12  H10 UNL     1       1.824  54.528 -19.009  1.00  0.00     0.187 HD
ENDROOT
BRANCH   1  13
HETATM   13  N2  UNL     1      -0.555  50.643 -16.323  1.00  0.00    -0.295 N 
HETATM   14  C1  UNL     1      -1.774  50.249 -15.821  1.00  0.00     0.322 C 
HETATM   15  O1  UNL     1      -2.831  50.142 -16.426  1.00  0.00    -0.247 OA
HETATM   16  N1  UNL     1      -1.659  49.938 -14.475  1.00  0.00    -0.339 N 
HETATM   17  H1  UNL     1      -0.965  50.463 -13.966  1.00  0.00     0.164 HD
HETATM   18  H8  UNL     1       0.247  50.432 -15.756  1.00  0.00     0.172 HD
BRANCH  16  19
HETATM   19  C2  UNL     1      -2.830  49.562 -13.711  1.00  0.00     0.162 C 
BRANCH  19  20
HETATM   20  C3  UNL     1      -3.261  50.681 -12.794  1.00  0.00    -0.040 A 
HETATM   21  C4  UNL     1      -3.179  52.019 -13.209  1.00  0.00     0.012 A 
HETATM   22  C5  UNL     1      -3.599  53.047 -12.363  1.00  0.00     0.043 A 
HETATM   23  C6  UNL     1      -4.108  52.738 -11.108  1.00  0.00     0.116 A 
HETATM   24  F1  UNL     1      -4.514  53.726 -10.300  1.00  0.00    -0.206 F 
HETATM   25  C7  UNL     1      -4.205  51.420 -10.680  1.00  0.00     0.043 A 
HETATM   26  C8  UNL     1      -3.784  50.391 -11.523  1.00  0.00     0.012 A 
ENDBRANCH  19  20
ENDBRANCH  16  19
ENDBRANCH   1  13
BRANCH   7  27
HETATM   27  C13 UNL     1       0.287  52.647 -22.689  1.00  0.00    -0.007 A 
HETATM   28  C14 UNL     1      -0.433  51.530 -23.127  1.00  0.00     0.016 A 
HETATM   29  C15 UNL     1      -0.667  51.332 -24.491  1.00  0.00     0.038 A 
HETATM   30  C16 UNL     1      -0.194  52.240 -25.441  1.00  0.00     0.078 A 
HETATM   31  C18 UNL     1       0.511  53.363 -25.010  1.00  0.00     0.038 A 
HETATM   32  C19 UNL     1       0.746  53.565 -23.644  1.00  0.00     0.016 A 
BRANCH  30  33
HETATM   33  O2  UNL     1      -0.496  51.915 -26.732  1.00  0.00    -0.255 OA
BRANCH  33  34
HETATM   34  C17 UNL     1       0.392  52.353 -27.748  1.00  0.00     0.530 C 
HETATM   35  F2  UNL     1       1.678  52.249 -27.353  1.00  0.00    -0.144 F 
HETATM   36  F3  UNL     1       0.132  53.629 -28.107  1.00  0.00    -0.144 F 
HETATM   37  F4  UNL     1       0.224  51.569 -28.836  1.00  0.00    -0.144 F 
ENDBRANCH  33  34
ENDBRANCH  30  33
ENDBRANCH   7  27
TORSDOF 6
ENDMDL
MODEL 6
REMARK minimizedAffinity -9.30204678
REMARK  6 active torsions:
REMARK  status: ('A' for Active; 'I' for Inactive)
REMARK       I    between atoms: C1_2  and  N1_3 
REMARK       I    between atoms: C1_2  and  N2_12 
REMARK    1  A    between atoms: N1_3  and  C2_4 
REMARK    2  A    between atoms: C2_4  and  C3_5 
REMARK    3  A    between atoms: N2_12  and  C9_13 
REMARK    4  A    between atoms: C12_19  and  C13_20 
REMARK    5  A    between atoms: C16_23  and  O2_24 
REMARK    6  A    between atoms: O2_24  and  C17_25 
ROOT
HETATM    1  C9  UNL     1      -3.387  48.662 -24.390  1.00  0.00     0.111 A 
HETATM    2  C10 UNL     1      -4.753  48.463 -24.197  1.00  0.00     0.080 A 
HETATM    3  C11 UNL     1      -5.496  48.219 -25.352  1.00  0.00     0.065 A 
HETATM    4  N3  UNL     1      -6.829  48.002 -25.558  1.00  0.00    -0.299 N 
HETATM    5  N4  UNL     1      -7.165  47.821 -26.843  1.00  0.00    -0.299 N 
ATOM      6  H4  UNL     1      -8.096  47.660 -27.228  1.00  0.00     0.187 HD
HETATM    7  C12 UNL     1      -6.000  47.897 -27.510  1.00  0.00     0.072 A 
HETATM    8  C20 UNL     1      -4.920  48.167 -26.615  1.00  0.00     0.036 A 
HETATM    9  C21 UNL     1      -3.545  48.383 -26.716  1.00  0.00     0.105 A 
HETATM   10  N5  UNL     1      -2.806  48.615 -25.602  1.00  0.00    -0.351 N 
ATOM     11  H5  UNL     1      -1.799  48.754 -25.685  1.00  0.00     0.166 HD
HETATM   12  H10 UNL     1      -7.567  47.972 -24.863  1.00  0.00     0.187 HD
ENDROOT
BRANCH   1  13
HETATM   13  N2  UNL     1      -2.619  48.897 -23.242  1.00  0.00    -0.295 N 
HETATM   14  C1  UNL     1      -2.768  49.960 -22.382  1.00  0.00     0.322 C 
HETATM   15  O1  UNL     1      -3.643  50.815 -22.397  1.00  0.00    -0.247 OA
HETATM   16  N1  UNL     1      -1.775  49.938 -21.416  1.00  0.00    -0.339 N 
HETATM   17  H1  UNL     1      -0.892  49.552 -21.711  1.00  0.00     0.164 HD
HETATM   18  H8  UNL     1      -2.006  48.163 -22.936  1.00  0.00     0.172 HD
BRANCH  16  19
HETATM   19  C2  UNL     1      -1.686  51.000 -20.436  1.00  0.00     0.162 C 
BRANCH  19  20
HETATM   20  C3  UNL     1      -0.615  51.996 -20.811  1.00  0.00    -0.040 A 
HETATM   21  C4  UNL     1      -0.195  52.128 -22.144  1.00  0.00     0.012 A 
HETATM   22  C5  UNL     1       0.781  53.066 -22.485  1.00  0.00     0.043 A 
HETATM   23  C6  UNL     1       1.332  53.874 -21.498  1.00  0.00     0.116 A 
HETATM   24  F1  UNL     1       2.265  54.775 -21.830  1.00  0.00    -0.206 F 
HETATM   25  C7  UNL     1       0.925  53.765 -20.175  1.00  0.00     0.043 A 
HETATM   26  C8  UNL     1      -0.050  52.827 -19.830  1.00  0.00     0.012 A 
ENDBRANCH  19  20
ENDBRANCH  16  19
ENDBRANCH   1  13
BRANCH   7  27
HETATM   27  C13 UNL     1      -5.960  47.728 -28.962  1.00  0.00    -0.007 A 
HETATM   28  C14 UNL     1      -6.500  46.595 -29.578  1.00  0.00     0.016 A 
HETATM   29  C15 UNL     1      -6.443  46.451 -30.968  1.00  0.00     0.038 A 
HETATM   30  C16 UNL     1      -5.851  47.433 -31.768  1.00  0.00     0.078 A 
HETATM   31  C18 UNL     1      -5.324  48.571 -31.161  1.00  0.00     0.038 A 
HETATM   32  C19 UNL     1      -5.381  48.718 -29.770  1.00  0.00     0.016 A 
BRANCH  30  33
HETATM   33  O2  UNL     1      -5.866  47.156 -33.105  1.00  0.00    -0.255 OA
BRANCH  33  34
HETATM   34  C17 UNL     1      -4.812  47.675 -33.898  1.00  0.00     0.530 C 
HETATM   35  F2  UNL     1      -5.247  48.006 -35.133  1.00  0.00    -0.144 F 
HETATM   36  F3  UNL     1      -3.795  46.792 -33.999  1.00  0.00    -0.144 F 
HETATM   37  F4  UNL     1      -4.338  48.795 -33.308  1.00  0.00    -0.144 F 
ENDBRANCH  33  34
ENDBRANCH  30  33
ENDBRANCH   7  27
TORSDOF 6
ENDMDL
MODEL 7
REMARK minimizedAffinity -9.28471565
REMARK  6 active torsions:
REMARK  status: ('A' for Active; 'I' for Inactive)
REMARK       I    between atoms: C1_2  and  N1_3 
REMARK       I    between atoms: C1_2  and  N2_12 
REMARK    1  A    between atoms: N1_3  and  C2_4 
REMARK    2  A    between atoms: C2_4  and  C3_5 
REMARK    3  A    between atoms: N2_12  and  C9_13 
REMARK    4  A    between atoms: C12_19  and  C13_20 
REMARK    5  A    between atoms: C16_23  and  O2_24 
REMARK    6  A    between atoms: O2_24  and  C17_25 
ROOT
HETATM    1  C9  UNL     1      -0.307  51.342 -17.841  1.00  0.00     0.111 A 
HETATM    2  C10 UNL     1       0.513  52.458 -17.999  1.00  0.00     0.080 A 
HETATM    3  C11 UNL     1       0.714  52.877 -19.314  1.00  0.00     0.065 A 
HETATM    4  N3  UNL     1       1.451  53.895 -19.851  1.00  0.00    -0.299 N 
HETATM    5  N4  UNL     1       1.402  53.963 -21.189  1.00  0.00    -0.299 N 
ATOM      6  H4  UNL     1       1.882  54.626 -21.798  1.00  0.00     0.187 HD
HETATM    7  C12 UNL     1       0.577  52.964 -21.548  1.00  0.00     0.072 A 
HETATM    8  C20 UNL     1       0.131  52.238 -20.401  1.00  0.00     0.036 A 
HETATM    9  C21 UNL     1      -0.671  51.124 -20.151  1.00  0.00     0.105 A 
HETATM   10  N5  UNL     1      -0.883  50.706 -18.877  1.00  0.00    -0.351 N 
ATOM     11  H5  UNL     1      -1.486  49.902 -18.703  1.00  0.00     0.166 HD
HETATM   12  H10 UNL     1       2.019  54.575 -19.360  1.00  0.00     0.187 HD
ENDROOT
BRANCH   1  13
HETATM   13  N2  UNL     1      -0.533  50.910 -16.528  1.00  0.00    -0.295 N 
HETATM   14  C1  UNL     1      -1.735  50.466 -16.026  1.00  0.00     0.322 C 
HETATM   15  O1  UNL     1      -2.774  50.272 -16.641  1.00  0.00    -0.247 OA
HETATM   16  N1  UNL     1      -1.625  50.219 -14.667  1.00  0.00    -0.339 N 
HETATM   17  H1  UNL     1      -0.972  50.805 -14.172  1.00  0.00     0.164 HD
HETATM   18  H8  UNL     1       0.270  50.771 -15.940  1.00  0.00     0.172 HD
BRANCH  16  19
HETATM   19  C2  UNL     1      -2.784  49.807 -13.904  1.00  0.00     0.162 C 
BRANCH  19  20
HETATM   20  C3  UNL     1      -3.237  50.904 -12.971  1.00  0.00    -0.040 A 
HETATM   21  C4  UNL     1      -3.471  50.638 -11.612  1.00  0.00     0.012 A 
HETATM   22  C5  UNL     1      -3.869  51.662 -10.752  1.00  0.00     0.043 A 
HETATM   23  C6  UNL     1      -4.028  52.951 -11.246  1.00  0.00     0.116 A 
HETATM   24  F1  UNL     1      -4.407  53.932 -10.417  1.00  0.00    -0.206 F 
HETATM   25  C7  UNL     1      -3.795  53.238 -12.585  1.00  0.00     0.043 A 
HETATM   26  C8  UNL     1      -3.399  52.215 -13.448  1.00  0.00     0.012 A 
ENDBRANCH  19  20
ENDBRANCH  16  19
ENDBRANCH   1  13
BRANCH   7  27
HETATM   27  C13 UNL     1       0.257  52.729 -22.956  1.00  0.00    -0.007 A 
HETATM   28  C14 UNL     1       0.555  53.679 -23.938  1.00  0.00     0.016 A 
HETATM   29  C15 UNL     1       0.234  53.436 -25.276  1.00  0.00     0.038 A 
HETATM   30  C16 UNL     1      -0.387  52.244 -25.661  1.00  0.00     0.078 A 
HETATM   31  C18 UNL     1      -0.674  51.287 -24.689  1.00  0.00     0.038 A 
HETATM   32  C19 UNL     1      -0.351  51.528 -23.348  1.00  0.00     0.016 A 
BRANCH  30  33
HETATM   33  O2  UNL     1      -0.643  52.147 -26.999  1.00  0.00    -0.255 OA
BRANCH  33  34
HETATM   34  C17 UNL     1       0.447  52.303 -27.892  1.00  0.00     0.530 C 
HETATM   35  F2  UNL     1       0.431  53.520 -28.476  1.00  0.00    -0.144 F 
HETATM   36  F3  UNL     1       0.438  51.345 -28.845  1.00  0.00    -0.144 F 
HETATM   37  F4  UNL     1       1.598  52.188 -27.194  1.00  0.00    -0.144 F 
ENDBRANCH  33  34
ENDBRANCH  30  33
ENDBRANCH   7  27
TORSDOF 6
ENDMDL
MODEL 8
REMARK minimizedAffinity -9.24220467
REMARK  6 active torsions:
REMARK  status: ('A' for Active; 'I' for Inactive)
REMARK       I    between atoms: C1_2  and  N1_3 
REMARK       I    between atoms: C1_2  and  N2_12 
REMARK    1  A    between atoms: N1_3  and  C2_4 
REMARK    2  A    between atoms: C2_4  and  C3_5 
REMARK    3  A    between atoms: N2_12  and  C9_13 
REMARK    4  A    between atoms: C12_19  and  C13_20 
REMARK    5  A    between atoms: C16_23  and  O2_24 
REMARK    6  A    between atoms: O2_24  and  C17_25 
ROOT
HETATM    1  C9  UNL     1      -2.678  49.502 -25.609  1.00  0.00     0.111 A 
HETATM    2  C10 UNL     1      -1.637  50.247 -26.159  1.00  0.00     0.080 A 
HETATM    3  C11 UNL     1      -0.890  51.000 -25.254  1.00  0.00     0.065 A 
HETATM    4  N3  UNL     1       0.168  51.848 -25.418  1.00  0.00    -0.299 N 
HETATM    5  N4  UNL     1       0.609  52.406 -24.282  1.00  0.00    -0.299 N 
ATOM      6  H4  UNL     1       1.370  53.076 -24.169  1.00  0.00     0.187 HD
HETATM    7  C12 UNL     1      -0.177  51.883 -23.324  1.00  0.00     0.072 A 
HETATM    8  C20 UNL     1      -1.150  51.005 -23.890  1.00  0.00     0.036 A 
HETATM    9  C21 UNL     1      -2.216  50.233 -23.425  1.00  0.00     0.105 A 
HETATM   10  N5  UNL     1      -2.950  49.489 -24.291  1.00  0.00    -0.351 N 
ATOM     11  H5  UNL     1      -3.715  48.913 -23.939  1.00  0.00     0.166 HD
HETATM   12  H10 UNL     1       0.635  52.098 -26.284  1.00  0.00     0.187 HD
ENDROOT
BRANCH   1  13
HETATM   13  N2  UNL     1      -3.436  48.728 -26.497  1.00  0.00    -0.295 N 
HETATM   14  C1  UNL     1      -3.826  49.111 -27.761  1.00  0.00     0.322 C 
HETATM   15  O1  UNL     1      -3.503  50.124 -28.366  1.00  0.00    -0.247 OA
HETATM   16  N1  UNL     1      -4.651  48.149 -28.319  1.00  0.00    -0.339 N 
HETATM   17  H1  UNL     1      -5.224  47.638 -27.666  1.00  0.00     0.164 HD
HETATM   18  H8  UNL     1      -3.587  47.764 -26.261  1.00  0.00     0.172 HD
BRANCH  16  19
HETATM   19  C2  UNL     1      -5.244  48.363 -29.622  1.00  0.00     0.162 C 
BRANCH  19  20
HETATM   20  C3  UNL     1      -5.536  47.051 -30.308  1.00  0.00    -0.040 A 
HETATM   21  C4  UNL     1      -6.487  46.163 -29.782  1.00  0.00     0.012 A 
HETATM   22  C5  UNL     1      -6.767  44.960 -30.433  1.00  0.00     0.043 A 
HETATM   23  C6  UNL     1      -6.101  44.648 -31.612  1.00  0.00     0.116 A 
HETATM   24  F1  UNL     1      -6.374  43.495 -32.237  1.00  0.00    -0.206 F 
HETATM   25  C7  UNL     1      -5.161  45.515 -32.154  1.00  0.00     0.043 A 
HETATM   26  C8  UNL     1      -4.879  46.717 -31.504  1.00  0.00     0.012 A 
ENDBRANCH  19  20
ENDBRANCH  16  19
ENDBRANCH   1  13
BRANCH   7  27
HETATM   27  C13 UNL     1       0.016  52.247 -21.920  1.00  0.00    -0.007 A 
HETATM   28  C14 UNL     1      -0.749  51.663 -20.906  1.00  0.00     0.016 A 
HETATM   29  C15 UNL     1      -0.552  52.032 -19.571  1.00  0.00     0.038 A 
HETATM   30  C16 UNL     1       0.409  52.985 -19.223  1.00  0.00     0.078 A 
HETATM   31  C18 UNL     1       1.185  53.560 -20.229  1.00  0.00     0.038 A 
HETATM   32  C19 UNL     1       0.991  53.191 -21.566  1.00  0.00     0.016 A 
BRANCH  30  33
HETATM   33  O2  UNL     1       0.487  53.246 -17.886  1.00  0.00    -0.255 OA
BRANCH  33  34
HETATM   34  C17 UNL     1       1.346  52.433 -17.103  1.00  0.00     0.530 C 
HETATM   35  F2  UNL     1       2.643  52.696 -17.367  1.00  0.00    -0.144 F 
HETATM   36  F3  UNL     1       1.099  51.122 -17.309  1.00  0.00    -0.144 F 
HETATM   37  F4  UNL     1       1.123  52.701 -15.797  1.00  0.00    -0.144 F 
ENDBRANCH  33  34
ENDBRANCH  30  33
ENDBRANCH   7  27
TORSDOF 6
ENDMDL
MODEL 9
REMARK minimizedAffinity -9.18118858
REMARK  6 active torsions:
REMARK  status: ('A' for Active; 'I' for Inactive)
REMARK       I    between atoms: C1_2  and  N1_3 
REMARK       I    between atoms: C1_2  and  N2_12 
REMARK    1  A    between atoms: N1_3  and  C2_4 
REMARK    2  A    between atoms: C2_4  and  C3_5 
REMARK    3  A    between atoms: N2_12  and  C9_13 
REMARK    4  A    between atoms: C12_19  and  C13_20 
REMARK    5  A    between atoms: C16_23  and  O2_24 
REMARK    6  A    between atoms: O2_24  and  C17_25 
ROOT
HETATM    1  C9  UNL     1      -2.909  50.669 -26.989  1.00  0.00     0.111 A 
HETATM    2  C10 UNL     1      -1.608  51.051 -27.314  1.00  0.00     0.080 A 
HETATM    3  C11 UNL     1      -0.813  51.456 -26.241  1.00  0.00     0.065 A 
HETATM    4  N3  UNL     1       0.474  51.907 -26.173  1.00  0.00    -0.299 N 
HETATM    5  N4  UNL     1       0.883  52.219 -24.934  1.00  0.00    -0.299 N 
ATOM      6  H4  UNL     1       1.791  52.586 -24.650  1.00  0.00     0.187 HD
HETATM    7  C12 UNL     1      -0.173  51.937 -24.150  1.00  0.00     0.072 A 
HETATM    8  C20 UNL     1      -1.274  51.471 -24.931  1.00  0.00     0.036 A 
HETATM    9  C21 UNL     1      -2.592  51.077 -24.698  1.00  0.00     0.105 A 
HETATM   10  N5  UNL     1      -3.378  50.674 -25.728  1.00  0.00    -0.351 N 
ATOM     11  H5  UNL     1      -4.335  50.370 -25.545  1.00  0.00     0.166 HD
HETATM   12  H10 UNL     1       1.129  52.034 -26.936  1.00  0.00     0.187 HD
ENDROOT
BRANCH   1  13
HETATM   13  N2  UNL     1      -3.723  50.248 -28.048  1.00  0.00    -0.295 N 
HETATM   14  C1  UNL     1      -4.344  49.023 -28.143  1.00  0.00     0.322 C 
HETATM   15  O1  UNL     1      -4.387  48.141 -27.297  1.00  0.00    -0.247 OA
HETATM   16  N1  UNL     1      -4.981  48.903 -29.367  1.00  0.00    -0.339 N 
HETATM   17  H1  UNL     1      -4.544  49.391 -30.133  1.00  0.00     0.164 HD
HETATM   18  H8  UNL     1      -3.999  50.937 -28.724  1.00  0.00     0.172 HD
BRANCH  16  19
HETATM   19  C2  UNL     1      -5.648  47.669 -29.724  1.00  0.00     0.162 C 
BRANCH  19  20
HETATM   20  C3  UNL     1      -5.980  47.638 -31.197  1.00  0.00    -0.040 A 
HETATM   21  C4  UNL     1      -7.307  47.776 -31.635  1.00  0.00     0.012 A 
HETATM   22  C5  UNL     1      -7.603  47.768 -32.999  1.00  0.00     0.043 A 
HETATM   23  C6  UNL     1      -6.576  47.628 -33.924  1.00  0.00     0.116 A 
HETATM   24  F1  UNL     1      -6.863  47.623 -35.232  1.00  0.00    -0.206 F 
HETATM   25  C7  UNL     1      -5.255  47.496 -33.512  1.00  0.00     0.043 A 
HETATM   26  C8  UNL     1      -4.957  47.503 -32.149  1.00  0.00     0.012 A 
ENDBRANCH  19  20
ENDBRANCH  16  19
ENDBRANCH   1  13
BRANCH   7  27
HETATM   27  C13 UNL     1      -0.101  52.135 -22.703  1.00  0.00    -0.007 A 
HETATM   28  C14 UNL     1      -0.996  51.498 -21.837  1.00  0.00     0.016 A 
HETATM   29  C15 UNL     1      -0.913  51.708 -20.457  1.00  0.00     0.038 A 
HETATM   30  C16 UNL     1       0.062  52.551 -19.915  1.00  0.00     0.078 A 
HETATM   31  C18 UNL     1       0.966  53.176 -20.772  1.00  0.00     0.038 A 
HETATM   32  C19 UNL     1       0.885  52.966 -22.155  1.00  0.00     0.016 A 
BRANCH  30  33
HETATM   33  O2  UNL     1       0.020  52.662 -18.555  1.00  0.00    -0.255 OA
BRANCH  33  34
HETATM   34  C17 UNL     1      -0.014  51.465 -17.796  1.00  0.00     0.530 C 
HETATM   35  F2  UNL     1       0.303  50.394 -18.555  1.00  0.00    -0.144 F 
HETATM   36  F3  UNL     1      -1.228  51.276 -17.234  1.00  0.00    -0.144 F 
HETATM   37  F4  UNL     1       0.898  51.557 -16.802  1.00  0.00    -0.144 F 
ENDBRANCH  33  34
ENDBRANCH  30  33
ENDBRANCH   7  27
TORSDOF 6
ENDMDL
