MODEL 1
REMARK minimizedAffinity -9.57357883
REMARK  5 active torsions:
REMARK  status: ('A' for Active; 'I' for Inactive)
REMARK    1  A    between atoms: O1_2  and  C2_3 
REMARK    2  A    between atoms: C2_3  and  C3_4 
REMARK    3  A    between atoms: C3_4  and  N1_5 
REMARK    4  A    between atoms: C3_4  and  C17_31 
REMARK       I    between atoms: N1_5  and  C4_6 
REMARK       I    between atoms: C4_6  and  N2_8 
REMARK    5  A    between atoms: N2_8  and  C5_9 
ROOT
HETATM    1  C5  UNL     1      -3.449  49.119 -25.831  1.00  0.00     0.111 A 
HETATM    2  C6  UNL     1      -4.640  48.563 -25.379  1.00  0.00     0.080 A 
HETATM    3  C7  UNL     1      -5.480  48.066 -26.376  1.00  0.00     0.065 A 
HETATM    4  N3  UNL     1      -6.706  47.466 -26.322  1.00  0.00    -0.299 N 
HETATM    5  N4  UNL     1      -7.214  47.144 -27.522  1.00  0.00    -0.299 N 
ATOM      6  H4  UNL     1      -8.115  46.711 -27.725  1.00  0.00     0.187 HD
HETATM    7  C8  UNL     1      -6.265  47.520 -28.394  1.00  0.00     0.072 A 
HETATM    8  C9  UNL     1      -6.393  47.354 -29.822  1.00  0.00    -0.002 A 
HETATM    9  C10 UNL     1      -5.353  46.633 -30.573  1.00  0.00     0.033 A 
HETATM   10  C11 UNL     1      -5.472  46.480 -31.903  1.00  0.00     0.119 A 
HETATM   11  N5  UNL     1      -6.578  47.005 -32.564  1.00  0.00    -0.250 N 
HETATM   12  N6  UNL     1      -6.871  46.967 -33.885  1.00  0.00    -0.288 N 
ATOM     13  H6  UNL     1      -6.345  46.538 -34.646  1.00  0.00     0.188 HD
HETATM   14  C12 UNL     1      -8.024  47.634 -33.938  1.00  0.00     0.199 A 
HETATM   15  N7  UNL     1      -8.501  48.098 -32.747  1.00  0.00    -0.336 N 
ATOM     16  H7  UNL     1      -9.352  48.630 -32.566  1.00  0.00     0.168 HD
HETATM   17  C13 UNL     1      -7.590  47.690 -31.891  1.00  0.00     0.128 A 
HETATM   18  C14 UNL     1      -7.472  47.837 -30.482  1.00  0.00     0.064 A 
HETATM   19  C15 UNL     1      -5.155  48.116 -27.726  1.00  0.00     0.036 A 
HETATM   20  C16 UNL     1      -3.941  48.702 -28.091  1.00  0.00     0.105 A 
HETATM   21  N8  UNL     1      -3.105  49.192 -27.139  1.00  0.00    -0.351 N 
ATOM     22  H8  UNL     1      -2.217  49.615 -27.409  1.00  0.00     0.166 HD
HETATM   23  H10 UNL     1      -7.254  47.255 -25.495  1.00  0.00     0.187 HD
ENDROOT
BRANCH   1  24
HETATM   24  N2  UNL     1      -2.496  49.684 -24.986  1.00  0.00    -0.295 N 
HETATM   25  C4  UNL     1      -2.080  50.985 -24.916  1.00  0.00     0.322 C 
HETATM   26  N1  UNL     1      -1.063  51.127 -23.998  1.00  0.00    -0.332 N 
HETATM   27  O2  UNL     1      -2.525  51.929 -25.555  1.00  0.00    -0.247 OA
HETATM   28  H7  UNL     1      -0.442  50.331 -23.942  1.00  0.00     0.165 HD
HETATM   29  H8  UNL     1      -2.161  49.039 -24.288  1.00  0.00     0.172 HD
BRANCH  26  30
HETATM   30  C3  UNL     1      -0.375  52.406 -23.862  1.00  0.00     0.143 C 
BRANCH  30  31
HETATM   31  C2  UNL     1       0.773  52.559 -24.894  1.00  0.00     0.197 C 
BRANCH  31  32
HETATM   32  O1  UNL     1       0.593  53.743 -25.689  1.00  0.00    -0.394 OA
HETATM   33  C1  UNL     1       0.200  53.420 -27.017  1.00  0.00     0.201 C 
ENDBRANCH  31  32
ENDBRANCH  30  31
BRANCH  30  34
HETATM   34  C17 UNL     1       0.076  52.590 -22.418  1.00  0.00    -0.033 A 
HETATM   35  C18 UNL     1       1.012  53.572 -22.046  1.00  0.00     0.012 A 
HETATM   36  C19 UNL     1       1.409  53.709 -20.715  1.00  0.00     0.043 A 
HETATM   37  C20 UNL     1       0.882  52.861 -19.749  1.00  0.00     0.116 A 
HETATM   38  F1  UNL     1       1.264  52.996 -18.472  1.00  0.00    -0.206 F 
HETATM   39  C21 UNL     1      -0.031  51.875 -20.090  1.00  0.00     0.043 A 
HETATM   40  C22 UNL     1      -0.432  51.735 -21.421  1.00  0.00     0.012 A 
ENDBRANCH  30  34
ENDBRANCH  26  30
ENDBRANCH   1  24
TORSDOF 5
ENDMDL
MODEL 2
REMARK minimizedAffinity -9.18395615
REMARK  5 active torsions:
REMARK  status: ('A' for Active; 'I' for Inactive)
REMARK    1  A    between atoms: O1_2  and  C2_3 
REMARK    2  A    between atoms: C2_3  and  C3_4 
REMARK    3  A    between atoms: C3_4  and  N1_5 
REMARK    4  A    between atoms: C3_4  and  C17_31 
REMARK       I    between atoms: N1_5  and  C4_6 
REMARK       I    between atoms: C4_6  and  N2_8 
REMARK    5  A    between atoms: N2_8  and  C5_9 
ROOT
HETATM    1  C5  UNL     1      -2.758  50.550 -27.076  1.00  0.00     0.111 A 
HETATM    2  C6  UNL     1      -1.507  51.067 -27.389  1.00  0.00     0.080 A 
HETATM    3  C7  UNL     1      -0.720  51.423 -26.294  1.00  0.00     0.065 A 
HETATM    4  N3  UNL     1       0.534  51.957 -26.207  1.00  0.00    -0.299 N 
HETATM    5  N4  UNL     1       0.948  52.185 -24.950  1.00  0.00    -0.299 N 
ATOM      6  H4  UNL     1       1.832  52.593 -24.646  1.00  0.00     0.187 HD
HETATM    7  C8  UNL     1      -0.066  51.753 -24.185  1.00  0.00     0.072 A 
HETATM    8  C9  UNL     1      -0.047  51.806 -22.743  1.00  0.00    -0.002 A 
HETATM    9  C10 UNL     1      -0.285  50.583 -21.960  1.00  0.00     0.033 A 
HETATM   10  C11 UNL     1      -0.268  50.634 -20.617  1.00  0.00     0.119 A 
HETATM   11  N5  UNL     1      -0.026  51.843 -19.973  1.00  0.00    -0.250 N 
HETATM   12  N6  UNL     1       0.020  52.100 -18.644  1.00  0.00    -0.288 N 
ATOM     13  H6  UNL     1      -0.104  51.456 -17.863  1.00  0.00     0.188 HD
HETATM   14  C12 UNL     1       0.267  53.409 -18.619  1.00  0.00     0.199 A 
HETATM   15  N7  UNL     1       0.388  54.019 -19.833  1.00  0.00    -0.336 N 
ATOM     16  H7  UNL     1       0.570  55.001 -20.037  1.00  0.00     0.168 HD
HETATM   17  C13 UNL     1       0.211  53.025 -20.675  1.00  0.00     0.128 A 
HETATM   18  C14 UNL     1       0.210  52.967 -22.095  1.00  0.00     0.064 A 
HETATM   19  C15 UNL     1      -1.147  51.272 -24.981  1.00  0.00     0.036 A 
HETATM   20  C16 UNL     1      -2.425  50.753 -24.759  1.00  0.00     0.105 A 
HETATM   21  N8  UNL     1      -3.210  50.397 -25.808  1.00  0.00    -0.351 N 
ATOM     22  H8  UNL     1      -4.141  50.014 -25.641  1.00  0.00     0.166 HD
HETATM   23  H10 UNL     1       1.159  52.196 -26.970  1.00  0.00     0.187 HD
ENDROOT
BRANCH   1  24
HETATM   24  N2  UNL     1      -3.691  50.160 -28.035  1.00  0.00    -0.295 N 
HETATM   25  C4  UNL     1      -4.293  48.942 -28.196  1.00  0.00     0.322 C 
HETATM   26  N1  UNL     1      -5.100  48.936 -29.312  1.00  0.00    -0.332 N 
HETATM   27  O2  UNL     1      -4.169  47.965 -27.469  1.00  0.00    -0.247 OA
HETATM   28  H7  UNL     1      -4.755  49.501 -30.075  1.00  0.00     0.165 HD
HETATM   29  H8  UNL     1      -4.008  50.926 -28.608  1.00  0.00     0.172 HD
BRANCH  26  30
HETATM   30  C3  UNL     1      -5.731  47.697 -29.750  1.00  0.00     0.143 C 
BRANCH  30  31
HETATM   31  C2  UNL     1      -5.158  47.202 -31.103  1.00  0.00     0.197 C 
BRANCH  31  32
HETATM   32  O1  UNL     1      -4.600  48.294 -31.854  1.00  0.00    -0.394 OA
HETATM   33  C1  UNL     1      -4.612  48.022 -33.250  1.00  0.00     0.201 C 
ENDBRANCH  31  32
ENDBRANCH  30  31
BRANCH  30  34
HETATM   34  C17 UNL     1      -7.245  47.872 -29.758  1.00  0.00    -0.033 A 
HETATM   35  C18 UNL     1      -8.013  47.787 -28.582  1.00  0.00     0.012 A 
HETATM   36  C19 UNL     1      -9.400  47.945 -28.625  1.00  0.00     0.043 A 
HETATM   37  C20 UNL     1     -10.029  48.179 -29.841  1.00  0.00     0.116 A 
HETATM   38  F1  UNL     1     -11.359  48.330 -29.879  1.00  0.00    -0.206 F 
HETATM   39  C21 UNL     1      -9.297  48.253 -31.018  1.00  0.00     0.043 A 
HETATM   40  C22 UNL     1      -7.910  48.096 -30.978  1.00  0.00     0.012 A 
ENDBRANCH  30  34
ENDBRANCH  26  30
ENDBRANCH   1  24
TORSDOF 5
ENDMDL
MODEL 3
REMARK minimizedAffinity -9.12775135
REMARK  5 active torsions:
REMARK  status: ('A' for Active; 'I' for Inactive)
REMARK    1  A    between atoms: O1_2  and  C2_3 
REMARK    2  A    between atoms: C2_3  and  C3_4 
REMARK    3  A    between atoms: C3_4  and  N1_5 
REMARK    4  A    between atoms: C3_4  and  C17_31 
REMARK       I    between atoms: N1_5  and  C4_6 
REMARK       I    between atoms: C4_6  and  N2_8 
REMARK    5  A    between atoms: N2_8  and  C5_9 
ROOT
HETATM    1  C5  UNL     1      -3.592  48.944 -25.925  1.00  0.00     0.111 A 
HETATM    2  C6  UNL     1      -4.689  48.593 -25.147  1.00  0.00     0.080 A 
HETATM    3  C7  UNL     1      -5.760  48.037 -25.847  1.00  0.00     0.065 A 
HETATM    4  N3  UNL     1      -6.982  47.585 -25.437  1.00  0.00    -0.299 N 
HETATM    5  N4  UNL     1      -7.763  47.135 -26.432  1.00  0.00    -0.299 N 
ATOM      6  H4  UNL     1      -8.714  46.772 -26.366  1.00  0.00     0.187 HD
HETATM    7  C8  UNL     1      -7.007  47.269 -27.533  1.00  0.00     0.072 A 
HETATM    8  C9  UNL     1      -7.458  46.897 -28.852  1.00  0.00    -0.002 A 
HETATM    9  C10 UNL     1      -6.662  45.963 -29.664  1.00  0.00     0.033 A 
HETATM   10  C11 UNL     1      -7.082  45.618 -30.892  1.00  0.00     0.119 A 
HETATM   11  N5  UNL     1      -8.268  46.146 -31.392  1.00  0.00    -0.250 N 
HETATM   12  N6  UNL     1      -8.848  45.934 -32.597  1.00  0.00    -0.288 N 
ATOM     13  H6  UNL     1      -8.533  45.339 -33.364  1.00  0.00     0.188 HD
HETATM   14  C12 UNL     1      -9.935  46.701 -32.526  1.00  0.00     0.199 A 
HETATM   15  N7  UNL     1     -10.104  47.393 -31.363  1.00  0.00    -0.336 N 
ATOM     16  H7  UNL     1     -10.856  48.032 -31.105  1.00  0.00     0.168 HD
HETATM   17  C13 UNL     1      -9.057  47.030 -30.655  1.00  0.00     0.128 A 
HETATM   18  C14 UNL     1      -8.621  47.381 -29.349  1.00  0.00     0.064 A 
HETATM   19  C15 UNL     1      -5.739  47.843 -27.222  1.00  0.00     0.036 A 
HETATM   20  C16 UNL     1      -4.598  48.234 -27.926  1.00  0.00     0.105 A 
HETATM   21  N8  UNL     1      -3.540  48.776 -27.268  1.00  0.00    -0.351 N 
ATOM     22  H8  UNL     1      -2.707  49.057 -27.785  1.00  0.00     0.166 HD
HETATM   23  H10 UNL     1      -7.347  47.563 -24.491  1.00  0.00     0.187 HD
ENDROOT
BRANCH   1  24
HETATM   24  N2  UNL     1      -2.439  49.531 -25.407  1.00  0.00    -0.295 N 
HETATM   25  C4  UNL     1      -2.159  50.858 -25.234  1.00  0.00     0.322 C 
HETATM   26  N1  UNL     1      -0.877  51.033 -24.761  1.00  0.00    -0.332 N 
HETATM   27  O2  UNL     1      -2.914  51.798 -25.448  1.00  0.00    -0.247 OA
HETATM   28  H7  UNL     1      -0.212  50.356 -25.108  1.00  0.00     0.165 HD
HETATM   29  H8  UNL     1      -1.789  48.855 -25.036  1.00  0.00     0.172 HD
BRANCH  26  30
HETATM   30  C3  UNL     1      -0.321  52.376 -24.636  1.00  0.00     0.143 C 
BRANCH  30  31
HETATM   31  C2  UNL     1       0.774  52.651 -25.698  1.00  0.00     0.197 C 
BRANCH  31  32
HETATM   32  O1  UNL     1       0.450  53.814 -26.480  1.00  0.00    -0.394 OA
HETATM   33  C1  UNL     1      -0.350  53.474 -27.605  1.00  0.00     0.201 C 
ENDBRANCH  31  32
ENDBRANCH  30  31
BRANCH  30  34
HETATM   34  C17 UNL     1       0.149  52.600 -23.204  1.00  0.00    -0.033 A 
HETATM   35  C18 UNL     1       0.967  53.687 -22.847  1.00  0.00     0.012 A 
HETATM   36  C19 UNL     1       1.386  53.859 -21.526  1.00  0.00     0.043 A 
HETATM   37  C20 UNL     1       1.001  52.943 -20.556  1.00  0.00     0.116 A 
HETATM   38  F1  UNL     1       1.404  53.111 -19.291  1.00  0.00    -0.206 F 
HETATM   39  C21 UNL     1       0.206  51.853 -20.884  1.00  0.00     0.043 A 
HETATM   40  C22 UNL     1      -0.216  51.679 -22.203  1.00  0.00     0.012 A 
ENDBRANCH  30  34
ENDBRANCH  26  30
ENDBRANCH   1  24
TORSDOF 5
ENDMDL
MODEL 4
REMARK minimizedAffinity -9.12599277
REMARK  5 active torsions:
REMARK  status: ('A' for Active; 'I' for Inactive)
REMARK    1  A    between atoms: O1_2  and  C2_3 
REMARK    2  A    between atoms: C2_3  and  C3_4 
REMARK    3  A    between atoms: C3_4  and  N1_5 
REMARK    4  A    between atoms: C3_4  and  C17_31 
REMARK       I    between atoms: N1_5  and  C4_6 
REMARK       I    between atoms: C4_6  and  N2_8 
REMARK    5  A    between atoms: N2_8  and  C5_9 
ROOT
HETATM    1  C5  UNL     1       0.580  52.809 -19.005  1.00  0.00     0.111 A 
HETATM    2  C6  UNL     1       1.214  53.358 -20.113  1.00  0.00     0.080 A 
HETATM    3  C7  UNL     1       0.629  53.057 -21.343  1.00  0.00     0.065 A 
HETATM    4  N3  UNL     1       0.963  53.402 -22.621  1.00  0.00    -0.299 N 
HETATM    5  N4  UNL     1       0.152  52.887 -23.560  1.00  0.00    -0.299 N 
ATOM      6  H4  UNL     1       0.220  52.992 -24.572  1.00  0.00     0.187 HD
HETATM    7  C8  UNL     1      -0.768  52.202 -22.861  1.00  0.00     0.072 A 
HETATM    8  C9  UNL     1      -1.853  51.480 -23.479  1.00  0.00    -0.002 A 
HETATM    9  C10 UNL     1      -3.241  51.755 -23.077  1.00  0.00     0.033 A 
HETATM   10  C11 UNL     1      -4.251  51.080 -23.652  1.00  0.00     0.119 A 
HETATM   11  N5  UNL     1      -3.979  50.125 -24.626  1.00  0.00    -0.250 N 
HETATM   12  N6  UNL     1      -4.847  49.340 -25.308  1.00  0.00    -0.288 N 
ATOM     13  H6  UNL     1      -5.865  49.307 -25.246  1.00  0.00     0.188 HD
HETATM   14  C12 UNL     1      -4.032  48.622 -26.080  1.00  0.00     0.199 A 
HETATM   15  N7  UNL     1      -2.700  48.886 -25.951  1.00  0.00    -0.336 N 
ATOM     16  H7  UNL     1      -1.915  48.453 -26.437  1.00  0.00     0.168 HD
HETATM   17  C13 UNL     1      -2.679  49.836 -25.043  1.00  0.00     0.128 A 
HETATM   18  C14 UNL     1      -1.613  50.562 -24.446  1.00  0.00     0.064 A 
HETATM   19  C15 UNL     1      -0.508  52.268 -21.461  1.00  0.00     0.036 A 
HETATM   20  C16 UNL     1      -1.075  51.749 -20.294  1.00  0.00     0.105 A 
HETATM   21  N8  UNL     1      -0.525  52.030 -19.084  1.00  0.00    -0.351 N 
ATOM     22  H8  UNL     1      -0.945  51.653 -18.234  1.00  0.00     0.166 HD
HETATM   23  H10 UNL     1       1.739  53.983 -22.922  1.00  0.00     0.187 HD
ENDROOT
BRANCH   1  24
HETATM   24  N2  UNL     1       1.030  52.982 -17.698  1.00  0.00    -0.295 N 
HETATM   25  C4  UNL     1       1.136  52.053 -16.700  1.00  0.00     0.322 C 
HETATM   26  N1  UNL     1       1.554  52.637 -15.525  1.00  0.00    -0.332 N 
HETATM   27  O2  UNL     1       0.911  50.853 -16.793  1.00  0.00    -0.247 OA
HETATM   28  H7  UNL     1       1.211  53.578 -15.387  1.00  0.00     0.165 HD
HETATM   29  H8  UNL     1       1.405  53.903 -17.531  1.00  0.00     0.172 HD
BRANCH  26  30
HETATM   30  C3  UNL     1       1.602  51.854 -14.296  1.00  0.00     0.143 C 
BRANCH  30  31
HETATM   31  C2  UNL     1       1.879  50.354 -14.575  1.00  0.00     0.197 C 
BRANCH  31  32
HETATM   32  O1  UNL     1       2.688  49.779 -13.534  1.00  0.00    -0.394 OA
HETATM   33  C1  UNL     1       4.071  50.023 -13.760  1.00  0.00     0.201 C 
ENDBRANCH  31  32
ENDBRANCH  30  31
BRANCH  30  34
HETATM   34  C17 UNL     1       0.334  52.098 -13.487  1.00  0.00    -0.033 A 
HETATM   35  C18 UNL     1       0.336  52.860 -12.305  1.00  0.00     0.012 A 
HETATM   36  C19 UNL     1      -0.843  53.058 -11.583  1.00  0.00     0.043 A 
HETATM   37  C20 UNL     1      -2.028  52.491 -12.032  1.00  0.00     0.116 A 
HETATM   38  F1  UNL     1      -3.157  52.683 -11.338  1.00  0.00    -0.206 F 
HETATM   39  C21 UNL     1      -2.057  51.723 -13.187  1.00  0.00     0.043 A 
HETATM   40  C22 UNL     1      -0.879  51.523 -13.912  1.00  0.00     0.012 A 
ENDBRANCH  30  34
ENDBRANCH  26  30
ENDBRANCH   1  24
TORSDOF 5
ENDMDL
MODEL 5
REMARK minimizedAffinity -9.00397301
REMARK  5 active torsions:
REMARK  status: ('A' for Active; 'I' for Inactive)
REMARK    1  A    between atoms: O1_2  and  C2_3 
REMARK    2  A    between atoms: C2_3  and  C3_4 
REMARK    3  A    between atoms: C3_4  and  N1_5 
REMARK    4  A    between atoms: C3_4  and  C17_31 
REMARK       I    between atoms: N1_5  and  C4_6 
REMARK       I    between atoms: C4_6  and  N2_8 
REMARK    5  A    between atoms: N2_8  and  C5_9 
ROOT
HETATM    1  C5  UNL     1      -0.729  52.257 -20.842  1.00  0.00     0.111 A 
HETATM    2  C6  UNL     1       0.302  53.011 -20.297  1.00  0.00     0.080 A 
HETATM    3  C7  UNL     1       0.665  52.668 -18.994  1.00  0.00     0.065 A 
HETATM    4  N3  UNL     1       1.608  53.175 -18.146  1.00  0.00    -0.299 N 
HETATM    5  N4  UNL     1       1.639  52.583 -16.941  1.00  0.00    -0.299 N 
ATOM      6  H4  UNL     1       2.241  52.806 -16.149  1.00  0.00     0.187 HD
HETATM    7  C8  UNL     1       0.698  51.628 -17.018  1.00  0.00     0.072 A 
HETATM    8  C9  UNL     1       0.389  50.733 -15.929  1.00  0.00    -0.002 A 
HETATM    9  C10 UNL     1       0.427  49.277 -16.143  1.00  0.00     0.033 A 
HETATM   10  C11 UNL     1       0.138  48.445 -15.129  1.00  0.00     0.119 A 
HETATM   11  N5  UNL     1      -0.196  48.962 -13.881  1.00  0.00    -0.250 N 
HETATM   12  N6  UNL     1      -0.527  48.297 -12.749  1.00  0.00    -0.288 N 
ATOM     13  H6  UNL     1      -0.584  47.291 -12.591  1.00  0.00     0.188 HD
HETATM   14  C12 UNL     1      -0.759  49.292 -11.894  1.00  0.00     0.199 A 
HETATM   15  N7  UNL     1      -0.599  50.554 -12.387  1.00  0.00    -0.336 N 
ATOM     16  H7  UNL     1      -0.729  51.446 -11.910  1.00  0.00     0.168 HD
HETATM   17  C13 UNL     1      -0.238  50.335 -13.632  1.00  0.00     0.128 A 
HETATM   18  C14 UNL     1       0.085  51.215 -14.701  1.00  0.00     0.064 A 
HETATM   19  C15 UNL     1       0.047  51.646 -18.286  1.00  0.00     0.036 A 
HETATM   20  C16 UNL     1      -0.989  50.945 -18.909  1.00  0.00     0.105 A 
HETATM   21  N8  UNL     1      -1.360  51.258 -20.178  1.00  0.00    -0.351 N 
ATOM     22  H8  UNL     1      -2.113  50.741 -20.631  1.00  0.00     0.166 HD
HETATM   23  H10 UNL     1       2.260  53.932 -18.327  1.00  0.00     0.187 HD
ENDROOT
BRANCH   1  24
HETATM   24  N2  UNL     1      -1.241  52.466 -22.121  1.00  0.00    -0.295 N 
HETATM   25  C4  UNL     1      -1.401  51.563 -23.136  1.00  0.00     0.322 C 
HETATM   26  N1  UNL     1      -1.873  52.181 -24.273  1.00  0.00    -0.332 N 
HETATM   27  O2  UNL     1      -1.177  50.361 -23.085  1.00  0.00    -0.247 OA
HETATM   28  H7  UNL     1      -1.533  53.123 -24.403  1.00  0.00     0.165 HD
HETATM   29  H8  UNL     1      -1.620  53.392 -22.244  1.00  0.00     0.172 HD
BRANCH  26  30
HETATM   30  C3  UNL     1      -1.985  51.430 -25.519  1.00  0.00     0.143 C 
BRANCH  30  31
HETATM   31  C2  UNL     1      -2.418  49.962 -25.274  1.00  0.00     0.197 C 
BRANCH  31  32
HETATM   32  O1  UNL     1      -3.473  49.581 -26.174  1.00  0.00    -0.394 OA
HETATM   33  C1  UNL     1      -4.099  48.375 -25.757  1.00  0.00     0.201 C 
ENDBRANCH  31  32
ENDBRANCH  30  31
BRANCH  30  34
HETATM   34  C17 UNL     1      -0.687  51.559 -26.308  1.00  0.00    -0.033 A 
HETATM   35  C18 UNL     1      -0.676  51.747 -27.702  1.00  0.00     0.012 A 
HETATM   36  C19 UNL     1       0.531  51.853 -28.396  1.00  0.00     0.043 A 
HETATM   37  C20 UNL     1       1.733  51.763 -27.706  1.00  0.00     0.116 A 
HETATM   38  F1  UNL     1       2.888  51.866 -28.374  1.00  0.00    -0.206 F 
HETATM   39  C21 UNL     1       1.750  51.563 -26.333  1.00  0.00     0.043 A 
HETATM   40  C22 UNL     1       0.545  51.458 -25.635  1.00  0.00     0.012 A 
ENDBRANCH  30  34
ENDBRANCH  26  30
ENDBRANCH   1  24
TORSDOF 5
ENDMDL
MODEL 6
REMARK minimizedAffinity -8.97809219
REMARK  5 active torsions:
REMARK  status: ('A' for Active; 'I' for Inactive)
REMARK    1  A    between atoms: O1_2  and  C2_3 
REMARK    2  A    between atoms: C2_3  and  C3_4 
REMARK    3  A    between atoms: C3_4  and  N1_5 
REMARK    4  A    between atoms: C3_4  and  C17_31 
REMARK       I    between atoms: N1_5  and  C4_6 
REMARK       I    between atoms: C4_6  and  N2_8 
REMARK    5  A    between atoms: N2_8  and  C5_9 
ROOT
HETATM    1  C5  UNL     1      -3.411  49.123 -25.740  1.00  0.00     0.111 A 
HETATM    2  C6  UNL     1      -3.386  48.946 -27.118  1.00  0.00     0.080 A 
HETATM    3  C7  UNL     1      -4.524  48.352 -27.662  1.00  0.00     0.065 A 
HETATM    4  N3  UNL     1      -4.856  48.019 -28.945  1.00  0.00    -0.299 N 
HETATM    5  N4  UNL     1      -6.056  47.428 -29.067  1.00  0.00    -0.299 N 
ATOM      6  H4  UNL     1      -6.498  47.079 -29.917  1.00  0.00     0.187 HD
HETATM    7  C8  UNL     1      -6.540  47.403 -27.815  1.00  0.00     0.072 A 
HETATM    8  C9  UNL     1      -7.828  46.848 -27.477  1.00  0.00    -0.002 A 
HETATM    9  C10 UNL     1      -8.811  47.665 -26.746  1.00  0.00     0.033 A 
HETATM   10  C11 UNL     1     -10.010  47.147 -26.430  1.00  0.00     0.119 A 
HETATM   11  N5  UNL     1     -10.317  45.840 -26.796  1.00  0.00    -0.250 N 
HETATM   12  N6  UNL     1     -11.453  45.141 -26.563  1.00  0.00    -0.288 N 
ATOM     13  H6  UNL     1     -12.303  45.441 -26.086  1.00  0.00     0.188 HD
HETATM   14  C12 UNL     1     -11.177  43.961 -27.117  1.00  0.00     0.199 A 
HETATM   15  N7  UNL     1      -9.947  43.845 -27.694  1.00  0.00    -0.336 N 
ATOM     16  H7  UNL     1      -9.537  43.038 -28.164  1.00  0.00     0.168 HD
HETATM   17  C13 UNL     1      -9.420  45.032 -27.495  1.00  0.00     0.128 A 
HETATM   18  C14 UNL     1      -8.158  45.587 -27.843  1.00  0.00     0.064 A 
HETATM   19  C15 UNL     1      -5.611  47.963 -26.890  1.00  0.00     0.036 A 
HETATM   20  C16 UNL     1      -5.546  48.169 -25.509  1.00  0.00     0.105 A 
HETATM   21  N8  UNL     1      -4.449  48.748 -24.955  1.00  0.00    -0.351 N 
ATOM     22  H8  UNL     1      -4.408  48.901 -23.948  1.00  0.00     0.166 HD
HETATM   23  H10 UNL     1      -4.303  48.163 -29.783  1.00  0.00     0.187 HD
ENDROOT
BRANCH   1  24
HETATM   24  N2  UNL     1      -2.358  49.680 -25.017  1.00  0.00    -0.295 N 
HETATM   25  C4  UNL     1      -2.043  50.999 -24.846  1.00  0.00     0.322 C 
HETATM   26  N1  UNL     1      -0.878  51.137 -24.122  1.00  0.00    -0.332 N 
HETATM   27  O2  UNL     1      -2.681  51.962 -25.252  1.00  0.00    -0.247 OA
HETATM   28  H7  UNL     1      -0.197  50.411 -24.294  1.00  0.00     0.165 HD
HETATM   29  H8  UNL     1      -1.839  48.994 -24.490  1.00  0.00     0.172 HD
BRANCH  26  30
HETATM   30  C3  UNL     1      -0.283  52.456 -23.940  1.00  0.00     0.143 C 
BRANCH  30  31
HETATM   31  C2  UNL     1       0.861  52.720 -24.952  1.00  0.00     0.197 C 
BRANCH  31  32
HETATM   32  O1  UNL     1       0.608  53.916 -25.711  1.00  0.00    -0.394 OA
HETATM   33  C1  UNL     1       0.023  53.615 -26.971  1.00  0.00     0.201 C 
ENDBRANCH  31  32
ENDBRANCH  30  31
BRANCH  30  34
HETATM   34  C17 UNL     1       0.139  52.626 -22.485  1.00  0.00    -0.033 A 
HETATM   35  C18 UNL     1       1.026  53.640 -22.078  1.00  0.00     0.012 A 
HETATM   36  C19 UNL     1       1.398  53.763 -20.738  1.00  0.00     0.043 A 
HETATM   37  C20 UNL     1       0.897  52.871 -19.799  1.00  0.00     0.116 A 
HETATM   38  F1  UNL     1       1.256  52.993 -18.515  1.00  0.00    -0.206 F 
HETATM   39  C21 UNL     1       0.032  51.854 -20.176  1.00  0.00     0.043 A 
HETATM   40  C22 UNL     1      -0.343  51.728 -21.515  1.00  0.00     0.012 A 
ENDBRANCH  30  34
ENDBRANCH  26  30
ENDBRANCH   1  24
TORSDOF 5
ENDMDL
MODEL 7
REMARK minimizedAffinity -8.92858601
REMARK  5 active torsions:
REMARK  status: ('A' for Active; 'I' for Inactive)
REMARK    1  A    between atoms: O1_2  and  C2_3 
REMARK    2  A    between atoms: C2_3  and  C3_4 
REMARK    3  A    between atoms: C3_4  and  N1_5 
REMARK    4  A    between atoms: C3_4  and  C17_31 
REMARK       I    between atoms: N1_5  and  C4_6 
REMARK       I    between atoms: C4_6  and  N2_8 
REMARK    5  A    between atoms: N2_8  and  C5_9 
ROOT
HETATM    1  C5  UNL     1       0.284  51.886 -18.855  1.00  0.00     0.111 A 
HETATM    2  C6  UNL     1       1.000  53.033 -19.173  1.00  0.00     0.080 A 
HETATM    3  C7  UNL     1       1.018  53.367 -20.527  1.00  0.00     0.065 A 
HETATM    4  N3  UNL     1       1.607  54.395 -21.206  1.00  0.00    -0.299 N 
HETATM    5  N4  UNL     1       1.411  54.361 -22.534  1.00  0.00    -0.299 N 
ATOM      6  H4  UNL     1       1.770  55.007 -23.237  1.00  0.00     0.187 HD
HETATM    7  C8  UNL     1       0.636  53.282 -22.726  1.00  0.00     0.072 A 
HETATM    8  C9  UNL     1       0.172  52.862 -24.026  1.00  0.00    -0.002 A 
HETATM    9  C10 UNL     1      -1.267  52.670 -24.266  1.00  0.00     0.033 A 
HETATM   10  C11 UNL     1      -1.698  52.278 -25.477  1.00  0.00     0.119 A 
HETATM   11  N5  UNL     1      -0.780  52.056 -26.499  1.00  0.00    -0.250 N 
HETATM   12  N6  UNL     1      -1.011  51.651 -27.770  1.00  0.00    -0.288 N 
ATOM     13  H6  UNL     1      -1.900  51.442 -28.225  1.00  0.00     0.188 HD
HETATM   14  C12 UNL     1       0.220  51.594 -28.277  1.00  0.00     0.199 A 
HETATM   15  N7  UNL     1       1.232  51.936 -27.428  1.00  0.00    -0.336 N 
ATOM     16  H7  UNL     1       2.235  51.956 -27.609  1.00  0.00     0.168 HD
HETATM   17  C13 UNL     1       0.592  52.232 -26.319  1.00  0.00     0.128 A 
HETATM   18  C14 UNL     1       1.045  52.663 -25.042  1.00  0.00     0.064 A 
HETATM   19  C15 UNL     1       0.367  52.614 -21.495  1.00  0.00     0.036 A 
HETATM   20  C16 UNL     1      -0.322  51.469 -21.087  1.00  0.00     0.105 A 
HETATM   21  N8  UNL     1      -0.356  51.123 -19.774  1.00  0.00    -0.351 N 
ATOM     22  H8  UNL     1      -0.864  50.289 -19.479  1.00  0.00     0.166 HD
HETATM   23  H10 UNL     1       2.163  55.152 -20.821  1.00  0.00     0.187 HD
ENDROOT
BRANCH   1  24
HETATM   24  N2  UNL     1       0.171  51.384 -17.560  1.00  0.00    -0.295 N 
HETATM   25  C4  UNL     1       0.696  51.885 -16.401  1.00  0.00     0.322 C 
HETATM   26  N1  UNL     1       0.420  51.054 -15.337  1.00  0.00    -0.332 N 
HETATM   27  O2  UNL     1       1.325  52.927 -16.275  1.00  0.00    -0.247 OA
HETATM   28  H7  UNL     1       0.404  50.072 -15.573  1.00  0.00     0.165 HD
HETATM   29  H8  UNL     1      -0.466  50.605 -17.497  1.00  0.00     0.172 HD
BRANCH  26  30
HETATM   30  C3  UNL     1       1.004  51.325 -14.028  1.00  0.00     0.143 C 
BRANCH  30  31
HETATM   31  C2  UNL     1       1.709  50.075 -13.439  1.00  0.00     0.197 C 
BRANCH  31  32
HETATM   32  O1  UNL     1       2.998  50.419 -12.901  1.00  0.00    -0.394 OA
HETATM   33  C1  UNL     1       4.048  49.948 -13.736  1.00  0.00     0.201 C 
ENDBRANCH  31  32
ENDBRANCH  30  31
BRANCH  30  34
HETATM   34  C17 UNL     1      -0.059  51.915 -13.110  1.00  0.00    -0.033 A 
HETATM   35  C18 UNL     1       0.258  52.840 -12.098  1.00  0.00     0.012 A 
HETATM   36  C19 UNL     1      -0.740  53.355 -11.268  1.00  0.00     0.043 A 
HETATM   37  C20 UNL     1      -2.056  52.945 -11.436  1.00  0.00     0.116 A 
HETATM   38  F1  UNL     1      -3.010  53.443 -10.639  1.00  0.00    -0.206 F 
HETATM   39  C21 UNL     1      -2.394  52.024 -12.417  1.00  0.00     0.043 A 
HETATM   40  C22 UNL     1      -1.399  51.507 -13.249  1.00  0.00     0.012 A 
ENDBRANCH  30  34
ENDBRANCH  26  30
ENDBRANCH   1  24
TORSDOF 5
ENDMDL
MODEL 8
REMARK minimizedAffinity -8.88659286
REMARK  5 active torsions:
REMARK  status: ('A' for Active; 'I' for Inactive)
REMARK    1  A    between atoms: O1_2  and  C2_3 
REMARK    2  A    between atoms: C2_3  and  C3_4 
REMARK    3  A    between atoms: C3_4  and  N1_5 
REMARK    4  A    between atoms: C3_4  and  C17_31 
REMARK       I    between atoms: N1_5  and  C4_6 
REMARK       I    between atoms: C4_6  and  N2_8 
REMARK    5  A    between atoms: N2_8  and  C5_9 
ROOT
HETATM    1  C5  UNL     1      -4.004  48.468 -23.268  1.00  0.00     0.111 A 
HETATM    2  C6  UNL     1      -5.211  47.885 -22.902  1.00  0.00     0.080 A 
HETATM    3  C7  UNL     1      -6.102  47.652 -23.950  1.00  0.00     0.065 A 
HETATM    4  N3  UNL     1      -7.356  47.114 -23.980  1.00  0.00    -0.299 N 
HETATM    5  N4  UNL     1      -7.911  47.079 -25.202  1.00  0.00    -0.299 N 
ATOM      6  H4  UNL     1      -8.839  46.743 -25.459  1.00  0.00     0.187 HD
HETATM    7  C8  UNL     1      -6.966  47.588 -26.008  1.00  0.00     0.072 A 
HETATM    8  C9  UNL     1      -7.139  47.737 -27.433  1.00  0.00    -0.002 A 
HETATM    9  C10 UNL     1      -6.159  47.145 -28.357  1.00  0.00     0.033 A 
HETATM   10  C11 UNL     1      -6.320  47.285 -29.684  1.00  0.00     0.119 A 
HETATM   11  N5  UNL     1      -7.413  47.991 -30.178  1.00  0.00    -0.250 N 
HETATM   12  N6  UNL     1      -7.742  48.250 -31.466  1.00  0.00    -0.288 N 
ATOM     13  H6  UNL     1      -7.259  47.969 -32.319  1.00  0.00     0.188 HD
HETATM   14  C12 UNL     1      -8.858  48.966 -31.333  1.00  0.00     0.199 A 
HETATM   15  N7  UNL     1      -9.279  49.187 -30.055  1.00  0.00    -0.336 N 
ATOM     16  H7  UNL     1     -10.095  49.707 -29.734  1.00  0.00     0.168 HD
HETATM   17  C13 UNL     1      -8.370  48.563 -29.339  1.00  0.00     0.128 A 
HETATM   18  C14 UNL     1      -8.208  48.400 -27.936  1.00  0.00     0.064 A 
HETATM   19  C15 UNL     1      -5.810  47.975 -25.269  1.00  0.00     0.036 A 
HETATM   20  C16 UNL     1      -4.575  48.568 -25.546  1.00  0.00     0.105 A 
HETATM   21  N8  UNL     1      -3.690  48.803 -24.542  1.00  0.00    -0.351 N 
ATOM     22  H8  UNL     1      -2.788  49.231 -24.749  1.00  0.00     0.166 HD
HETATM   23  H10 UNL     1      -7.894  46.756 -23.197  1.00  0.00     0.187 HD
ENDROOT
BRANCH   1  24
HETATM   24  N2  UNL     1      -3.001  48.794 -22.358  1.00  0.00    -0.295 N 
HETATM   25  C4  UNL     1      -3.013  49.747 -21.377  1.00  0.00     0.322 C 
HETATM   26  N1  UNL     1      -1.795  49.810 -20.737  1.00  0.00    -0.332 N 
HETATM   27  O2  UNL     1      -3.956  50.464 -21.068  1.00  0.00    -0.247 OA
HETATM   28  H7  UNL     1      -1.003  49.626 -21.337  1.00  0.00     0.165 HD
HETATM   29  H8  UNL     1      -2.216  48.162 -22.397  1.00  0.00     0.172 HD
BRANCH  26  30
HETATM   30  C3  UNL     1      -1.542  50.852 -19.749  1.00  0.00     0.143 C 
BRANCH  30  31
HETATM   31  C2  UNL     1      -2.857  51.470 -19.209  1.00  0.00     0.197 C 
BRANCH  31  32
HETATM   32  O1  UNL     1      -2.856  51.503 -17.771  1.00  0.00    -0.394 OA
HETATM   33  C1  UNL     1      -2.041  50.470 -17.231  1.00  0.00     0.201 C 
ENDBRANCH  31  32
ENDBRANCH  30  31
BRANCH  30  34
HETATM   34  C17 UNL     1      -0.579  51.881 -20.330  1.00  0.00    -0.033 A 
HETATM   35  C18 UNL     1      -0.131  52.988 -19.588  1.00  0.00     0.012 A 
HETATM   36  C19 UNL     1       0.745  53.917 -20.154  1.00  0.00     0.043 A 
HETATM   37  C20 UNL     1       1.172  53.751 -21.465  1.00  0.00     0.116 A 
HETATM   38  F1  UNL     1       2.012  54.642 -22.004  1.00  0.00    -0.206 F 
HETATM   39  C21 UNL     1       0.734  52.675 -22.224  1.00  0.00     0.043 A 
HETATM   40  C22 UNL     1      -0.142  51.744 -21.662  1.00  0.00     0.012 A 
ENDBRANCH  30  34
ENDBRANCH  26  30
ENDBRANCH   1  24
TORSDOF 5
ENDMDL
MODEL 9
REMARK minimizedAffinity -8.86947632
REMARK  5 active torsions:
REMARK  status: ('A' for Active; 'I' for Inactive)
REMARK    1  A    between atoms: O1_2  and  C2_3 
REMARK    2  A    between atoms: C2_3  and  C3_4 
REMARK    3  A    between atoms: C3_4  and  N1_5 
REMARK    4  A    between atoms: C3_4  and  C17_31 
REMARK       I    between atoms: N1_5  and  C4_6 
REMARK       I    between atoms: C4_6  and  N2_8 
REMARK    5  A    between atoms: N2_8  and  C5_9 
ROOT
HETATM    1  C5  UNL     1      -3.781  48.642 -23.588  1.00  0.00     0.111 A 
HETATM    2  C6  UNL     1      -3.476  48.752 -24.939  1.00  0.00     0.080 A 
HETATM    3  C7  UNL     1      -4.519  48.445 -25.812  1.00  0.00     0.065 A 
HETATM    4  N3  UNL     1      -4.595  48.433 -27.175  1.00  0.00    -0.299 N 
HETATM    5  N4  UNL     1      -5.789  48.050 -27.656  1.00  0.00    -0.299 N 
ATOM      6  H4  UNL     1      -6.068  47.948 -28.632  1.00  0.00     0.187 HD
HETATM    7  C8  UNL     1      -6.533  47.833 -26.559  1.00  0.00     0.072 A 
HETATM    8  C9  UNL     1      -7.909  47.402 -26.610  1.00  0.00    -0.002 A 
HETATM    9  C10 UNL     1      -8.947  48.177 -25.911  1.00  0.00     0.033 A 
HETATM   10  C11 UNL     1     -10.228  47.774 -25.957  1.00  0.00     0.119 A 
HETATM   11  N5  UNL     1     -10.567  46.626 -26.666  1.00  0.00    -0.250 N 
HETATM   12  N6  UNL     1     -11.786  46.057 -26.821  1.00  0.00    -0.288 N 
ATOM     13  H6  UNL     1     -12.688  46.365 -26.458  1.00  0.00     0.188 HD
HETATM   14  C12 UNL     1     -11.506  44.990 -27.569  1.00  0.00     0.199 A 
HETATM   15  N7  UNL     1     -10.196  44.828 -27.913  1.00  0.00    -0.336 N 
ATOM     16  H7  UNL     1      -9.770  44.087 -28.469  1.00  0.00     0.168 HD
HETATM   17  C13 UNL     1      -9.618  45.865 -27.349  1.00  0.00     0.128 A 
HETATM   18  C14 UNL     1      -8.265  46.301 -27.313  1.00  0.00     0.064 A 
HETATM   19  C15 UNL     1      -5.778  48.057 -25.371  1.00  0.00     0.036 A 
HETATM   20  C16 UNL     1      -5.994  47.963 -23.993  1.00  0.00     0.105 A 
HETATM   21  N8  UNL     1      -4.995  48.259 -23.123  1.00  0.00    -0.351 N 
ATOM     22  H8  UNL     1      -5.158  48.193 -22.118  1.00  0.00     0.166 HD
HETATM   23  H10 UNL     1      -3.864  48.670 -27.837  1.00  0.00     0.187 HD
ENDROOT
BRANCH   1  24
HETATM   24  N2  UNL     1      -2.863  48.887 -22.569  1.00  0.00    -0.295 N 
HETATM   25  C4  UNL     1      -2.881  49.874 -21.622  1.00  0.00     0.322 C 
HETATM   26  N1  UNL     1      -1.749  49.823 -20.838  1.00  0.00    -0.332 N 
HETATM   27  O2  UNL     1      -3.763  50.705 -21.450  1.00  0.00    -0.247 OA
HETATM   28  H7  UNL     1      -0.918  49.527 -21.330  1.00  0.00     0.165 HD
HETATM   29  H8  UNL     1      -2.159  48.169 -22.495  1.00  0.00     0.172 HD
BRANCH  26  30
HETATM   30  C3  UNL     1      -1.495  50.868 -19.853  1.00  0.00     0.143 C 
BRANCH  30  31
HETATM   31  C2  UNL     1      -2.811  51.479 -19.304  1.00  0.00     0.197 C 
BRANCH  31  32
HETATM   32  O1  UNL     1      -2.794  51.526 -17.867  1.00  0.00    -0.394 OA
HETATM   33  C1  UNL     1      -2.745  50.220 -17.307  1.00  0.00     0.201 C 
ENDBRANCH  31  32
ENDBRANCH  30  31
BRANCH  30  34
HETATM   34  C17 UNL     1      -0.543  51.902 -20.442  1.00  0.00    -0.033 A 
HETATM   35  C18 UNL     1      -0.083  51.823 -21.769  1.00  0.00     0.012 A 
HETATM   36  C19 UNL     1       0.796  52.783 -22.275  1.00  0.00     0.043 A 
HETATM   37  C20 UNL     1       1.227  53.821 -21.459  1.00  0.00     0.116 A 
HETATM   38  F1  UNL     1       2.069  54.740 -21.947  1.00  0.00    -0.206 F 
HETATM   39  C21 UNL     1       0.800  53.914 -20.142  1.00  0.00     0.043 A 
HETATM   40  C22 UNL     1      -0.080  52.956 -19.633  1.00  0.00     0.012 A 
ENDBRANCH  30  34
ENDBRANCH  26  30
ENDBRANCH   1  24
TORSDOF 5
ENDMDL
