MODEL 1
REMARK minimizedAffinity -9.03258419
REMARK  6 active torsions:
REMARK  status: ('A' for Active; 'I' for Inactive)
REMARK    1  A    between atoms: O1_2  and  C2_3 
REMARK    2  A    between atoms: C2_3  and  C3_4 
REMARK    3  A    between atoms: C3_4  and  N1_5 
REMARK    4  A    between atoms: C3_4  and  C17_27 
REMARK       I    between atoms: N1_5  and  C4_6 
REMARK       I    between atoms: C4_6  and  N2_8 
REMARK    5  A    between atoms: N2_8  and  C5_9 
REMARK    6  A    between atoms: N5_16  and  C9_17 
ROOT
HETATM    1  C5  UNL     1      -2.479  51.095 -27.059  1.00  0.00     0.111 A 
HETATM    2  C6  UNL     1      -1.210  51.248 -27.603  1.00  0.00     0.080 A 
HETATM    3  C7  UNL     1      -0.266  51.826 -26.754  1.00  0.00     0.067 A 
HETATM    4  N3  UNL     1       1.046  52.153 -26.938  1.00  0.00    -0.298 N 
HETATM    5  N4  UNL     1       1.623  52.733 -25.872  1.00  0.00    -0.284 N 
ATOM      6  H4  UNL     1       2.573  53.095 -25.793  1.00  0.00     0.188 HD
HETATM    7  C8  UNL     1       0.666  52.728 -24.940  1.00  0.00     0.134 A 
HETATM    8  N5  UNL     1       0.866  53.242 -23.705  1.00  0.00    -0.341 N 
HETATM    9  C15 UNL     1      -0.557  52.207 -25.451  1.00  0.00     0.053 A 
HETATM   10  C16 UNL     1      -1.865  52.033 -24.994  1.00  0.00     0.107 A 
HETATM   11  N6  UNL     1      -2.805  51.470 -25.800  1.00  0.00    -0.351 N 
ATOM     12  H6  UNL     1      -3.755  51.330 -25.455  1.00  0.00     0.166 HD
HETATM   13  H10 UNL     1       1.604  52.026 -27.776  1.00  0.00     0.187 HD
HETATM   14  H11 UNL     1       1.752  53.734 -23.618  1.00  0.00     0.167 HD
ENDROOT
BRANCH   1  15
HETATM   15  N2  UNL     1      -3.551  50.531 -27.751  1.00  0.00    -0.295 N 
HETATM   16  C4  UNL     1      -3.860  49.209 -27.917  1.00  0.00     0.322 C 
HETATM   17  N1  UNL     1      -5.018  49.054 -28.642  1.00  0.00    -0.332 N 
HETATM   18  O2  UNL     1      -3.206  48.255 -27.513  1.00  0.00    -0.247 OA
HETATM   19  H7  UNL     1      -5.663  49.829 -28.672  1.00  0.00     0.165 HD
HETATM   20  H8  UNL     1      -4.098  51.220 -28.242  1.00  0.00     0.172 HD
BRANCH  17  21
HETATM   21  C3  UNL     1      -5.627  47.748 -28.855  1.00  0.00     0.143 C 
BRANCH  21  22
HETATM   22  C2  UNL     1      -5.655  47.409 -30.364  1.00  0.00     0.197 C 
BRANCH  22  23
HETATM   23  O1  UNL     1      -4.875  48.347 -31.124  1.00  0.00    -0.394 OA
HETATM   24  C1  UNL     1      -4.830  47.989 -32.501  1.00  0.00     0.201 C 
ENDBRANCH  22  23
ENDBRANCH  21  22
BRANCH  21  25
HETATM   25  C17 UNL     1      -6.989  47.685 -28.172  1.00  0.00    -0.033 A 
HETATM   26  C18 UNL     1      -8.182  48.029 -28.830  1.00  0.00     0.012 A 
HETATM   27  C19 UNL     1      -9.407  47.974 -28.163  1.00  0.00     0.043 A 
HETATM   28  C20 UNL     1      -9.447  47.588 -26.829  1.00  0.00     0.116 A 
HETATM   29  F1  UNL     1     -10.623  47.538 -26.190  1.00  0.00    -0.206 F 
HETATM   30  C21 UNL     1      -8.283  47.260 -26.148  1.00  0.00     0.043 A 
HETATM   31  C22 UNL     1      -7.058  47.312 -26.815  1.00  0.00     0.012 A 
ENDBRANCH  21  25
ENDBRANCH  17  21
ENDBRANCH   1  15
BRANCH   8  32
HETATM   32  C9  UNL     1       0.461  52.757 -22.441  1.00  0.00     0.033 A 
HETATM   33  C10 UNL     1       0.687  53.562 -21.314  1.00  0.00     0.029 A 
HETATM   34  C11 UNL     1       0.285  53.147 -20.042  1.00  0.00     0.002 A 
HETATM   35  C12 UNL     1      -0.350  51.918 -19.879  1.00  0.00     0.000 A 
HETATM   36  C13 UNL     1      -0.580  51.106 -20.987  1.00  0.00     0.002 A 
HETATM   37  C14 UNL     1      -0.178  51.525 -22.259  1.00  0.00     0.029 A 
ENDBRANCH   8  32
TORSDOF 6
ENDMDL
MODEL 2
REMARK minimizedAffinity -8.98218632
REMARK  6 active torsions:
REMARK  status: ('A' for Active; 'I' for Inactive)
REMARK    1  A    between atoms: O1_2  and  C2_3 
REMARK    2  A    between atoms: C2_3  and  C3_4 
REMARK    3  A    between atoms: C3_4  and  N1_5 
REMARK    4  A    between atoms: C3_4  and  C17_27 
REMARK       I    between atoms: N1_5  and  C4_6 
REMARK       I    between atoms: C4_6  and  N2_8 
REMARK    5  A    between atoms: N2_8  and  C5_9 
REMARK    6  A    between atoms: N5_16  and  C9_17 
ROOT
HETATM    1  C5  UNL     1      -3.556  48.990 -26.043  1.00  0.00     0.111 A 
HETATM    2  C6  UNL     1      -4.686  48.495 -25.404  1.00  0.00     0.080 A 
HETATM    3  C7  UNL     1      -5.669  47.981 -26.250  1.00  0.00     0.067 A 
HETATM    4  N3  UNL     1      -6.899  47.444 -25.998  1.00  0.00    -0.298 N 
HETATM    5  N4  UNL     1      -7.577  47.084 -27.099  1.00  0.00    -0.284 N 
ATOM      6  H4  UNL     1      -8.521  46.702 -27.157  1.00  0.00     0.188 HD
HETATM    7  C8  UNL     1      -6.733  47.340 -28.102  1.00  0.00     0.134 A 
HETATM    8  N5  UNL     1      -7.062  47.110 -29.394  1.00  0.00    -0.341 N 
HETATM    9  C15 UNL     1      -5.532  47.945 -27.631  1.00  0.00     0.053 A 
HETATM   10  C16 UNL     1      -4.370  48.483 -28.188  1.00  0.00     0.107 A 
HETATM   11  N6  UNL     1      -3.394  48.988 -27.387  1.00  0.00    -0.351 N 
ATOM     12  H6  UNL     1      -2.540  49.365 -27.799  1.00  0.00     0.166 HD
HETATM   13  H10 UNL     1      -7.343  47.315 -25.095  1.00  0.00     0.187 HD
HETATM   14  H11 UNL     1      -8.039  46.855 -29.515  1.00  0.00     0.167 HD
ENDROOT
BRANCH   1  15
HETATM   15  N2  UNL     1      -2.466  49.537 -25.367  1.00  0.00    -0.295 N 
HETATM   16  C4  UNL     1      -2.033  50.836 -25.353  1.00  0.00     0.322 C 
HETATM   17  N1  UNL     1      -0.934  50.986 -24.541  1.00  0.00    -0.332 N 
HETATM   18  O2  UNL     1      -2.514  51.767 -25.988  1.00  0.00    -0.247 OA
HETATM   19  H7  UNL     1      -0.780  50.295 -23.822  1.00  0.00     0.165 HD
HETATM   20  H8  UNL     1      -1.908  48.838 -24.904  1.00  0.00     0.172 HD
BRANCH  17  21
HETATM   21  C3  UNL     1      -0.355  52.293 -24.262  1.00  0.00     0.143 C 
BRANCH  21  22
HETATM   22  C2  UNL     1       0.817  52.579 -25.231  1.00  0.00     0.197 C 
BRANCH  22  23
HETATM   23  O1  UNL     1       0.641  53.836 -25.906  1.00  0.00    -0.394 OA
HETATM   24  C1  UNL     1       0.117  53.652 -27.216  1.00  0.00     0.201 C 
ENDBRANCH  22  23
ENDBRANCH  21  22
BRANCH  21  25
HETATM   25  C17 UNL     1       0.013  52.402 -22.785  1.00  0.00    -0.033 A 
HETATM   26  C18 UNL     1      -0.533  51.554 -21.806  1.00  0.00     0.012 A 
HETATM   27  C19 UNL     1      -0.184  51.699 -20.462  1.00  0.00     0.043 A 
HETATM   28  C20 UNL     1       0.703  52.700 -20.085  1.00  0.00     0.116 A 
HETATM   29  F1  UNL     1       1.035  52.838 -18.795  1.00  0.00    -0.206 F 
HETATM   30  C21 UNL     1       1.243  53.563 -21.028  1.00  0.00     0.043 A 
HETATM   31  C22 UNL     1       0.896  53.418 -22.372  1.00  0.00     0.012 A 
ENDBRANCH  21  25
ENDBRANCH  17  21
ENDBRANCH   1  15
BRANCH   8  32
HETATM   32  C9  UNL     1      -6.291  46.569 -30.447  1.00  0.00     0.033 A 
HETATM   33  C10 UNL     1      -5.437  47.426 -31.156  1.00  0.00     0.029 A 
HETATM   34  C11 UNL     1      -4.632  46.943 -32.191  1.00  0.00     0.002 A 
HETATM   35  C12 UNL     1      -4.670  45.593 -32.531  1.00  0.00     0.000 A 
HETATM   36  C13 UNL     1      -5.515  44.729 -31.838  1.00  0.00     0.002 A 
HETATM   37  C14 UNL     1      -6.318  45.215 -30.803  1.00  0.00     0.029 A 
ENDBRANCH   8  32
TORSDOF 6
ENDMDL
MODEL 3
REMARK minimizedAffinity -8.76758003
REMARK  6 active torsions:
REMARK  status: ('A' for Active; 'I' for Inactive)
REMARK    1  A    between atoms: O1_2  and  C2_3 
REMARK    2  A    between atoms: C2_3  and  C3_4 
REMARK    3  A    between atoms: C3_4  and  N1_5 
REMARK    4  A    between atoms: C3_4  and  C17_27 
REMARK       I    between atoms: N1_5  and  C4_6 
REMARK       I    between atoms: C4_6  and  N2_8 
REMARK    5  A    between atoms: N2_8  and  C5_9 
REMARK    6  A    between atoms: N5_16  and  C9_17 
ROOT
HETATM    1  C5  UNL     1      -1.591  51.629 -22.160  1.00  0.00     0.111 A 
HETATM    2  C6  UNL     1      -0.530  52.507 -22.345  1.00  0.00     0.080 A 
HETATM    3  C7  UNL     1       0.165  52.850 -21.185  1.00  0.00     0.067 A 
HETATM    4  N3  UNL     1       1.222  53.687 -20.970  1.00  0.00    -0.298 N 
HETATM    5  N4  UNL     1       1.595  53.781 -19.683  1.00  0.00    -0.284 N 
ATOM      6  H4  UNL     1       2.326  54.369 -19.284  1.00  0.00     0.188 HD
HETATM    7  C8  UNL     1       0.790  52.927 -19.046  1.00  0.00     0.134 A 
HETATM    8  N5  UNL     1       0.857  52.740 -17.708  1.00  0.00    -0.341 N 
HETATM    9  C15 UNL     1      -0.160  52.344 -19.934  1.00  0.00     0.053 A 
HETATM   10  C16 UNL     1      -1.254  51.481 -19.839  1.00  0.00     0.107 A 
HETATM   11  N6  UNL     1      -1.948  51.127 -20.954  1.00  0.00    -0.351 N 
ATOM     12  H6  UNL     1      -2.736  50.484 -20.882  1.00  0.00     0.166 HD
HETATM   13  H10 UNL     1       1.722  54.240 -21.658  1.00  0.00     0.187 HD
HETATM   14  H11 UNL     1       1.478  53.400 -17.246  1.00  0.00     0.167 HD
ENDROOT
BRANCH   1  15
HETATM   15  N2  UNL     1      -2.398  51.165 -23.200  1.00  0.00    -0.295 N 
HETATM   16  C4  UNL     1      -2.020  50.595 -24.385  1.00  0.00     0.322 C 
HETATM   17  N1  UNL     1      -3.114  50.242 -25.139  1.00  0.00    -0.332 N 
HETATM   18  O2  UNL     1      -0.871  50.427 -24.774  1.00  0.00    -0.247 OA
HETATM   19  H7  UNL     1      -3.993  50.109 -24.663  1.00  0.00     0.165 HD
HETATM   20  H8  UNL     1      -3.373  51.367 -23.051  1.00  0.00     0.172 HD
BRANCH  17  21
HETATM   21  C3  UNL     1      -2.983  49.509 -26.391  1.00  0.00     0.143 C 
BRANCH  21  22
HETATM   22  C2  UNL     1      -2.493  50.451 -27.516  1.00  0.00     0.197 C 
BRANCH  22  23
HETATM   23  O1  UNL     1      -2.929  51.802 -27.292  1.00  0.00    -0.394 OA
HETATM   24  C1  UNL     1      -1.881  52.733 -27.541  1.00  0.00     0.201 C 
ENDBRANCH  22  23
ENDBRANCH  21  22
BRANCH  21  25
HETATM   25  C17 UNL     1      -4.282  48.775 -26.709  1.00  0.00    -0.033 A 
HETATM   26  C18 UNL     1      -5.176  48.353 -25.711  1.00  0.00     0.012 A 
HETATM   27  C19 UNL     1      -6.347  47.668 -26.044  1.00  0.00     0.043 A 
HETATM   28  C20 UNL     1      -6.625  47.389 -27.375  1.00  0.00     0.116 A 
HETATM   29  F1  UNL     1      -7.747  46.730 -27.692  1.00  0.00    -0.206 F 
HETATM   30  C21 UNL     1      -5.752  47.778 -28.381  1.00  0.00     0.043 A 
HETATM   31  C22 UNL     1      -4.582  48.464 -28.050  1.00  0.00     0.012 A 
ENDBRANCH  21  25
ENDBRANCH  17  21
ENDBRANCH   1  15
BRANCH   8  32
HETATM   32  C9  UNL     1       0.770  51.551 -16.949  1.00  0.00     0.033 A 
HETATM   33  C10 UNL     1      -0.037  50.510 -17.431  1.00  0.00     0.029 A 
HETATM   34  C11 UNL     1      -0.142  49.302 -16.736  1.00  0.00     0.002 A 
HETATM   35  C12 UNL     1       0.561  49.119 -15.549  1.00  0.00     0.000 A 
HETATM   36  C13 UNL     1       1.365  50.143 -15.055  1.00  0.00     0.002 A 
HETATM   37  C14 UNL     1       1.469  51.350 -15.753  1.00  0.00     0.029 A 
ENDBRANCH   8  32
TORSDOF 6
ENDMDL
MODEL 4
REMARK minimizedAffinity -8.70464897
REMARK  6 active torsions:
REMARK  status: ('A' for Active; 'I' for Inactive)
REMARK    1  A    between atoms: O1_2  and  C2_3 
REMARK    2  A    between atoms: C2_3  and  C3_4 
REMARK    3  A    between atoms: C3_4  and  N1_5 
REMARK    4  A    between atoms: C3_4  and  C17_27 
REMARK       I    between atoms: N1_5  and  C4_6 
REMARK       I    between atoms: C4_6  and  N2_8 
REMARK    5  A    between atoms: N2_8  and  C5_9 
REMARK    6  A    between atoms: N5_16  and  C9_17 
ROOT
HETATM    1  C5  UNL     1      -1.400  50.408 -21.706  1.00  0.00     0.111 A 
HETATM    2  C6  UNL     1      -0.562  51.316 -22.343  1.00  0.00     0.080 A 
HETATM    3  C7  UNL     1       0.179  52.136 -21.492  1.00  0.00     0.067 A 
HETATM    4  N3  UNL     1       1.067  53.143 -21.742  1.00  0.00    -0.298 N 
HETATM    5  N4  UNL     1       1.560  53.728 -20.638  1.00  0.00    -0.284 N 
ATOM      6  H4  UNL     1       2.201  54.519 -20.581  1.00  0.00     0.188 HD
HETATM    7  C8  UNL     1       1.018  53.036 -19.632  1.00  0.00     0.134 A 
HETATM    8  N5  UNL     1       1.274  53.334 -18.338  1.00  0.00    -0.341 N 
HETATM    9  C15 UNL     1       0.107  52.049 -20.109  1.00  0.00     0.053 A 
HETATM   10  C16 UNL     1      -0.776  51.120 -19.555  1.00  0.00     0.107 A 
HETATM   11  N6  UNL     1      -1.509  50.305 -20.361  1.00  0.00    -0.351 N 
ATOM     12  H6  UNL     1      -2.141  49.617 -19.951  1.00  0.00     0.166 HD
HETATM   13  H10 UNL     1       1.365  53.493 -22.647  1.00  0.00     0.187 HD
HETATM   14  H11 UNL     1       1.800  54.197 -18.226  1.00  0.00     0.167 HD
ENDROOT
BRANCH   1  15
HETATM   15  N2  UNL     1      -2.212  49.501 -22.386  1.00  0.00    -0.295 N 
HETATM   16  C4  UNL     1      -3.547  49.598 -22.672  1.00  0.00     0.322 C 
HETATM   17  N1  UNL     1      -3.984  48.508 -23.387  1.00  0.00    -0.332 N 
HETATM   18  O2  UNL     1      -4.297  50.505 -22.331  1.00  0.00    -0.247 OA
HETATM   19  H7  UNL     1      -3.299  47.974 -23.899  1.00  0.00     0.165 HD
HETATM   20  H8  UNL     1      -1.732  48.645 -22.610  1.00  0.00     0.172 HD
BRANCH  17  21
HETATM   21  C3  UNL     1      -5.339  48.426 -23.917  1.00  0.00     0.143 C 
BRANCH  21  22
HETATM   22  C2  UNL     1      -6.140  47.330 -23.176  1.00  0.00     0.197 C 
BRANCH  22  23
HETATM   23  O1  UNL     1      -6.732  47.841 -21.970  1.00  0.00    -0.394 OA
HETATM   24  C1  UNL     1      -7.106  46.788 -21.089  1.00  0.00     0.201 C 
ENDBRANCH  22  23
ENDBRANCH  21  22
BRANCH  21  25
HETATM   25  C17 UNL     1      -5.301  48.260 -25.433  1.00  0.00    -0.033 A 
HETATM   26  C18 UNL     1      -6.399  47.781 -26.169  1.00  0.00     0.012 A 
HETATM   27  C19 UNL     1      -6.317  47.626 -27.554  1.00  0.00     0.043 A 
HETATM   28  C20 UNL     1      -5.134  47.935 -28.212  1.00  0.00     0.116 A 
HETATM   29  F1  UNL     1      -5.057  47.784 -29.540  1.00  0.00    -0.206 F 
HETATM   30  C21 UNL     1      -4.027  48.392 -27.509  1.00  0.00     0.043 A 
HETATM   31  C22 UNL     1      -4.109  48.549 -26.125  1.00  0.00     0.012 A 
ENDBRANCH  21  25
ENDBRANCH  17  21
ENDBRANCH   1  15
BRANCH   8  32
HETATM   32  C9  UNL     1       1.512  52.480 -17.237  1.00  0.00     0.033 A 
HETATM   33  C10 UNL     1       2.725  52.606 -16.546  1.00  0.00     0.029 A 
HETATM   34  C11 UNL     1       3.005  51.806 -15.434  1.00  0.00     0.002 A 
HETATM   35  C12 UNL     1       2.073  50.869 -14.999  1.00  0.00     0.000 A 
HETATM   36  C13 UNL     1       0.864  50.730 -15.676  1.00  0.00     0.002 A 
HETATM   37  C14 UNL     1       0.586  51.532 -16.787  1.00  0.00     0.029 A 
ENDBRANCH   8  32
TORSDOF 6
ENDMDL
MODEL 5
REMARK minimizedAffinity -8.68446827
REMARK  6 active torsions:
REMARK  status: ('A' for Active; 'I' for Inactive)
REMARK    1  A    between atoms: O1_2  and  C2_3 
REMARK    2  A    between atoms: C2_3  and  C3_4 
REMARK    3  A    between atoms: C3_4  and  N1_5 
REMARK    4  A    between atoms: C3_4  and  C17_27 
REMARK       I    between atoms: N1_5  and  C4_6 
REMARK       I    between atoms: C4_6  and  N2_8 
REMARK    5  A    between atoms: N2_8  and  C5_9 
REMARK    6  A    between atoms: N5_16  and  C9_17 
ROOT
HETATM    1  C5  UNL     1       0.496  52.873 -19.943  1.00  0.00     0.111 A 
HETATM    2  C6  UNL     1       1.082  54.015 -20.475  1.00  0.00     0.080 A 
HETATM    3  C7  UNL     1       1.122  54.067 -21.868  1.00  0.00     0.067 A 
HETATM    4  N3  UNL     1       1.632  54.994 -22.731  1.00  0.00    -0.298 N 
HETATM    5  N4  UNL     1       1.504  54.667 -24.027  1.00  0.00    -0.284 N 
ATOM      6  H4  UNL     1       1.842  55.182 -24.840  1.00  0.00     0.188 HD
HETATM    7  C8  UNL     1       0.831  53.513 -24.008  1.00  0.00     0.134 A 
HETATM    8  N5  UNL     1       0.507  52.853 -25.144  1.00  0.00    -0.341 N 
HETATM    9  C15 UNL     1       0.601  53.066 -22.675  1.00  0.00     0.053 A 
HETATM   10  C16 UNL     1       0.046  51.945 -22.054  1.00  0.00     0.107 A 
HETATM   11  N6  UNL     1      -0.009  51.869 -20.697  1.00  0.00    -0.351 N 
ATOM     12  H6  UNL     1      -0.430  51.055 -20.248  1.00  0.00     0.166 HD
HETATM   13  H10 UNL     1       2.101  55.863 -22.498  1.00  0.00     0.187 HD
HETATM   14  H11 UNL     1       0.936  53.256 -25.973  1.00  0.00     0.167 HD
ENDROOT
BRANCH   1  15
HETATM   15  N2  UNL     1       0.358  52.644 -18.573  1.00  0.00    -0.295 N 
HETATM   16  C4  UNL     1       0.141  51.459 -17.924  1.00  0.00     0.322 C 
HETATM   17  N1  UNL     1       0.091  51.640 -16.562  1.00  0.00    -0.332 N 
HETATM   18  O2  UNL     1      -0.020  50.364 -18.448  1.00  0.00    -0.247 OA
HETATM   19  H7  UNL     1       0.531  52.462 -16.178  1.00  0.00     0.165 HD
HETATM   20  H8  UNL     1       0.344  53.497 -18.039  1.00  0.00     0.172 HD
BRANCH  17  21
HETATM   21  C3  UNL     1      -0.010  50.518 -15.638  1.00  0.00     0.143 C 
BRANCH  21  22
HETATM   22  C2  UNL     1      -1.208  50.718 -14.679  1.00  0.00     0.197 C 
BRANCH  22  23
HETATM   23  O1  UNL     1      -0.993  51.838 -13.804  1.00  0.00    -0.394 OA
HETATM   24  C1  UNL     1      -2.104  52.039 -12.937  1.00  0.00     0.201 C 
ENDBRANCH  22  23
ENDBRANCH  21  22
BRANCH  21  25
HETATM   25  C17 UNL     1       1.325  50.292 -14.935  1.00  0.00    -0.033 A 
HETATM   26  C18 UNL     1       1.612  49.120 -14.216  1.00  0.00     0.012 A 
HETATM   27  C19 UNL     1       2.841  48.961 -13.572  1.00  0.00     0.043 A 
HETATM   28  C20 UNL     1       3.785  49.978 -13.631  1.00  0.00     0.116 A 
HETATM   29  F1  UNL     1       4.962  49.824 -13.010  1.00  0.00    -0.206 F 
HETATM   30  C21 UNL     1       3.522  51.154 -14.318  1.00  0.00     0.043 A 
HETATM   31  C22 UNL     1       2.294  51.313 -14.964  1.00  0.00     0.012 A 
ENDBRANCH  21  25
ENDBRANCH  17  21
ENDBRANCH   1  15
BRANCH   8  32
HETATM   32  C9  UNL     1      -0.685  52.183 -25.498  1.00  0.00     0.033 A 
HETATM   33  C10 UNL     1      -0.587  50.925 -26.111  1.00  0.00     0.029 A 
HETATM   34  C11 UNL     1      -1.732  50.204 -26.461  1.00  0.00     0.002 A 
HETATM   35  C12 UNL     1      -2.993  50.733 -26.202  1.00  0.00     0.000 A 
HETATM   36  C13 UNL     1      -3.109  51.982 -25.596  1.00  0.00     0.002 A 
HETATM   37  C14 UNL     1      -1.962  52.700 -25.246  1.00  0.00     0.029 A 
ENDBRANCH   8  32
TORSDOF 6
ENDMDL
MODEL 6
REMARK minimizedAffinity -8.67918777
REMARK  6 active torsions:
REMARK  status: ('A' for Active; 'I' for Inactive)
REMARK    1  A    between atoms: O1_2  and  C2_3 
REMARK    2  A    between atoms: C2_3  and  C3_4 
REMARK    3  A    between atoms: C3_4  and  N1_5 
REMARK    4  A    between atoms: C3_4  and  C17_27 
REMARK       I    between atoms: N1_5  and  C4_6 
REMARK       I    between atoms: C4_6  and  N2_8 
REMARK    5  A    between atoms: N2_8  and  C5_9 
REMARK    6  A    between atoms: N5_16  and  C9_17 
ROOT
HETATM    1  C5  UNL     1       0.412  52.470 -19.644  1.00  0.00     0.111 A 
HETATM    2  C6  UNL     1       1.000  53.665 -20.038  1.00  0.00     0.080 A 
HETATM    3  C7  UNL     1       1.103  53.849 -21.417  1.00  0.00     0.067 A 
HETATM    4  N3  UNL     1       1.635  54.859 -22.165  1.00  0.00    -0.298 N 
HETATM    5  N4  UNL     1       1.572  54.654 -23.491  1.00  0.00    -0.284 N 
ATOM      6  H4  UNL     1       1.937  55.248 -24.235  1.00  0.00     0.188 HD
HETATM    7  C8  UNL     1       0.921  53.494 -23.611  1.00  0.00     0.134 A 
HETATM    8  N5  UNL     1       0.662  52.939 -24.818  1.00  0.00    -0.341 N 
HETATM    9  C15 UNL     1       0.638  52.920 -22.338  1.00  0.00     0.053 A 
HETATM   10  C16 UNL     1       0.077  51.738 -21.852  1.00  0.00     0.107 A 
HETATM   11  N6  UNL     1      -0.039  51.534 -20.512  1.00  0.00    -0.351 N 
ATOM     12  H6  UNL     1      -0.464  50.675 -20.161  1.00  0.00     0.166 HD
HETATM   13  H10 UNL     1       2.075  55.710 -21.830  1.00  0.00     0.187 HD
HETATM   14  H11 UNL     1       1.121  53.425 -25.584  1.00  0.00     0.167 HD
ENDROOT
BRANCH   1  15
HETATM   15  N2  UNL     1       0.215  52.111 -18.310  1.00  0.00    -0.295 N 
HETATM   16  C4  UNL     1       1.082  52.230 -17.257  1.00  0.00     0.322 C 
HETATM   17  N1  UNL     1       0.509  51.789 -16.088  1.00  0.00    -0.332 N 
HETATM   18  O2  UNL     1       2.234  52.644 -17.309  1.00  0.00    -0.247 OA
HETATM   19  H7  UNL     1      -0.499  51.764 -16.036  1.00  0.00     0.165 HD
HETATM   20  H8  UNL     1      -0.660  51.635 -18.163  1.00  0.00     0.172 HD
BRANCH  17  21
HETATM   21  C3  UNL     1       1.181  51.921 -14.802  1.00  0.00     0.143 C 
BRANCH  21  22
HETATM   22  C2  UNL     1       2.080  50.690 -14.538  1.00  0.00     0.197 C 
BRANCH  22  23
HETATM   23  O1  UNL     1       3.338  51.077 -13.961  1.00  0.00    -0.394 OA
HETATM   24  C1  UNL     1       4.135  49.941 -13.644  1.00  0.00     0.201 C 
ENDBRANCH  22  23
ENDBRANCH  21  22
BRANCH  21  25
HETATM   25  C17 UNL     1       0.162  52.201 -13.702  1.00  0.00    -0.033 A 
HETATM   26  C18 UNL     1       0.497  52.869 -12.512  1.00  0.00     0.012 A 
HETATM   27  C19 UNL     1      -0.462  53.090 -11.522  1.00  0.00     0.043 A 
HETATM   28  C20 UNL     1      -1.760  52.632 -11.708  1.00  0.00     0.116 A 
HETATM   29  F1  UNL     1      -2.679  52.843 -10.757  1.00  0.00    -0.206 F 
HETATM   30  C21 UNL     1      -2.116  51.953 -12.865  1.00  0.00     0.043 A 
HETATM   31  C22 UNL     1      -1.158  51.733 -13.856  1.00  0.00     0.012 A 
ENDBRANCH  21  25
ENDBRANCH  17  21
ENDBRANCH   1  15
BRANCH   8  32
HETATM   32  C9  UNL     1      -0.500  52.288 -25.289  1.00  0.00     0.033 A 
HETATM   33  C10 UNL     1      -0.347  51.119 -26.048  1.00  0.00     0.029 A 
HETATM   34  C11 UNL     1      -1.460  50.417 -26.520  1.00  0.00     0.002 A 
HETATM   35  C12 UNL     1      -2.743  50.878 -26.238  1.00  0.00     0.000 A 
HETATM   36  C13 UNL     1      -2.912  52.039 -25.488  1.00  0.00     0.002 A 
HETATM   37  C14 UNL     1      -1.797  52.737 -25.017  1.00  0.00     0.029 A 
ENDBRANCH   8  32
TORSDOF 6
ENDMDL
MODEL 7
REMARK minimizedAffinity -8.56202412
REMARK  6 active torsions:
REMARK  status: ('A' for Active; 'I' for Inactive)
REMARK    1  A    between atoms: O1_2  and  C2_3 
REMARK    2  A    between atoms: C2_3  and  C3_4 
REMARK    3  A    between atoms: C3_4  and  N1_5 
REMARK    4  A    between atoms: C3_4  and  C17_27 
REMARK       I    between atoms: N1_5  and  C4_6 
REMARK       I    between atoms: C4_6  and  N2_8 
REMARK    5  A    between atoms: N2_8  and  C5_9 
REMARK    6  A    between atoms: N5_16  and  C9_17 
ROOT
HETATM    1  C5  UNL     1      -2.148  51.674 -21.244  1.00  0.00     0.111 A 
HETATM    2  C6  UNL     1      -3.330  51.528 -21.959  1.00  0.00     0.080 A 
HETATM    3  C7  UNL     1      -3.237  51.809 -23.323  1.00  0.00     0.067 A 
HETATM    4  N3  UNL     1      -4.169  51.803 -24.320  1.00  0.00    -0.298 N 
HETATM    5  N4  UNL     1      -3.691  52.169 -25.521  1.00  0.00    -0.284 N 
ATOM      6  H4  UNL     1      -4.207  52.275 -26.394  1.00  0.00     0.188 HD
HETATM    7  C8  UNL     1      -2.387  52.361 -25.309  1.00  0.00     0.134 A 
HETATM    8  N5  UNL     1      -1.549  52.749 -26.298  1.00  0.00    -0.341 N 
HETATM    9  C15 UNL     1      -2.051  52.190 -23.935  1.00  0.00     0.053 A 
HETATM   10  C16 UNL     1      -0.915  52.329 -23.135  1.00  0.00     0.107 A 
HETATM   11  N6  UNL     1      -0.976  52.059 -21.803  1.00  0.00    -0.351 N 
ATOM     12  H6  UNL     1      -0.140  52.147 -21.226  1.00  0.00     0.166 HD
HETATM   13  H10 UNL     1      -5.156  51.579 -24.242  1.00  0.00     0.187 HD
HETATM   14  H11 UNL     1      -2.036  52.998 -27.155  1.00  0.00     0.167 HD
ENDROOT
BRANCH   1  15
HETATM   15  N2  UNL     1      -2.040  51.432 -19.874  1.00  0.00    -0.295 N 
HETATM   16  C4  UNL     1      -1.254  50.517 -19.228  1.00  0.00     0.322 C 
HETATM   17  N1  UNL     1      -1.408  50.603 -17.864  1.00  0.00    -0.332 N 
HETATM   18  O2  UNL     1      -0.517  49.693 -19.755  1.00  0.00    -0.247 OA
HETATM   19  H7  UNL     1      -1.760  51.468 -17.482  1.00  0.00     0.165 HD
HETATM   20  H8  UNL     1      -2.701  51.967 -19.335  1.00  0.00     0.172 HD
BRANCH  17  21
HETATM   21  C3  UNL     1      -0.593  49.819 -16.945  1.00  0.00     0.143 C 
BRANCH  21  22
HETATM   22  C2  UNL     1      -1.474  49.224 -15.821  1.00  0.00     0.197 C 
BRANCH  22  23
HETATM   23  O1  UNL     1      -1.317  47.798 -15.736  1.00  0.00    -0.394 OA
HETATM   24  C1  UNL     1      -2.569  47.149 -15.543  1.00  0.00     0.201 C 
ENDBRANCH  22  23
ENDBRANCH  21  22
BRANCH  21  25
HETATM   25  C17 UNL     1       0.584  50.651 -16.445  1.00  0.00    -0.033 A 
HETATM   26  C18 UNL     1       1.082  51.758 -17.153  1.00  0.00     0.012 A 
HETATM   27  C19 UNL     1       2.173  52.483 -16.668  1.00  0.00     0.043 A 
HETATM   28  C20 UNL     1       2.783  52.097 -15.481  1.00  0.00     0.116 A 
HETATM   29  F1  UNL     1       3.831  52.792 -15.020  1.00  0.00    -0.206 F 
HETATM   30  C21 UNL     1       2.324  50.996 -14.771  1.00  0.00     0.043 A 
HETATM   31  C22 UNL     1       1.232  50.273 -15.253  1.00  0.00     0.012 A 
ENDBRANCH  21  25
ENDBRANCH  17  21
ENDBRANCH   1  15
BRANCH   8  32
HETATM   32  C9  UNL     1      -0.236  52.324 -26.598  1.00  0.00     0.033 A 
HETATM   33  C10 UNL     1       0.132  52.193 -27.945  1.00  0.00     0.029 A 
HETATM   34  C11 UNL     1       1.424  51.800 -28.303  1.00  0.00     0.002 A 
HETATM   35  C12 UNL     1       2.369  51.533 -27.315  1.00  0.00     0.000 A 
HETATM   36  C13 UNL     1       2.020  51.656 -25.973  1.00  0.00     0.002 A 
HETATM   37  C14 UNL     1       0.726  52.050 -25.618  1.00  0.00     0.029 A 
ENDBRANCH   8  32
TORSDOF 6
ENDMDL
MODEL 8
REMARK minimizedAffinity -8.49641514
REMARK  6 active torsions:
REMARK  status: ('A' for Active; 'I' for Inactive)
REMARK    1  A    between atoms: O1_2  and  C2_3 
REMARK    2  A    between atoms: C2_3  and  C3_4 
REMARK    3  A    between atoms: C3_4  and  N1_5 
REMARK    4  A    between atoms: C3_4  and  C17_27 
REMARK       I    between atoms: N1_5  and  C4_6 
REMARK       I    between atoms: C4_6  and  N2_8 
REMARK    5  A    between atoms: N2_8  and  C5_9 
REMARK    6  A    between atoms: N5_16  and  C9_17 
ROOT
HETATM    1  C5  UNL     1      -3.028  50.122 -25.983  1.00  0.00     0.111 A 
HETATM    2  C6  UNL     1      -1.843  50.032 -26.701  1.00  0.00     0.080 A 
HETATM    3  C7  UNL     1      -0.770  50.749 -26.171  1.00  0.00     0.067 A 
HETATM    4  N3  UNL     1       0.514  50.920 -26.600  1.00  0.00    -0.298 N 
HETATM    5  N4  UNL     1       1.253  51.724 -25.819  1.00  0.00    -0.284 N 
ATOM      6  H4  UNL     1       2.216  52.025 -25.962  1.00  0.00     0.188 HD
HETATM    7  C8  UNL     1       0.436  52.039 -24.810  1.00  0.00     0.134 A 
HETATM    8  N5  UNL     1       0.824  52.853 -23.801  1.00  0.00    -0.341 N 
HETATM    9  C15 UNL     1      -0.864  51.488 -24.999  1.00  0.00     0.053 A 
HETATM   10  C16 UNL     1      -2.100  51.538 -24.352  1.00  0.00     0.107 A 
HETATM   11  N6  UNL     1      -3.162  50.846 -24.846  1.00  0.00    -0.351 N 
ATOM     12  H6  UNL     1      -4.059  50.872 -24.361  1.00  0.00     0.166 HD
HETATM   13  H10 UNL     1       0.944  50.531 -27.433  1.00  0.00     0.187 HD
HETATM   14  H11 UNL     1       1.729  53.285 -23.965  1.00  0.00     0.167 HD
ENDROOT
BRANCH   1  15
HETATM   15  N2  UNL     1      -4.205  49.470 -26.352  1.00  0.00    -0.295 N 
HETATM   16  C4  UNL     1      -4.464  48.754 -27.489  1.00  0.00     0.322 C 
HETATM   17  N1  UNL     1      -5.738  48.238 -27.473  1.00  0.00    -0.332 N 
HETATM   18  O2  UNL     1      -3.700  48.592 -28.433  1.00  0.00    -0.247 OA
HETATM   19  H7  UNL     1      -6.193  48.129 -26.580  1.00  0.00     0.165 HD
HETATM   20  H8  UNL     1      -4.959  49.640 -25.706  1.00  0.00     0.172 HD
BRANCH  17  21
HETATM   21  C3  UNL     1      -6.219  47.339 -28.514  1.00  0.00     0.143 C 
BRANCH  21  22
HETATM   22  C2  UNL     1      -6.887  48.144 -29.653  1.00  0.00     0.197 C 
BRANCH  22  23
HETATM   23  O1  UNL     1      -8.115  48.748 -29.214  1.00  0.00    -0.394 OA
HETATM   24  C1  UNL     1      -9.156  48.556 -30.166  1.00  0.00     0.201 C 
ENDBRANCH  22  23
ENDBRANCH  21  22
BRANCH  21  25
HETATM   25  C17 UNL     1      -7.107  46.258 -27.905  1.00  0.00    -0.033 A 
HETATM   26  C18 UNL     1      -7.437  45.076 -28.590  1.00  0.00     0.012 A 
HETATM   27  C19 UNL     1      -8.269  44.120 -28.004  1.00  0.00     0.043 A 
HETATM   28  C20 UNL     1      -8.787  44.344 -26.735  1.00  0.00     0.116 A 
HETATM   29  F1  UNL     1      -9.586  43.426 -26.175  1.00  0.00    -0.206 F 
HETATM   30  C21 UNL     1      -8.493  45.510 -26.042  1.00  0.00     0.043 A 
HETATM   31  C22 UNL     1      -7.660  46.466 -26.627  1.00  0.00     0.012 A 
ENDBRANCH  21  25
ENDBRANCH  17  21
ENDBRANCH   1  15
BRANCH   8  32
HETATM   32  C9  UNL     1       0.583  52.758 -22.412  1.00  0.00     0.033 A 
HETATM   33  C10 UNL     1       0.121  51.539 -21.896  1.00  0.00     0.029 A 
HETATM   34  C11 UNL     1      -0.111  51.378 -20.527  1.00  0.00     0.002 A 
HETATM   35  C12 UNL     1       0.116  52.438 -19.654  1.00  0.00     0.000 A 
HETATM   36  C13 UNL     1       0.573  53.657 -20.150  1.00  0.00     0.002 A 
HETATM   37  C14 UNL     1       0.805  53.814 -21.520  1.00  0.00     0.029 A 
ENDBRANCH   8  32
TORSDOF 6
ENDMDL
MODEL 9
REMARK minimizedAffinity -8.46963596
REMARK  6 active torsions:
REMARK  status: ('A' for Active; 'I' for Inactive)
REMARK    1  A    between atoms: O1_2  and  C2_3 
REMARK    2  A    between atoms: C2_3  and  C3_4 
REMARK    3  A    between atoms: C3_4  and  N1_5 
REMARK    4  A    between atoms: C3_4  and  C17_27 
REMARK       I    between atoms: N1_5  and  C4_6 
REMARK       I    between atoms: C4_6  and  N2_8 
REMARK    5  A    between atoms: N2_8  and  C5_9 
REMARK    6  A    between atoms: N5_16  and  C9_17 
ROOT
HETATM    1  C5  UNL     1      -0.093  51.815 -19.093  1.00  0.00     0.111 A 
HETATM    2  C6  UNL     1       0.789  52.752 -18.570  1.00  0.00     0.080 A 
HETATM    3  C7  UNL     1       1.258  52.473 -17.286  1.00  0.00     0.067 A 
HETATM    4  N3  UNL     1       2.097  53.156 -16.454  1.00  0.00    -0.298 N 
HETATM    5  N4  UNL     1       2.287  52.568 -15.261  1.00  0.00    -0.284 N 
ATOM      6  H4  UNL     1       2.835  52.912 -14.473  1.00  0.00     0.188 HD
HETATM    7  C8  UNL     1       1.595  51.429 -15.344  1.00  0.00     0.134 A 
HETATM    8  N5  UNL     1       1.537  50.549 -14.319  1.00  0.00    -0.341 N 
HETATM    9  C15 UNL     1       0.892  51.335 -16.580  1.00  0.00     0.053 A 
HETATM   10  C16 UNL     1      -0.014  50.456 -17.177  1.00  0.00     0.107 A 
HETATM   11  N6  UNL     1      -0.486  50.702 -18.429  1.00  0.00    -0.351 N 
ATOM     12  H6  UNL     1      -1.136  50.049 -18.867  1.00  0.00     0.166 HD
HETATM   13  H10 UNL     1       2.557  54.043 -16.632  1.00  0.00     0.187 HD
HETATM   14  H11 UNL     1       1.956  50.907 -13.464  1.00  0.00     0.167 HD
ENDROOT
BRANCH   1  15
HETATM   15  N2  UNL     1      -0.663  51.917 -20.363  1.00  0.00    -0.295 N 
HETATM   16  C4  UNL     1      -0.064  51.755 -21.583  1.00  0.00     0.322 C 
HETATM   17  N1  UNL     1      -0.969  51.908 -22.606  1.00  0.00    -0.332 N 
HETATM   18  O2  UNL     1       1.123  51.529 -21.783  1.00  0.00    -0.247 OA
HETATM   19  H7  UNL     1      -1.947  51.776 -22.396  1.00  0.00     0.165 HD
HETATM   20  H8  UNL     1      -1.620  52.228 -20.332  1.00  0.00     0.172 HD
BRANCH  17  21
HETATM   21  C3  UNL     1      -0.609  51.667 -23.997  1.00  0.00     0.143 C 
BRANCH  21  22
HETATM   22  C2  UNL     1      -0.515  53.006 -24.767  1.00  0.00     0.197 C 
BRANCH  22  23
HETATM   23  O1  UNL     1       0.837  53.284 -25.166  1.00  0.00    -0.394 OA
HETATM   24  C1  UNL     1       1.535  52.090 -25.500  1.00  0.00     0.201 C 
ENDBRANCH  22  23
ENDBRANCH  21  22
BRANCH  21  25
HETATM   25  C17 UNL     1      -1.561  50.651 -24.619  1.00  0.00    -0.033 A 
HETATM   26  C18 UNL     1      -2.347  49.780 -23.846  1.00  0.00     0.012 A 
HETATM   27  C19 UNL     1      -3.194  48.851 -24.455  1.00  0.00     0.043 A 
HETATM   28  C20 UNL     1      -3.251  48.779 -25.841  1.00  0.00     0.116 A 
HETATM   29  F1  UNL     1      -4.062  47.886 -26.424  1.00  0.00    -0.206 F 
HETATM   30  C21 UNL     1      -2.472  49.614 -26.630  1.00  0.00     0.043 A 
HETATM   31  C22 UNL     1      -1.627  50.543 -26.021  1.00  0.00     0.012 A 
ENDBRANCH  21  25
ENDBRANCH  17  21
ENDBRANCH   1  15
BRANCH   8  32
HETATM   32  C9  UNL     1       1.595  49.137 -14.327  1.00  0.00     0.033 A 
HETATM   33  C10 UNL     1       2.831  48.519 -14.091  1.00  0.00     0.029 A 
HETATM   34  C11 UNL     1       2.945  47.126 -14.062  1.00  0.00     0.002 A 
HETATM   35  C12 UNL     1       1.821  46.332 -14.268  1.00  0.00     0.000 A 
HETATM   36  C13 UNL     1       0.586  46.929 -14.505  1.00  0.00     0.002 A 
HETATM   37  C14 UNL     1       0.475  48.323 -14.533  1.00  0.00     0.029 A 
ENDBRANCH   8  32
TORSDOF 6
ENDMDL
