MODEL 1
REMARK minimizedAffinity -8.97817421
REMARK CNNscore 0.266224802
REMARK CNNaffinity 6.98842812
REMARK  6 active torsions:
REMARK  status: ('A' for Active; 'I' for Inactive)
REMARK       I    between atoms: C1_2  and  N1_3 
REMARK    1  A    between atoms: C1_2  and  C13_19 
REMARK    2  A    between atoms: N1_3  and  C2_4 
REMARK    3  A    between atoms: C2_4  and  C3_5 
REMARK    4  A    between atoms: C2_4  and  C9_13 
REMARK    5  A    between atoms: C18_26  and  N4_27 
REMARK    6  A    between atoms: N4_27  and  C19_28 
ROOT
HETATM    1  C13 UNL     1      -0.577  52.278 -21.231  1.00  0.00     0.034 A 
HETATM    2  C14 UNL     1       0.387  53.265 -21.012  1.00  0.00     0.018 A 
HETATM    3  C15 UNL     1       1.023  53.345 -19.776  1.00  0.00     0.016 A 
HETATM    4  C16 UNL     1       0.701  52.421 -18.767  1.00  0.00     0.006 A 
HETATM    5  C17 UNL     1       1.291  52.410 -17.515  1.00  0.00     0.104 A 
HETATM    6  N3  UNL     1       1.001  51.511 -16.558  1.00  0.00    -0.342 N 
ATOM      7  H3  UNL     1       1.451  51.539 -15.644  1.00  0.00     0.167 HD
HETATM    8  C18 UNL     1       0.093  50.576 -16.866  1.00  0.00     0.157 A 
HETATM    9  N5  UNL     1      -0.553  50.515 -18.038  1.00  0.00    -0.332 N 
ATOM     10  H5  UNL     1      -1.258  49.798 -18.211  1.00  0.00     0.168 HD
HETATM   11  C24 UNL     1      -0.249  51.420 -18.977  1.00  0.00     0.047 A 
HETATM   12  C25 UNL     1      -0.882  51.365 -20.213  1.00  0.00     0.047 A 
ENDROOT
BRANCH   1  13
HETATM   13  C1  UNL     1      -1.211  52.190 -22.574  1.00  0.00     0.252 C 
HETATM   14  O1  UNL     1      -1.469  53.214 -23.193  1.00  0.00    -0.268 OA
HETATM   15  N1  UNL     1      -1.493  50.917 -23.038  1.00  0.00    -0.345 N 
HETATM   16  H1  UNL     1      -1.713  50.241 -22.315  1.00  0.00     0.163 HD
BRANCH  15  17
HETATM   17  C2  UNL     1      -2.240  50.735 -24.293  1.00  0.00     0.159 C 
BRANCH  17  18
HETATM   18  C3  UNL     1      -1.347  50.956 -25.512  1.00  0.00    -0.030 A 
HETATM   19  C4  UNL     1      -1.925  51.196 -26.771  1.00  0.00     0.012 A 
HETATM   20  C5  UNL     1      -1.124  51.413 -27.895  1.00  0.00     0.044 A 
HETATM   21  C6  UNL     1       0.260  51.402 -27.773  1.00  0.00     0.138 A 
HETATM   22  F1  UNL     1       1.002  51.619 -28.868  1.00  0.00    -0.204 F 
HETATM   23  C7  UNL     1       0.856  51.178 -26.536  1.00  0.00     0.073 A 
HETATM   24 CL1  UNL     1       2.567  51.163 -26.377  1.00  0.00    -0.081 Cl
HETATM   25  C8  UNL     1       0.059  50.958 -25.411  1.00  0.00     0.036 A 
ENDBRANCH  17  18
BRANCH  17  26
HETATM   26  C9  UNL     1      -2.997  49.384 -24.283  1.00  0.00     0.155 C 
HETATM   27  F2  UNL     1      -2.457  48.639 -25.318  1.00  0.00    -0.238 F 
HETATM   28  C10 UNL     1      -2.843  48.542 -23.013  1.00  0.00     0.078 C 
HETATM   29  C11 UNL     1      -4.240  48.007 -22.718  1.00  0.00     0.273 C 
HETATM   30  N2  UNL     1      -4.997  48.178 -23.953  1.00  0.00     0.086 N 
HETATM   31  C12 UNL     1      -4.509  49.443 -24.516  1.00  0.00     0.315 C 
HETATM   32  H10 UNL     1      -5.997  48.216 -23.766  1.00  0.00     0.316 HD
ENDBRANCH  17  26
ENDBRANCH  15  17
ENDBRANCH   1  13
BRANCH   8  33
HETATM   33  N4  UNL     1      -0.242  49.588 -15.956  1.00  0.00    -0.259 NA
HETATM   34  H16 UNL     1      -0.464  48.761 -16.499  1.00  0.00     0.131 HD
BRANCH  33  35
HETATM   35  C19 UNL     1      -1.174  49.946 -14.890  1.00  0.00     0.067 C 
HETATM   36  C20 UNL     1      -2.276  50.863 -15.430  1.00  0.00     0.046 C 
HETATM   37  C21 UNL     1      -3.145  51.372 -14.288  1.00  0.00     0.169 C 
HETATM   38  O2  UNL     1      -2.358  52.036 -13.299  1.00  0.00    -0.391 OA
HETATM   39  C22 UNL     1      -1.382  51.176 -12.715  1.00  0.00     0.169 C 
HETATM   40  C23 UNL     1      -0.411  50.669 -13.772  1.00  0.00     0.046 C 
ENDBRANCH  33  35
ENDBRANCH   8  33
TORSDOF 6
ENDMDL
MODEL 2
REMARK minimizedAffinity -7.83512497
REMARK CNNscore 0.156049296
REMARK CNNaffinity 5.73324013
REMARK  6 active torsions:
REMARK  status: ('A' for Active; 'I' for Inactive)
REMARK       I    between atoms: C1_2  and  N1_3 
REMARK    1  A    between atoms: C1_2  and  C13_19 
REMARK    2  A    between atoms: N1_3  and  C2_4 
REMARK    3  A    between atoms: C2_4  and  C3_5 
REMARK    4  A    between atoms: C2_4  and  C9_13 
REMARK    5  A    between atoms: C18_26  and  N4_27 
REMARK    6  A    between atoms: N4_27  and  C19_28 
ROOT
HETATM    1  C13 UNL     1      -0.533  51.186 -19.720  1.00  0.00     0.034 A 
HETATM    2  C14 UNL     1       0.299  52.235 -20.118  1.00  0.00     0.018 A 
HETATM    3  C15 UNL     1       1.104  52.872 -19.176  1.00  0.00     0.016 A 
HETATM    4  C16 UNL     1       1.084  52.440 -17.838  1.00  0.00     0.006 A 
HETATM    5  C17 UNL     1       1.859  52.997 -16.837  1.00  0.00     0.104 A 
HETATM    6  N3  UNL     1       1.859  52.568 -15.563  1.00  0.00    -0.342 N 
ATOM      7  H3  UNL     1       2.439  53.010 -14.850  1.00  0.00     0.167 HD
HETATM    8  C18 UNL     1       1.060  51.533 -15.277  1.00  0.00     0.157 A 
HETATM    9  N5  UNL     1       0.252  50.940 -16.167  1.00  0.00    -0.332 N 
ATOM     10  H5  UNL     1      -0.359  50.172 -15.889  1.00  0.00     0.168 HD
HETATM   11  C24 UNL     1       0.269  51.383 -17.430  1.00  0.00     0.047 A 
HETATM   12  C25 UNL     1      -0.536  50.769 -18.382  1.00  0.00     0.047 A 
ENDROOT
BRANCH   1  13
HETATM   13  C1  UNL     1      -1.351  50.498 -20.755  1.00  0.00     0.252 C 
HETATM   14  O1  UNL     1      -0.800  49.934 -21.690  1.00  0.00    -0.268 OA
HETATM   15  N1  UNL     1      -2.724  50.564 -20.596  1.00  0.00    -0.345 N 
HETATM   16  H1  UNL     1      -3.060  51.408 -20.146  1.00  0.00     0.163 HD
BRANCH  15  17
HETATM   17  C2  UNL     1      -3.616  50.031 -21.638  1.00  0.00     0.159 C 
BRANCH  17  18
HETATM   18  C3  UNL     1      -4.642  49.061 -21.054  1.00  0.00    -0.030 A 
HETATM   19  C4  UNL     1      -5.455  49.463 -19.981  1.00  0.00     0.012 A 
HETATM   20  C5  UNL     1      -6.408  48.593 -19.442  1.00  0.00     0.044 A 
HETATM   21  C6  UNL     1      -6.565  47.320 -19.976  1.00  0.00     0.138 A 
HETATM   22  F1  UNL     1      -7.490  46.510 -19.443  1.00  0.00    -0.204 F 
HETATM   23  C7  UNL     1      -5.779  46.903 -21.046  1.00  0.00     0.073 A 
HETATM   24 CL1  UNL     1      -5.966  45.330 -21.712  1.00  0.00    -0.081 Cl
HETATM   25  C8  UNL     1      -4.824  47.768 -21.585  1.00  0.00     0.036 A 
ENDBRANCH  17  18
BRANCH  17  26
HETATM   26  C9  UNL     1      -4.222  51.185 -22.475  1.00  0.00     0.155 C 
HETATM   27  F2  UNL     1      -4.541  52.183 -21.571  1.00  0.00    -0.238 F 
HETATM   28  C10 UNL     1      -3.291  51.816 -23.513  1.00  0.00     0.078 C 
HETATM   29  C11 UNL     1      -4.152  52.007 -24.757  1.00  0.00     0.273 C 
HETATM   30  N2  UNL     1      -5.533  51.898 -24.302  1.00  0.00     0.086 N 
HETATM   31  C12 UNL     1      -5.499  50.867 -23.258  1.00  0.00     0.315 C 
HETATM   32  H10 UNL     1      -6.149  51.632 -25.067  1.00  0.00     0.316 HD
ENDBRANCH  17  26
ENDBRANCH  15  17
ENDBRANCH   1  13
BRANCH   8  33
HETATM   33  N4  UNL     1       1.020  51.001 -13.999  1.00  0.00    -0.259 NA
HETATM   34  H16 UNL     1       1.412  50.067 -14.065  1.00  0.00     0.131 HD
BRANCH  33  35
HETATM   35  C19 UNL     1      -0.226  51.142 -13.253  1.00  0.00     0.067 C 
HETATM   36  C20 UNL     1      -0.304  52.525 -12.599  1.00  0.00     0.046 C 
HETATM   37  C21 UNL     1      -1.519  52.609 -11.684  1.00  0.00     0.169 C 
HETATM   38  O2  UNL     1      -1.495  51.573 -10.702  1.00  0.00    -0.391 OA
HETATM   39  C22 UNL     1      -1.514  50.271 -11.285  1.00  0.00     0.169 C 
HETATM   40  C23 UNL     1      -0.291  50.060 -12.167  1.00  0.00     0.046 C 
ENDBRANCH  33  35
ENDBRANCH   8  33
TORSDOF 6
ENDMDL
MODEL 3
REMARK minimizedAffinity -8.51072598
REMARK CNNscore 0.150832087
REMARK CNNaffinity 6.33194304
REMARK  6 active torsions:
REMARK  status: ('A' for Active; 'I' for Inactive)
REMARK       I    between atoms: C1_2  and  N1_3 
REMARK    1  A    between atoms: C1_2  and  C13_19 
REMARK    2  A    between atoms: N1_3  and  C2_4 
REMARK    3  A    between atoms: C2_4  and  C3_5 
REMARK    4  A    between atoms: C2_4  and  C9_13 
REMARK    5  A    between atoms: C18_26  and  N4_27 
REMARK    6  A    between atoms: N4_27  and  C19_28 
ROOT
HETATM    1  C13 UNL     1      -0.552  51.833 -21.048  1.00  0.00     0.034 A 
HETATM    2  C14 UNL     1       0.446  52.805 -21.153  1.00  0.00     0.018 A 
HETATM    3  C15 UNL     1       1.173  53.172 -20.023  1.00  0.00     0.016 A 
HETATM    4  C16 UNL     1       0.906  52.548 -18.792  1.00  0.00     0.006 A 
HETATM    5  C17 UNL     1       1.585  52.833 -17.620  1.00  0.00     0.104 A 
HETATM    6  N3  UNL     1       1.347  52.219 -16.448  1.00  0.00    -0.342 N 
ATOM      7  H3  UNL     1       1.863  52.461 -15.603  1.00  0.00     0.167 HD
HETATM    8  C18 UNL     1       0.400  51.274 -16.445  1.00  0.00     0.157 A 
HETATM    9  N5  UNL     1      -0.332  50.942 -17.518  1.00  0.00    -0.332 N 
ATOM     10  H5  UNL     1      -1.063  50.232 -17.455  1.00  0.00     0.168 HD
HETATM   11  C24 UNL     1      -0.078  51.565 -18.675  1.00  0.00     0.047 A 
HETATM   12  C25 UNL     1      -0.801  51.222 -19.812  1.00  0.00     0.047 A 
ENDROOT
BRANCH   1  13
HETATM   13  C1  UNL     1      -1.284  51.432 -22.280  1.00  0.00     0.252 C 
HETATM   14  O1  UNL     1      -1.039  50.356 -22.809  1.00  0.00    -0.268 OA
HETATM   15  N1  UNL     1      -2.205  52.341 -22.770  1.00  0.00    -0.345 N 
HETATM   16  H1  UNL     1      -1.977  53.313 -22.596  1.00  0.00     0.163 HD
BRANCH  15  17
HETATM   17  C2  UNL     1      -2.878  52.092 -24.055  1.00  0.00     0.159 C 
BRANCH  17  18
HETATM   18  C3  UNL     1      -1.870  51.893 -25.185  1.00  0.00    -0.030 A 
HETATM   19  C4  UNL     1      -1.204  50.662 -25.322  1.00  0.00     0.012 A 
HETATM   20  C5  UNL     1      -0.288  50.457 -26.357  1.00  0.00     0.044 A 
HETATM   21  C6  UNL     1      -0.036  51.473 -27.271  1.00  0.00     0.138 A 
HETATM   22  F1  UNL     1       0.843  51.245 -28.257  1.00  0.00    -0.204 F 
HETATM   23  C7  UNL     1      -0.691  52.696 -27.164  1.00  0.00     0.073 A 
HETATM   24 CL1  UNL     1      -0.385  53.958 -28.290  1.00  0.00    -0.081 Cl
HETATM   25  C8  UNL     1      -1.605  52.905 -26.129  1.00  0.00     0.036 A 
ENDBRANCH  17  18
BRANCH  17  26
HETATM   26  C9  UNL     1      -3.919  50.954 -23.910  1.00  0.00     0.155 C 
HETATM   27  F2  UNL     1      -5.067  51.408 -24.538  1.00  0.00    -0.238 F 
HETATM   28  C10 UNL     1      -3.553  49.626 -24.577  1.00  0.00     0.078 C 
HETATM   29  C11 UNL     1      -3.953  48.551 -23.572  1.00  0.00     0.273 C 
HETATM   30  N2  UNL     1      -4.856  49.206 -22.633  1.00  0.00     0.086 N 
HETATM   31  C12 UNL     1      -4.315  50.563 -22.484  1.00  0.00     0.315 C 
HETATM   32  H10 UNL     1      -4.874  48.714 -21.741  1.00  0.00     0.316 HD
ENDBRANCH  17  26
ENDBRANCH  15  17
ENDBRANCH   1  13
BRANCH   8  33
HETATM   33  N4  UNL     1       0.110  50.564 -15.293  1.00  0.00    -0.259 NA
HETATM   34  H16 UNL     1       0.696  50.953 -14.561  1.00  0.00     0.131 HD
BRANCH  33  35
HETATM   35  C19 UNL     1       0.064  49.109 -15.395  1.00  0.00     0.067 C 
HETATM   36  C20 UNL     1      -1.216  48.568 -14.751  1.00  0.00     0.046 C 
HETATM   37  C21 UNL     1      -1.182  47.046 -14.705  1.00  0.00     0.169 C 
HETATM   38  O2  UNL     1      -0.021  46.578 -14.020  1.00  0.00    -0.391 OA
HETATM   39  C22 UNL     1       1.188  46.992 -14.654  1.00  0.00     0.169 C 
HETATM   40  C23 UNL     1       1.285  48.512 -14.683  1.00  0.00     0.046 C 
ENDBRANCH  33  35
ENDBRANCH   8  33
TORSDOF 6
ENDMDL
MODEL 4
REMARK minimizedAffinity -9.25520706
REMARK CNNscore 0.148523226
REMARK CNNaffinity 6.61780024
REMARK  6 active torsions:
REMARK  status: ('A' for Active; 'I' for Inactive)
REMARK       I    between atoms: C1_2  and  N1_3 
REMARK    1  A    between atoms: C1_2  and  C13_19 
REMARK    2  A    between atoms: N1_3  and  C2_4 
REMARK    3  A    between atoms: C2_4  and  C3_5 
REMARK    4  A    between atoms: C2_4  and  C9_13 
REMARK    5  A    between atoms: C18_26  and  N4_27 
REMARK    6  A    between atoms: N4_27  and  C19_28 
ROOT
HETATM    1  C13 UNL     1      -1.714  50.611 -21.855  1.00  0.00     0.034 A 
HETATM    2  C14 UNL     1      -0.993  51.242 -22.871  1.00  0.00     0.018 A 
HETATM    3  C15 UNL     1      -0.010  52.173 -22.542  1.00  0.00     0.016 A 
HETATM    4  C16 UNL     1       0.258  52.454 -21.192  1.00  0.00     0.006 A 
HETATM    5  C17 UNL     1       1.226  53.348 -20.768  1.00  0.00     0.104 A 
HETATM    6  N3  UNL     1       1.500  53.599 -19.476  1.00  0.00    -0.342 N 
ATOM      7  H3  UNL     1       2.215  54.271 -19.202  1.00  0.00     0.167 HD
HETATM    8  C18 UNL     1       0.787  52.922 -18.568  1.00  0.00     0.157 A 
HETATM    9  N5  UNL     1      -0.188  52.055 -18.873  1.00  0.00    -0.332 N 
ATOM     10  H5  UNL     1      -0.721  51.586 -18.140  1.00  0.00     0.168 HD
HETATM   11  C24 UNL     1      -0.444  51.819 -20.166  1.00  0.00     0.047 A 
HETATM   12  C25 UNL     1      -1.430  50.904 -20.514  1.00  0.00     0.047 A 
ENDROOT
BRANCH   1  13
HETATM   13  C1  UNL     1      -2.730  49.592 -22.233  1.00  0.00     0.252 C 
HETATM   14  O1  UNL     1      -2.379  48.444 -22.473  1.00  0.00    -0.268 OA
HETATM   15  N1  UNL     1      -4.040  50.030 -22.312  1.00  0.00    -0.345 N 
HETATM   16  H1  UNL     1      -4.148  50.999 -22.591  1.00  0.00     0.163 HD
BRANCH  15  17
HETATM   17  C2  UNL     1      -5.093  49.130 -22.808  1.00  0.00     0.159 C 
BRANCH  17  18
HETATM   18  C3  UNL     1      -4.896  48.802 -24.287  1.00  0.00    -0.030 A 
HETATM   19  C4  UNL     1      -3.642  49.001 -24.889  1.00  0.00     0.012 A 
HETATM   20  C5  UNL     1      -3.441  48.694 -26.238  1.00  0.00     0.044 A 
HETATM   21  C6  UNL     1      -4.485  48.176 -26.994  1.00  0.00     0.138 A 
HETATM   22  F1  UNL     1      -4.260  47.886 -28.284  1.00  0.00    -0.204 F 
HETATM   23  C7  UNL     1      -5.732  47.959 -26.418  1.00  0.00     0.073 A 
HETATM   24 CL1  UNL     1      -7.029  47.319 -27.348  1.00  0.00    -0.081 Cl
HETATM   25  C8  UNL     1      -5.938  48.267 -25.072  1.00  0.00     0.036 A 
ENDBRANCH  17  18
BRANCH  17  26
HETATM   26  C9  UNL     1      -5.230  47.893 -21.885  1.00  0.00     0.155 C 
HETATM   27  F2  UNL     1      -4.371  46.938 -22.401  1.00  0.00    -0.238 F 
HETATM   28  C10 UNL     1      -4.823  48.103 -20.425  1.00  0.00     0.078 C 
HETATM   29  C11 UNL     1      -5.894  47.390 -19.606  1.00  0.00     0.273 C 
HETATM   30  N2  UNL     1      -6.577  46.502 -20.539  1.00  0.00     0.086 N 
HETATM   31  C12 UNL     1      -6.616  47.250 -21.802  1.00  0.00     0.315 C 
HETATM   32  H10 UNL     1      -7.515  46.280 -20.210  1.00  0.00     0.316 HD
ENDBRANCH  17  26
ENDBRANCH  15  17
ENDBRANCH   1  13
BRANCH   8  33
HETATM   33  N4  UNL     1       1.024  53.089 -17.214  1.00  0.00    -0.259 NA
HETATM   34  H16 UNL     1       1.232  54.073 -17.078  1.00  0.00     0.131 HD
BRANCH  33  35
HETATM   35  C19 UNL     1       1.914  52.132 -16.566  1.00  0.00     0.067 C 
HETATM   36  C20 UNL     1       1.298  51.632 -15.255  1.00  0.00     0.046 C 
HETATM   37  C21 UNL     1       2.298  50.768 -14.498  1.00  0.00     0.169 C 
HETATM   38  O2  UNL     1       3.514  51.477 -14.260  1.00  0.00    -0.391 OA
HETATM   39  C22 UNL     1       4.156  51.875 -15.470  1.00  0.00     0.169 C 
HETATM   40  C23 UNL     1       3.259  52.809 -16.272  1.00  0.00     0.046 C 
ENDBRANCH  33  35
ENDBRANCH   8  33
TORSDOF 6
ENDMDL
MODEL 5
REMARK minimizedAffinity -7.95963717
REMARK CNNscore 0.120152965
REMARK CNNaffinity 5.43855476
REMARK  6 active torsions:
REMARK  status: ('A' for Active; 'I' for Inactive)
REMARK       I    between atoms: C1_2  and  N1_3 
REMARK    1  A    between atoms: C1_2  and  C13_19 
REMARK    2  A    between atoms: N1_3  and  C2_4 
REMARK    3  A    between atoms: C2_4  and  C3_5 
REMARK    4  A    between atoms: C2_4  and  C9_13 
REMARK    5  A    between atoms: C18_26  and  N4_27 
REMARK    6  A    between atoms: N4_27  and  C19_28 
ROOT
HETATM    1  C13 UNL     1      -6.528  47.807 -27.841  1.00  0.00     0.034 A 
HETATM    2  C14 UNL     1      -5.368  48.015 -28.591  1.00  0.00     0.018 A 
HETATM    3  C15 UNL     1      -4.173  48.318 -27.944  1.00  0.00     0.016 A 
HETATM    4  C16 UNL     1      -4.142  48.395 -26.541  1.00  0.00     0.006 A 
HETATM    5  C17 UNL     1      -3.001  48.672 -25.808  1.00  0.00     0.104 A 
HETATM    6  N3  UNL     1      -2.966  48.721 -24.465  1.00  0.00    -0.342 N 
ATOM      7  H3  UNL     1      -2.107  48.937 -23.961  1.00  0.00     0.167 HD
HETATM    8  C18 UNL     1      -4.115  48.473 -23.824  1.00  0.00     0.157 A 
HETATM    9  N5  UNL     1      -5.278  48.219 -24.440  1.00  0.00    -0.332 N 
ATOM     10  H5  UNL     1      -6.132  48.065 -23.903  1.00  0.00     0.168 HD
HETATM   11  C24 UNL     1      -5.290  48.175 -25.777  1.00  0.00     0.047 A 
HETATM   12  C25 UNL     1      -6.476  47.886 -26.443  1.00  0.00     0.047 A 
ENDROOT
BRANCH   1  13
HETATM   13  C1  UNL     1      -7.781  47.445 -28.557  1.00  0.00     0.252 C 
HETATM   14  O1  UNL     1      -7.940  46.302 -28.963  1.00  0.00    -0.268 OA
HETATM   15  N1  UNL     1      -8.700  48.463 -28.740  1.00  0.00    -0.345 N 
HETATM   16  H1  UNL     1      -8.296  49.388 -28.838  1.00  0.00     0.163 HD
BRANCH  15  17
HETATM   17  C2  UNL     1      -9.905  48.235 -29.553  1.00  0.00     0.159 C 
BRANCH  17  18
HETATM   18  C3  UNL     1      -9.549  47.771 -30.964  1.00  0.00    -0.030 A 
HETATM   19  C4  UNL     1      -8.460  48.350 -31.639  1.00  0.00     0.012 A 
HETATM   20  C5  UNL     1      -8.112  47.930 -32.925  1.00  0.00     0.044 A 
HETATM   21  C6  UNL     1      -8.839  46.921 -33.545  1.00  0.00     0.138 A 
HETATM   22  F1  UNL     1      -8.478  46.535 -34.777  1.00  0.00    -0.204 F 
HETATM   23  C7  UNL     1      -9.914  46.324 -32.894  1.00  0.00     0.073 A 
HETATM   24 CL1  UNL     1     -10.818  45.076 -33.654  1.00  0.00    -0.081 Cl
HETATM   25  C8  UNL     1     -10.267  46.744 -31.610  1.00  0.00     0.036 A 
ENDBRANCH  17  18
BRANCH  17  26
HETATM   26  C9  UNL     1     -10.899  47.314 -28.802  1.00  0.00     0.155 C 
HETATM   27  F2  UNL     1     -10.531  47.365 -27.469  1.00  0.00    -0.238 F 
HETATM   28  C10 UNL     1     -12.371  47.729 -28.865  1.00  0.00     0.078 C 
HETATM   29  C11 UNL     1     -13.141  46.434 -29.098  1.00  0.00     0.273 C 
HETATM   30  N2  UNL     1     -12.218  45.359 -28.754  1.00  0.00     0.086 N 
HETATM   31  C12 UNL     1     -10.906  45.837 -29.207  1.00  0.00     0.315 C 
HETATM   32  H10 UNL     1     -12.479  44.492 -29.221  1.00  0.00     0.316 HD
ENDBRANCH  17  26
ENDBRANCH  15  17
ENDBRANCH   1  13
BRANCH   8  33
HETATM   33  N4  UNL     1      -4.166  48.466 -22.441  1.00  0.00    -0.259 NA
HETATM   34  H16 UNL     1      -5.022  48.947 -22.183  1.00  0.00     0.131 HD
BRANCH  33  35
HETATM   35  C19 UNL     1      -2.955  48.849 -21.723  1.00  0.00     0.067 C 
HETATM   36  C20 UNL     1      -2.335  47.629 -21.033  1.00  0.00     0.046 C 
HETATM   37  C21 UNL     1      -1.173  48.057 -20.147  1.00  0.00     0.169 C 
HETATM   38  O2  UNL     1      -1.587  49.036 -19.194  1.00  0.00    -0.391 OA
HETATM   39  C22 UNL     1      -2.083  50.221 -19.813  1.00  0.00     0.169 C 
HETATM   40  C23 UNL     1      -3.303  49.909 -20.670  1.00  0.00     0.046 C 
ENDBRANCH  33  35
ENDBRANCH   8  33
TORSDOF 6
ENDMDL
MODEL 6
REMARK minimizedAffinity -9.58415127
REMARK CNNscore 0.119731605
REMARK CNNaffinity 6.26804876
REMARK  6 active torsions:
REMARK  status: ('A' for Active; 'I' for Inactive)
REMARK       I    between atoms: C1_2  and  N1_3 
REMARK    1  A    between atoms: C1_2  and  C13_19 
REMARK    2  A    between atoms: N1_3  and  C2_4 
REMARK    3  A    between atoms: C2_4  and  C3_5 
REMARK    4  A    between atoms: C2_4  and  C9_13 
REMARK    5  A    between atoms: C18_26  and  N4_27 
REMARK    6  A    between atoms: N4_27  and  C19_28 
ROOT
HETATM    1  C13 UNL     1      -2.997  51.279 -20.581  1.00  0.00     0.034 A 
HETATM    2  C14 UNL     1      -4.297  50.942 -20.965  1.00  0.00     0.018 A 
HETATM    3  C15 UNL     1      -4.708  51.164 -22.277  1.00  0.00     0.016 A 
HETATM    4  C16 UNL     1      -3.804  51.709 -23.206  1.00  0.00     0.006 A 
HETATM    5  C17 UNL     1      -4.114  51.949 -24.533  1.00  0.00     0.104 A 
HETATM    6  N3  UNL     1      -3.243  52.446 -25.428  1.00  0.00    -0.342 N 
ATOM      7  H3  UNL     1      -3.510  52.617 -26.397  1.00  0.00     0.167 HD
HETATM    8  C18 UNL     1      -2.007  52.705 -24.984  1.00  0.00     0.157 A 
HETATM    9  N5  UNL     1      -1.614  52.532 -23.714  1.00  0.00    -0.332 N 
ATOM     10  H5  UNL     1      -0.666  52.773 -23.422  1.00  0.00     0.168 HD
HETATM   11  C24 UNL     1      -2.497  52.036 -22.840  1.00  0.00     0.047 A 
HETATM   12  C25 UNL     1      -2.111  51.818 -21.523  1.00  0.00     0.047 A 
ENDROOT
BRANCH   1  13
HETATM   13  C1  UNL     1      -2.573  50.993 -19.184  1.00  0.00     0.252 C 
HETATM   14  O1  UNL     1      -2.838  51.788 -18.293  1.00  0.00    -0.268 OA
HETATM   15  N1  UNL     1      -1.866  49.820 -18.985  1.00  0.00    -0.345 N 
HETATM   16  H1  UNL     1      -1.294  49.530 -19.771  1.00  0.00     0.163 HD
BRANCH  15  17
HETATM   17  C2  UNL     1      -1.289  49.518 -17.666  1.00  0.00     0.159 C 
BRANCH  17  18
HETATM   18  C3  UNL     1      -0.172  50.496 -17.307  1.00  0.00    -0.030 A 
HETATM   19  C4  UNL     1       0.129  51.565 -18.168  1.00  0.00     0.012 A 
HETATM   20  C5  UNL     1       1.139  52.476 -17.850  1.00  0.00     0.044 A 
HETATM   21  C6  UNL     1       1.851  52.336 -16.665  1.00  0.00     0.138 A 
HETATM   22  F1  UNL     1       2.811  53.229 -16.384  1.00  0.00    -0.204 F 
HETATM   23  C7  UNL     1       1.565  51.293 -15.790  1.00  0.00     0.073 A 
HETATM   24 CL1  UNL     1       2.442  51.112 -14.323  1.00  0.00    -0.081 Cl
HETATM   25  C8  UNL     1       0.558  50.378 -16.106  1.00  0.00     0.036 A 
ENDBRANCH  17  18
BRANCH  17  26
HETATM   26  C9  UNL     1      -2.407  49.396 -16.600  1.00  0.00     0.155 C 
HETATM   27  F2  UNL     1      -3.583  49.199 -17.304  1.00  0.00    -0.238 F 
HETATM   28  C10 UNL     1      -2.277  48.220 -15.629  1.00  0.00     0.078 C 
HETATM   29  C11 UNL     1      -2.631  48.792 -14.260  1.00  0.00     0.273 C 
HETATM   30  N2  UNL     1      -3.316  50.052 -14.524  1.00  0.00     0.086 N 
HETATM   31  C12 UNL     1      -2.627  50.611 -15.694  1.00  0.00     0.315 C 
HETATM   32  H10 UNL     1      -3.253  50.677 -13.723  1.00  0.00     0.316 HD
ENDBRANCH  17  26
ENDBRANCH  15  17
ENDBRANCH   1  13
BRANCH   8  33
HETATM   33  N4  UNL     1      -1.033  53.186 -25.842  1.00  0.00    -0.259 NA
HETATM   34  H16 UNL     1      -1.505  53.795 -26.501  1.00  0.00     0.131 HD
BRANCH  33  35
HETATM   35  C19 UNL     1      -0.092  52.218 -26.398  1.00  0.00     0.067 C 
HETATM   36  C20 UNL     1       1.227  52.246 -25.618  1.00  0.00     0.046 C 
HETATM   37  C21 UNL     1       2.263  51.364 -26.301  1.00  0.00     0.169 C 
HETATM   38  O2  UNL     1       2.457  51.758 -27.660  1.00  0.00    -0.391 OA
HETATM   39  C22 UNL     1       1.263  51.653 -28.432  1.00  0.00     0.169 C 
HETATM   40  C23 UNL     1       0.178  52.562 -27.869  1.00  0.00     0.046 C 
ENDBRANCH  33  35
ENDBRANCH   8  33
TORSDOF 6
ENDMDL
MODEL 7
REMARK minimizedAffinity -8.20551777
REMARK CNNscore 0.111634105
REMARK CNNaffinity 6.33650589
REMARK  6 active torsions:
REMARK  status: ('A' for Active; 'I' for Inactive)
REMARK       I    between atoms: C1_2  and  N1_3 
REMARK    1  A    between atoms: C1_2  and  C13_19 
REMARK    2  A    between atoms: N1_3  and  C2_4 
REMARK    3  A    between atoms: C2_4  and  C3_5 
REMARK    4  A    between atoms: C2_4  and  C9_13 
REMARK    5  A    between atoms: C18_26  and  N4_27 
REMARK    6  A    between atoms: N4_27  and  C19_28 
ROOT
HETATM    1  C13 UNL     1      -0.202  51.476 -19.632  1.00  0.00     0.034 A 
HETATM    2  C14 UNL     1       0.664  52.572 -19.639  1.00  0.00     0.018 A 
HETATM    3  C15 UNL     1       1.294  52.960 -18.459  1.00  0.00     0.016 A 
HETATM    4  C16 UNL     1       1.066  52.234 -17.278  1.00  0.00     0.006 A 
HETATM    5  C17 UNL     1       1.659  52.532 -16.063  1.00  0.00     0.104 A 
HETATM    6  N3  UNL     1       1.461  51.822 -14.939  1.00  0.00    -0.342 N 
ATOM      7  H3  UNL     1       1.909  52.078 -14.059  1.00  0.00     0.167 HD
HETATM    8  C18 UNL     1       0.645  50.765 -15.030  1.00  0.00     0.157 A 
HETATM    9  N5  UNL     1       0.003  50.407 -16.151  1.00  0.00    -0.332 N 
ATOM     10  H5  UNL     1      -0.630  49.608 -16.160  1.00  0.00     0.168 HD
HETATM   11  C24 UNL     1       0.215  51.127 -17.260  1.00  0.00     0.047 A 
HETATM   12  C25 UNL     1      -0.414  50.764 -18.444  1.00  0.00     0.047 A 
ENDROOT
BRANCH   1  13
HETATM   13  C1  UNL     1      -0.829  51.060 -20.915  1.00  0.00     0.252 C 
HETATM   14  O1  UNL     1      -0.390  50.091 -21.521  1.00  0.00    -0.268 OA
HETATM   15  N1  UNL     1      -1.886  51.834 -21.362  1.00  0.00    -0.345 N 
HETATM   16  H1  UNL     1      -1.835  52.813 -21.103  1.00  0.00     0.163 HD
BRANCH  15  17
HETATM   17  C2  UNL     1      -2.481  51.582 -22.684  1.00  0.00     0.159 C 
BRANCH  17  18
HETATM   18  C3  UNL     1      -1.477  51.834 -23.807  1.00  0.00    -0.030 A 
HETATM   19  C4  UNL     1      -0.246  52.449 -23.522  1.00  0.00     0.012 A 
HETATM   20  C5  UNL     1       0.690  52.677 -24.534  1.00  0.00     0.044 A 
HETATM   21  C6  UNL     1       0.411  52.283 -25.837  1.00  0.00     0.138 A 
HETATM   22  F1  UNL     1       1.331  52.509 -26.786  1.00  0.00    -0.204 F 
HETATM   23  C7  UNL     1      -0.795  51.661 -26.143  1.00  0.00     0.073 A 
HETATM   24 CL1  UNL     1      -1.148  51.171 -27.752  1.00  0.00    -0.081 Cl
HETATM   25  C8  UNL     1      -1.734  51.435 -25.134  1.00  0.00     0.036 A 
ENDBRANCH  17  18
BRANCH  17  26
HETATM   26  C9  UNL     1      -3.153  50.186 -22.719  1.00  0.00     0.155 C 
HETATM   27  F2  UNL     1      -2.187  49.312 -23.189  1.00  0.00    -0.238 F 
HETATM   28  C10 UNL     1      -3.620  49.635 -21.370  1.00  0.00     0.078 C 
HETATM   29  C11 UNL     1      -4.990  49.023 -21.641  1.00  0.00     0.273 C 
HETATM   30  N2  UNL     1      -5.070  48.862 -23.088  1.00  0.00     0.086 N 
HETATM   31  C12 UNL     1      -4.373  50.034 -23.631  1.00  0.00     0.315 C 
HETATM   32  H10 UNL     1      -6.039  48.829 -23.399  1.00  0.00     0.316 HD
ENDBRANCH  17  26
ENDBRANCH  15  17
ENDBRANCH   1  13
BRANCH   8  33
HETATM   33  N4  UNL     1       0.409  49.955 -13.933  1.00  0.00    -0.259 NA
HETATM   34  H16 UNL     1       0.478  48.998 -14.262  1.00  0.00     0.131 HD
BRANCH  33  35
HETATM   35  C19 UNL     1      -0.738  50.282 -13.092  1.00  0.00     0.067 C 
HETATM   36  C20 UNL     1      -1.995  49.571 -13.605  1.00  0.00     0.046 C 
HETATM   37  C21 UNL     1      -3.221  50.045 -12.835  1.00  0.00     0.169 C 
HETATM   38  O2  UNL     1      -3.360  51.464 -12.914  1.00  0.00    -0.391 OA
HETATM   39  C22 UNL     1      -2.241  52.151 -12.359  1.00  0.00     0.169 C 
HETATM   40  C23 UNL     1      -0.966  51.799 -13.114  1.00  0.00     0.046 C 
ENDBRANCH  33  35
ENDBRANCH   8  33
TORSDOF 6
ENDMDL
MODEL 8
REMARK minimizedAffinity -8.63207054
REMARK CNNscore 0.111163892
REMARK CNNaffinity 5.86793184
REMARK  6 active torsions:
REMARK  status: ('A' for Active; 'I' for Inactive)
REMARK       I    between atoms: C1_2  and  N1_3 
REMARK    1  A    between atoms: C1_2  and  C13_19 
REMARK    2  A    between atoms: N1_3  and  C2_4 
REMARK    3  A    between atoms: C2_4  and  C3_5 
REMARK    4  A    between atoms: C2_4  and  C9_13 
REMARK    5  A    between atoms: C18_26  and  N4_27 
REMARK    6  A    between atoms: N4_27  and  C19_28 
ROOT
HETATM    1  C13 UNL     1      -5.341  48.148 -27.327  1.00  0.00     0.034 A 
HETATM    2  C14 UNL     1      -6.191  47.733 -26.299  1.00  0.00     0.018 A 
HETATM    3  C15 UNL     1      -7.493  47.341 -26.598  1.00  0.00     0.016 A 
HETATM    4  C16 UNL     1      -7.935  47.351 -27.932  1.00  0.00     0.006 A 
HETATM    5  C17 UNL     1      -9.203  46.964 -28.327  1.00  0.00     0.104 A 
HETATM    6  N3  UNL     1      -9.617  46.949 -29.606  1.00  0.00    -0.342 N 
ATOM      7  H3  UNL     1     -10.563  46.665 -29.859  1.00  0.00     0.167 HD
HETATM    8  C18 UNL     1      -8.726  47.326 -30.531  1.00  0.00     0.157 A 
HETATM    9  N5  UNL     1      -7.484  47.743 -30.251  1.00  0.00    -0.332 N 
ATOM     10  H5  UNL     1      -6.853  48.047 -30.993  1.00  0.00     0.168 HD
HETATM   11  C24 UNL     1      -7.092  47.749 -28.971  1.00  0.00     0.047 A 
HETATM   12  C25 UNL     1      -5.799  48.148 -28.652  1.00  0.00     0.047 A 
ENDROOT
BRANCH   1  13
HETATM   13  C1  UNL     1      -3.942  48.522 -26.985  1.00  0.00     0.252 C 
HETATM   14  O1  UNL     1      -3.015  48.088 -27.656  1.00  0.00    -0.268 OA
HETATM   15  N1  UNL     1      -3.778  49.342 -25.882  1.00  0.00    -0.345 N 
HETATM   16  H1  UNL     1      -4.476  49.223 -25.157  1.00  0.00     0.163 HD
BRANCH  15  17
HETATM   17  C2  UNL     1      -2.429  49.655 -25.387  1.00  0.00     0.159 C 
BRANCH  17  18
HETATM   18  C3  UNL     1      -1.765  50.748 -26.222  1.00  0.00    -0.030 A 
HETATM   19  C4  UNL     1      -2.514  51.859 -26.646  1.00  0.00     0.012 A 
HETATM   20  C5  UNL     1      -1.920  52.875 -27.400  1.00  0.00     0.044 A 
HETATM   21  C6  UNL     1      -0.572  52.797 -27.728  1.00  0.00     0.138 A 
HETATM   22  F1  UNL     1      -0.029  53.790 -28.447  1.00  0.00    -0.204 F 
HETATM   23  C7  UNL     1       0.193  51.713 -27.310  1.00  0.00     0.073 A 
HETATM   24 CL1  UNL     1       1.861  51.610 -27.712  1.00  0.00    -0.081 Cl
HETATM   25  C8  UNL     1      -0.397  50.695 -26.559  1.00  0.00     0.036 A 
ENDBRANCH  17  18
BRANCH  17  26
HETATM   26  C9  UNL     1      -2.462  49.936 -23.864  1.00  0.00     0.155 C 
HETATM   27  F2  UNL     1      -2.410  48.697 -23.248  1.00  0.00    -0.238 F 
HETATM   28  C10 UNL     1      -1.289  50.749 -23.310  1.00  0.00     0.078 C 
HETATM   29  C11 UNL     1      -1.915  51.740 -22.335  1.00  0.00     0.273 C 
HETATM   30  N2  UNL     1      -3.249  51.225 -22.052  1.00  0.00     0.086 N 
HETATM   31  C12 UNL     1      -3.704  50.651 -23.325  1.00  0.00     0.315 C 
HETATM   32  H10 UNL     1      -3.869  51.970 -21.739  1.00  0.00     0.316 HD
ENDBRANCH  17  26
ENDBRANCH  15  17
ENDBRANCH   1  13
BRANCH   8  33
HETATM   33  N4  UNL     1      -9.052  47.310 -31.877  1.00  0.00    -0.259 NA
HETATM   34  H16 UNL     1      -9.753  48.031 -32.012  1.00  0.00     0.131 HD
BRANCH  33  35
HETATM   35  C19 UNL     1      -9.319  46.010 -32.486  1.00  0.00     0.067 C 
HETATM   36  C20 UNL     1      -8.462  45.823 -33.742  1.00  0.00     0.046 C 
HETATM   37  C21 UNL     1      -8.863  44.547 -34.470  1.00  0.00     0.169 C 
HETATM   38  O2  UNL     1     -10.254  44.553 -34.789  1.00  0.00    -0.391 OA
HETATM   39  C22 UNL     1     -11.078  44.635 -33.628  1.00  0.00     0.169 C 
HETATM   40  C23 UNL     1     -10.804  45.923 -32.864  1.00  0.00     0.046 C 
ENDBRANCH  33  35
ENDBRANCH   8  33
TORSDOF 6
ENDMDL
MODEL 9
REMARK minimizedAffinity -9.74519539
REMARK CNNscore 0.107618555
REMARK CNNaffinity 6.07532644
REMARK  6 active torsions:
REMARK  status: ('A' for Active; 'I' for Inactive)
REMARK       I    between atoms: C1_2  and  N1_3 
REMARK    1  A    between atoms: C1_2  and  C13_19 
REMARK    2  A    between atoms: N1_3  and  C2_4 
REMARK    3  A    between atoms: C2_4  and  C3_5 
REMARK    4  A    between atoms: C2_4  and  C9_13 
REMARK    5  A    between atoms: C18_26  and  N4_27 
REMARK    6  A    between atoms: N4_27  and  C19_28 
ROOT
HETATM    1  C13 UNL     1      -3.284  49.696 -26.659  1.00  0.00     0.034 A 
HETATM    2  C14 UNL     1      -3.971  48.890 -25.748  1.00  0.00     0.018 A 
HETATM    3  C15 UNL     1      -5.010  48.077 -26.194  1.00  0.00     0.016 A 
HETATM    4  C16 UNL     1      -5.346  48.063 -27.558  1.00  0.00     0.006 A 
HETATM    5  C17 UNL     1      -6.350  47.277 -28.097  1.00  0.00     0.104 A 
HETATM    6  N3  UNL     1      -6.654  47.245 -29.406  1.00  0.00    -0.342 N 
ATOM      7  H3  UNL     1      -7.407  46.658 -29.766  1.00  0.00     0.167 HD
HETATM    8  C18 UNL     1      -5.921  48.020 -30.214  1.00  0.00     0.157 A 
HETATM    9  N5  UNL     1      -4.946  48.835 -29.790  1.00  0.00    -0.332 N 
ATOM     10  H5  UNL     1      -4.436  49.428 -30.446  1.00  0.00     0.168 HD
HETATM   11  C24 UNL     1      -4.658  48.852 -28.482  1.00  0.00     0.047 A 
HETATM   12  C25 UNL     1      -3.633  49.666 -28.016  1.00  0.00     0.047 A 
ENDROOT
BRANCH   1  13
HETATM   13  C1  UNL     1      -2.152  50.523 -26.162  1.00  0.00     0.252 C 
HETATM   14  O1  UNL     1      -1.036  50.031 -26.064  1.00  0.00    -0.268 OA
HETATM   15  N1  UNL     1      -2.452  51.828 -25.811  1.00  0.00    -0.345 N 
HETATM   16  H1  UNL     1      -3.392  51.967 -25.456  1.00  0.00     0.163 HD
BRANCH  15  17
HETATM   17  C2  UNL     1      -1.430  52.679 -25.184  1.00  0.00     0.159 C 
BRANCH  17  18
HETATM   18  C3  UNL     1      -0.979  52.114 -23.838  1.00  0.00    -0.030 A 
HETATM   19  C4  UNL     1      -1.569  50.940 -23.338  1.00  0.00     0.012 A 
HETATM   20  C5  UNL     1      -1.161  50.401 -22.115  1.00  0.00     0.044 A 
HETATM   21  C6  UNL     1      -0.153  51.021 -21.386  1.00  0.00     0.138 A 
HETATM   22  F1  UNL     1       0.221  50.477 -20.219  1.00  0.00    -0.204 F 
HETATM   23  C7  UNL     1       0.454  52.177 -21.865  1.00  0.00     0.073 A 
HETATM   24 CL1  UNL     1       1.701  52.950 -20.969  1.00  0.00    -0.081 Cl
HETATM   25  C8  UNL     1       0.047  52.720 -23.085  1.00  0.00     0.036 A 
ENDBRANCH  17  18
BRANCH  17  26
HETATM   26  C9  UNL     1      -0.279  52.970 -26.180  1.00  0.00     0.155 C 
HETATM   27  F2  UNL     1       0.141  54.261 -25.909  1.00  0.00    -0.238 F 
HETATM   28  C10 UNL     1       0.955  52.073 -26.053  1.00  0.00     0.078 C 
HETATM   29  C11 UNL     1       1.351  51.734 -27.486  1.00  0.00     0.273 C 
HETATM   30  N2  UNL     1       0.665  52.709 -28.326  1.00  0.00     0.086 N 
HETATM   31  C12 UNL     1      -0.631  52.918 -27.669  1.00  0.00     0.315 C 
HETATM   32  H10 UNL     1       0.548  52.356 -29.274  1.00  0.00     0.316 HD
ENDBRANCH  17  26
ENDBRANCH  15  17
ENDBRANCH   1  13
BRANCH   8  33
HETATM   33  N4  UNL     1      -6.140  48.025 -31.581  1.00  0.00    -0.259 NA
HETATM   34  H16 UNL     1      -7.018  48.511 -31.730  1.00  0.00     0.131 HD
BRANCH  33  35
HETATM   35  C19 UNL     1      -5.955  46.765 -32.294  1.00  0.00     0.067 C 
HETATM   36  C20 UNL     1      -7.134  45.823 -32.029  1.00  0.00     0.046 C 
HETATM   37  C21 UNL     1      -6.860  44.452 -32.632  1.00  0.00     0.169 C 
HETATM   38  O2  UNL     1      -5.639  43.906 -32.133  1.00  0.00    -0.391 OA
HETATM   39  C22 UNL     1      -4.512  44.720 -32.447  1.00  0.00     0.169 C 
HETATM   40  C23 UNL     1      -4.655  46.101 -31.822  1.00  0.00     0.046 C 
ENDBRANCH  33  35
ENDBRANCH   8  33
TORSDOF 6
ENDMDL
