MODEL 1
REMARK minimizedAffinity -10.1307764
REMARK CNNscore 0.374922931
REMARK CNNaffinity 7.01772928
REMARK  9 active torsions:
REMARK  status: ('A' for Active; 'I' for Inactive)
REMARK    1  A    between atoms: O1_2  and  C2_3 
REMARK    2  A    between atoms: C2_3  and  C3_4 
REMARK    3  A    between atoms: C3_4  and  C4_5 
REMARK       I    between atoms: C4_5  and  N1_7 
REMARK    4  A    between atoms: N1_7  and  C5_8 
REMARK    5  A    between atoms: C9_15  and  C10_16 
REMARK    6  A    between atoms: N4_27  and  C20_28 
REMARK    7  A    between atoms: C20_28  and  C21_29 
REMARK       I    between atoms: C21_29  and  N5_31 
REMARK    8  A    between atoms: N6_34  and  C24_35 
REMARK    9  A    between atoms: C27_38  and  C28_39 
ROOT
HETATM    1  C3  UNL     1      -2.597  48.717 -19.866  1.00  0.00     0.090 C 
HETATM    2  C18 UNL     1      -2.722  47.340 -20.541  1.00  0.00     0.053 C 
HETATM    3  C19 UNL     1      -3.943  47.454 -21.443  1.00  0.00     0.274 C 
HETATM    4  N4  UNL     1      -4.831  48.411 -20.772  1.00  0.00     0.098 N 
HETATM    5  C36 UNL     1      -3.930  49.421 -20.195  1.00  0.00     0.294 C 
ENDROOT
BRANCH   1   6
HETATM    6  C2  UNL     1      -2.433  48.602 -18.338  1.00  0.00     0.188 C 
BRANCH   6   7
HETATM    7  O1  UNL     1      -3.452  49.367 -17.671  1.00  0.00    -0.395 OA
HETATM    8  C1  UNL     1      -2.882  50.376 -16.842  1.00  0.00     0.201 C 
ENDBRANCH   6   7
ENDBRANCH   1   6
BRANCH   1   9
HETATM    9  C4  UNL     1      -1.395  49.491 -20.452  1.00  0.00     0.234 C 
HETATM   10  O2  UNL     1      -0.442  48.916 -20.972  1.00  0.00    -0.272 OA
HETATM   11  N1  UNL     1      -1.495  50.864 -20.284  1.00  0.00    -0.326 N 
HETATM   12  H6  UNL     1      -2.377  51.193 -19.891  1.00  0.00     0.169 HD
BRANCH  11  13
HETATM   13  C5  UNL     1      -0.624  51.861 -20.773  1.00  0.00     0.035 A 
HETATM   14  C6  UNL     1      -0.032  52.708 -19.826  1.00  0.00     0.032 A 
HETATM   15  C7  UNL     1       0.810  53.765 -20.201  1.00  0.00     0.034 A 
HETATM   16  C8  UNL     1       1.034  53.944 -21.568  1.00  0.00     0.060 A 
HETATM   17  N2  UNL     1       1.757  54.876 -22.257  1.00  0.00    -0.299 N 
HETATM   18  C16 UNL     1       0.489  53.114 -22.539  1.00  0.00     0.023 A 
HETATM   19  N3  UNL     1       1.721  54.729 -23.592  1.00  0.00    -0.299 N 
HETATM   20  H9  UNL     1       2.313  55.641 -21.878  1.00  0.00     0.187 HD
HETATM   21  C9  UNL     1       0.970  53.629 -23.783  1.00  0.00     0.070 A 
ATOM     22  H3  UNL     1       2.163  55.316 -24.300  1.00  0.00     0.187 HD
HETATM   23  C17 UNL     1      -0.349  52.053 -22.132  1.00  0.00     0.045 A 
BRANCH  21  24
HETATM   24  C10 UNL     1       0.730  53.105 -25.128  1.00  0.00    -0.007 A 
HETATM   25  C11 UNL     1       0.078  53.896 -26.092  1.00  0.00     0.017 A 
HETATM   26  C12 UNL     1      -0.161  53.387 -27.373  1.00  0.00     0.043 A 
HETATM   27  C13 UNL     1       0.257  52.098 -27.692  1.00  0.00     0.116 A 
HETATM   28  F1  UNL     1       0.027  51.616 -28.920  1.00  0.00    -0.206 F 
HETATM   29  C14 UNL     1       0.917  51.308 -26.755  1.00  0.00     0.043 A 
HETATM   30  C15 UNL     1       1.154  51.810 -25.472  1.00  0.00     0.017 A 
ENDBRANCH  21  24
ENDBRANCH  11  13
ENDBRANCH   1   9
BRANCH   4  31
HETATM   31  C20 UNL     1      -5.747  47.785 -19.804  1.00  0.00     0.374 C 
BRANCH  31  32
HETATM   32  C21 UNL     1      -6.985  48.685 -19.570  1.00  0.00     0.248 C 
HETATM   33  O3  UNL     1      -7.028  49.860 -19.935  1.00  0.00    -0.271 OA
HETATM   34  N5  UNL     1      -8.063  48.098 -18.897  1.00  0.00    -0.348 N 
HETATM   35  C22 UNL     1      -8.518  46.732 -19.199  1.00  0.00     0.145 C 
HETATM   36  C35 UNL     1      -9.140  48.998 -18.469  1.00  0.00     0.145 C 
HETATM   37  C23 UNL     1      -9.397  46.132 -18.081  1.00  0.00     0.143 C 
HETATM   38  N6  UNL     1     -10.455  47.057 -17.635  1.00  0.00    -0.378 N 
HETATM   39  C34 UNL     1      -9.940  48.406 -17.295  1.00  0.00     0.143 C 
BRANCH  38  40
HETATM   40  C24 UNL     1     -11.745  47.008 -18.155  1.00  0.00     0.030 A 
HETATM   41  C25 UNL     1     -12.040  46.702 -19.487  1.00  0.00     0.030 A 
HETATM   42  C26 UNL     1     -13.364  46.686 -19.963  1.00  0.00     0.017 A 
HETATM   43  C27 UNL     1     -14.459  46.950 -19.123  1.00  0.00     0.008 A 
HETATM   44  C32 UNL     1     -14.163  47.227 -17.780  1.00  0.00     0.017 A 
HETATM   45  C33 UNL     1     -12.840  47.247 -17.313  1.00  0.00     0.030 A 
BRANCH  43  46
HETATM   46  C28 UNL     1     -15.851  46.936 -19.621  1.00  0.00     0.115 A 
HETATM   47  N7  UNL     1     -16.085  46.356 -20.818  1.00  0.00    -0.352 N 
HETATM   48  C29 UNL     1     -17.367  46.324 -21.235  1.00  0.00     0.091 A 
ATOM     49  H7  UNL     1     -15.330  45.961 -21.379  1.00  0.00     0.166 HD
HETATM   50  C30 UNL     1     -18.413  46.844 -20.513  1.00  0.00     0.034 A 
HETATM   51  C31 UNL     1     -18.071  47.419 -19.313  1.00  0.00     0.091 A 
HETATM   52  N8  UNL     1     -16.811  47.479 -18.843  1.00  0.00    -0.352 N 
ATOM     53  H8  UNL     1     -16.593  47.912 -17.946  1.00  0.00     0.166 HD
ENDBRANCH  43  46
ENDBRANCH  38  40
ENDBRANCH  31  32
ENDBRANCH   4  31
TORSDOF 9
ENDMDL
MODEL 2
REMARK minimizedAffinity -9.37917233
REMARK CNNscore 0.371102273
REMARK CNNaffinity 7.26419258
REMARK  9 active torsions:
REMARK  status: ('A' for Active; 'I' for Inactive)
REMARK    1  A    between atoms: O1_2  and  C2_3 
REMARK    2  A    between atoms: C2_3  and  C3_4 
REMARK    3  A    between atoms: C3_4  and  C4_5 
REMARK       I    between atoms: C4_5  and  N1_7 
REMARK    4  A    between atoms: N1_7  and  C5_8 
REMARK    5  A    between atoms: C9_15  and  C10_16 
REMARK    6  A    between atoms: N4_27  and  C20_28 
REMARK    7  A    between atoms: C20_28  and  C21_29 
REMARK       I    between atoms: C21_29  and  N5_31 
REMARK    8  A    between atoms: N6_34  and  C24_35 
REMARK    9  A    between atoms: C27_38  and  C28_39 
ROOT
HETATM    1  C3  UNL     1      -4.043  49.518 -23.849  1.00  0.00     0.090 C 
HETATM    2  C18 UNL     1      -2.992  48.470 -24.255  1.00  0.00     0.053 C 
HETATM    3  C19 UNL     1      -2.771  48.693 -25.745  1.00  0.00     0.274 C 
HETATM    4  N4  UNL     1      -4.055  49.188 -26.257  1.00  0.00     0.098 N 
HETATM    5  C36 UNL     1      -4.573  50.061 -25.193  1.00  0.00     0.294 C 
ENDROOT
BRANCH   1   6
HETATM    6  C2  UNL     1      -5.203  48.896 -23.046  1.00  0.00     0.188 C 
BRANCH   6   7
HETATM    7  O1  UNL     1      -6.465  49.332 -23.579  1.00  0.00    -0.395 OA
HETATM    8  C1  UNL     1      -7.264  49.951 -22.574  1.00  0.00     0.201 C 
ENDBRANCH   6   7
ENDBRANCH   1   6
BRANCH   1   9
HETATM    9  C4  UNL     1      -3.385  50.638 -23.012  1.00  0.00     0.234 C 
HETATM   10  O2  UNL     1      -4.049  51.434 -22.355  1.00  0.00    -0.272 OA
HETATM   11  N1  UNL     1      -2.003  50.665 -23.127  1.00  0.00    -0.326 N 
HETATM   12  H6  UNL     1      -1.594  49.897 -23.660  1.00  0.00     0.169 HD
BRANCH  11  13
HETATM   13  C5  UNL     1      -1.094  51.493 -22.437  1.00  0.00     0.035 A 
HETATM   14  C6  UNL     1      -0.362  52.411 -23.203  1.00  0.00     0.032 A 
HETATM   15  C7  UNL     1       0.606  53.249 -22.629  1.00  0.00     0.034 A 
HETATM   16  C8  UNL     1       0.815  53.130 -21.254  1.00  0.00     0.060 A 
HETATM   17  N2  UNL     1       1.686  53.756 -20.408  1.00  0.00    -0.299 N 
HETATM   18  C16 UNL     1       0.095  52.252 -20.453  1.00  0.00     0.023 A 
HETATM   19  N3  UNL     1       1.601  53.356 -19.128  1.00  0.00    -0.299 N 
HETATM   20  H9  UNL     1       2.365  54.482 -20.635  1.00  0.00     0.187 HD
HETATM   21  C9  UNL     1       0.604  52.452 -19.131  1.00  0.00     0.070 A 
ATOM     22  H3  UNL     1       2.163  53.666 -18.336  1.00  0.00     0.187 HD
HETATM   23  C17 UNL     1      -0.878  51.426 -21.055  1.00  0.00     0.045 A 
BRANCH  21  24
HETATM   24  C10 UNL     1       0.169  51.807 -17.891  1.00  0.00    -0.007 A 
HETATM   25  C11 UNL     1      -1.122  51.258 -17.792  1.00  0.00     0.017 A 
HETATM   26  C12 UNL     1      -1.539  50.654 -16.601  1.00  0.00     0.043 A 
HETATM   27  C13 UNL     1      -0.666  50.591 -15.519  1.00  0.00     0.116 A 
HETATM   28  F1  UNL     1      -1.069  50.010 -14.380  1.00  0.00    -0.206 F 
HETATM   29  C14 UNL     1       0.620  51.115 -15.604  1.00  0.00     0.043 A 
HETATM   30  C15 UNL     1       1.039  51.724 -16.791  1.00  0.00     0.017 A 
ENDBRANCH  21  24
ENDBRANCH  11  13
ENDBRANCH   1   9
BRANCH   4  31
HETATM   31  C20 UNL     1      -4.975  48.116 -26.671  1.00  0.00     0.374 C 
BRANCH  31  32
HETATM   32  C21 UNL     1      -5.092  48.069 -28.215  1.00  0.00     0.248 C 
HETATM   33  O3  UNL     1      -4.107  48.068 -28.953  1.00  0.00    -0.271 OA
HETATM   34  N5  UNL     1      -6.390  48.051 -28.740  1.00  0.00    -0.348 N 
HETATM   35  C22 UNL     1      -7.453  47.217 -28.157  1.00  0.00     0.145 C 
HETATM   36  C35 UNL     1      -6.515  48.239 -30.189  1.00  0.00     0.145 C 
HETATM   37  C23 UNL     1      -8.867  47.662 -28.587  1.00  0.00     0.143 C 
HETATM   38  N6  UNL     1      -8.973  47.880 -30.042  1.00  0.00    -0.378 N 
HETATM   39  C34 UNL     1      -7.908  48.765 -30.574  1.00  0.00     0.143 C 
BRANCH  38  40
HETATM   40  C24 UNL     1      -9.433  46.889 -30.904  1.00  0.00     0.030 A 
HETATM   41  C25 UNL     1      -8.806  45.651 -31.079  1.00  0.00     0.030 A 
HETATM   42  C26 UNL     1      -9.307  44.693 -31.981  1.00  0.00     0.017 A 
HETATM   43  C27 UNL     1     -10.472  44.919 -32.733  1.00  0.00     0.008 A 
HETATM   44  C32 UNL     1     -11.115  46.149 -32.534  1.00  0.00     0.017 A 
HETATM   45  C33 UNL     1     -10.608  47.102 -31.638  1.00  0.00     0.030 A 
BRANCH  43  46
HETATM   46  C28 UNL     1     -10.997  43.916 -33.683  1.00  0.00     0.115 A 
HETATM   47  N7  UNL     1     -10.965  42.618 -33.311  1.00  0.00    -0.352 N 
HETATM   48  C29 UNL     1     -11.482  41.725 -34.179  1.00  0.00     0.091 A 
ATOM     49  H7  UNL     1     -10.569  42.327 -32.417  1.00  0.00     0.166 HD
HETATM   50  C30 UNL     1     -12.024  42.072 -35.391  1.00  0.00     0.034 A 
HETATM   51  C31 UNL     1     -12.004  43.415 -35.682  1.00  0.00     0.091 A 
HETATM   52  N8  UNL     1     -11.504  44.354 -34.855  1.00  0.00    -0.352 N 
ATOM     53  H8  UNL     1     -11.507  45.343 -35.102  1.00  0.00     0.166 HD
ENDBRANCH  43  46
ENDBRANCH  38  40
ENDBRANCH  31  32
ENDBRANCH   4  31
TORSDOF 9
ENDMDL
MODEL 3
REMARK minimizedAffinity -9.77436543
REMARK CNNscore 0.365926206
REMARK CNNaffinity 6.96466827
REMARK  9 active torsions:
REMARK  status: ('A' for Active; 'I' for Inactive)
REMARK    1  A    between atoms: O1_2  and  C2_3 
REMARK    2  A    between atoms: C2_3  and  C3_4 
REMARK    3  A    between atoms: C3_4  and  C4_5 
REMARK       I    between atoms: C4_5  and  N1_7 
REMARK    4  A    between atoms: N1_7  and  C5_8 
REMARK    5  A    between atoms: C9_15  and  C10_16 
REMARK    6  A    between atoms: N4_27  and  C20_28 
REMARK    7  A    between atoms: C20_28  and  C21_29 
REMARK       I    between atoms: C21_29  and  N5_31 
REMARK    8  A    between atoms: N6_34  and  C24_35 
REMARK    9  A    between atoms: C27_38  and  C28_39 
ROOT
HETATM    1  C3  UNL     1      -2.691  48.792 -19.848  1.00  0.00     0.090 C 
HETATM    2  C18 UNL     1      -2.567  47.299 -20.203  1.00  0.00     0.053 C 
HETATM    3  C19 UNL     1      -3.557  47.083 -21.340  1.00  0.00     0.274 C 
HETATM    4  N4  UNL     1      -4.637  48.049 -21.102  1.00  0.00     0.098 N 
HETATM    5  C36 UNL     1      -3.960  49.253 -20.596  1.00  0.00     0.294 C 
ENDROOT
BRANCH   1   6
HETATM    6  C2  UNL     1      -2.872  49.015 -18.333  1.00  0.00     0.188 C 
BRANCH   6   7
HETATM    7  O1  UNL     1      -1.782  49.795 -17.813  1.00  0.00    -0.395 OA
HETATM    8  C1  UNL     1      -2.236  50.731 -16.839  1.00  0.00     0.201 C 
ENDBRANCH   6   7
ENDBRANCH   1   6
BRANCH   1   9
HETATM    9  C4  UNL     1      -1.443  49.561 -20.333  1.00  0.00     0.234 C 
HETATM   10  O2  UNL     1      -0.396  48.987 -20.618  1.00  0.00    -0.272 OA
HETATM   11  N1  UNL     1      -1.624  50.936 -20.361  1.00  0.00    -0.326 N 
HETATM   12  H6  UNL     1      -2.572  51.255 -20.156  1.00  0.00     0.169 HD
BRANCH  11  13
HETATM   13  C5  UNL     1      -0.727  51.917 -20.831  1.00  0.00     0.035 A 
HETATM   14  C6  UNL     1      -0.150  52.762 -19.872  1.00  0.00     0.032 A 
HETATM   15  C7  UNL     1       0.717  53.805 -20.231  1.00  0.00     0.034 A 
HETATM   16  C8  UNL     1       0.981  53.973 -21.592  1.00  0.00     0.060 A 
HETATM   17  N2  UNL     1       1.734  54.891 -22.266  1.00  0.00    -0.299 N 
HETATM   18  C16 UNL     1       0.450  53.144 -22.572  1.00  0.00     0.023 A 
HETATM   19  N3  UNL     1       1.733  54.737 -23.601  1.00  0.00    -0.299 N 
HETATM   20  H9  UNL     1       2.291  55.651 -21.876  1.00  0.00     0.187 HD
HETATM   21  C9  UNL     1       0.972  53.646 -23.806  1.00  0.00     0.070 A 
ATOM     22  H3  UNL     1       2.201  55.314 -24.299  1.00  0.00     0.187 HD
HETATM   23  C17 UNL     1      -0.413  52.098 -22.183  1.00  0.00     0.045 A 
BRANCH  21  24
HETATM   24  C10 UNL     1       0.761  53.118 -25.155  1.00  0.00    -0.007 A 
HETATM   25  C11 UNL     1       0.113  53.898 -26.129  1.00  0.00     0.017 A 
HETATM   26  C12 UNL     1      -0.099  53.385 -27.414  1.00  0.00     0.043 A 
HETATM   27  C13 UNL     1       0.344  52.103 -27.724  1.00  0.00     0.116 A 
HETATM   28  F1  UNL     1       0.141  51.616 -28.956  1.00  0.00    -0.206 F 
HETATM   29  C14 UNL     1       1.001  51.322 -26.776  1.00  0.00     0.043 A 
HETATM   30  C15 UNL     1       1.209  51.829 -25.491  1.00  0.00     0.017 A 
ENDBRANCH  21  24
ENDBRANCH  11  13
ENDBRANCH   1   9
BRANCH   4  31
HETATM   31  C20 UNL     1      -5.704  47.535 -20.228  1.00  0.00     0.374 C 
BRANCH  31  32
HETATM   32  C21 UNL     1      -6.500  46.418 -20.946  1.00  0.00     0.248 C 
HETATM   33  O3  UNL     1      -6.531  45.258 -20.535  1.00  0.00    -0.271 OA
HETATM   34  N5  UNL     1      -7.176  46.789 -22.114  1.00  0.00    -0.348 N 
HETATM   35  C22 UNL     1      -7.932  48.048 -22.209  1.00  0.00     0.145 C 
HETATM   36  C35 UNL     1      -7.738  45.700 -22.922  1.00  0.00     0.145 C 
HETATM   37  C23 UNL     1      -8.219  48.465 -23.667  1.00  0.00     0.143 C 
HETATM   38  N6  UNL     1      -8.752  47.356 -24.479  1.00  0.00    -0.378 N 
HETATM   39  C34 UNL     1      -7.930  46.125 -24.389  1.00  0.00     0.143 C 
BRANCH  38  40
HETATM   40  C24 UNL     1     -10.119  47.167 -24.662  1.00  0.00     0.030 A 
HETATM   41  C25 UNL     1     -10.785  47.391 -25.871  1.00  0.00     0.030 A 
HETATM   42  C26 UNL     1     -12.175  47.201 -25.992  1.00  0.00     0.017 A 
HETATM   43  C27 UNL     1     -12.960  46.754 -24.916  1.00  0.00     0.008 A 
HETATM   44  C32 UNL     1     -12.285  46.502 -23.714  1.00  0.00     0.017 A 
HETATM   45  C33 UNL     1     -10.901  46.698 -23.597  1.00  0.00     0.030 A 
BRANCH  43  46
HETATM   46  C28 UNL     1     -14.420  46.558 -25.040  1.00  0.00     0.115 A 
HETATM   47  N7  UNL     1     -14.860  45.663 -25.952  1.00  0.00    -0.352 N 
HETATM   48  C29 UNL     1     -16.193  45.475 -26.022  1.00  0.00     0.091 A 
ATOM     49  H7  UNL     1     -14.215  45.155 -26.558  1.00  0.00     0.166 HD
HETATM   50  C30 UNL     1     -17.095  46.138 -25.228  1.00  0.00     0.034 A 
HETATM   51  C31 UNL     1     -16.551  47.032 -24.338  1.00  0.00     0.091 A 
HETATM   52  N8  UNL     1     -15.229  47.261 -24.220  1.00  0.00    -0.352 N 
ATOM     53  H8  UNL     1     -14.859  47.931 -23.547  1.00  0.00     0.166 HD
ENDBRANCH  43  46
ENDBRANCH  38  40
ENDBRANCH  31  32
ENDBRANCH   4  31
TORSDOF 9
ENDMDL
MODEL 4
REMARK minimizedAffinity -10.7365942
REMARK CNNscore 0.287502408
REMARK CNNaffinity 7.20588446
REMARK  9 active torsions:
REMARK  status: ('A' for Active; 'I' for Inactive)
REMARK    1  A    between atoms: O1_2  and  C2_3 
REMARK    2  A    between atoms: C2_3  and  C3_4 
REMARK    3  A    between atoms: C3_4  and  C4_5 
REMARK       I    between atoms: C4_5  and  N1_7 
REMARK    4  A    between atoms: N1_7  and  C5_8 
REMARK    5  A    between atoms: C9_15  and  C10_16 
REMARK    6  A    between atoms: N4_27  and  C20_28 
REMARK    7  A    between atoms: C20_28  and  C21_29 
REMARK       I    between atoms: C21_29  and  N5_31 
REMARK    8  A    between atoms: N6_34  and  C24_35 
REMARK    9  A    between atoms: C27_38  and  C28_39 
ROOT
HETATM    1  C3  UNL     1      -2.159  49.324 -19.033  1.00  0.00     0.090 C 
HETATM    2  C18 UNL     1      -3.687  49.193 -18.899  1.00  0.00     0.053 C 
HETATM    3  C19 UNL     1      -4.009  49.752 -17.520  1.00  0.00     0.274 C 
HETATM    4  N4  UNL     1      -2.825  49.464 -16.699  1.00  0.00     0.098 N 
HETATM    5  C36 UNL     1      -1.683  49.663 -17.605  1.00  0.00     0.294 C 
ENDROOT
BRANCH   1   6
HETATM    6  C2  UNL     1      -1.503  48.010 -19.501  1.00  0.00     0.188 C 
BRANCH   6   7
HETATM    7  O1  UNL     1      -2.406  47.279 -20.349  1.00  0.00    -0.395 OA
HETATM    8  C1  UNL     1      -1.919  47.212 -21.686  1.00  0.00     0.201 C 
ENDBRANCH   6   7
ENDBRANCH   1   6
BRANCH   1   9
HETATM    9  C4  UNL     1      -1.806  50.455 -20.025  1.00  0.00     0.234 C 
HETATM   10  O2  UNL     1      -2.619  50.881 -20.841  1.00  0.00    -0.272 OA
HETATM   11  N1  UNL     1      -0.491  50.883 -19.920  1.00  0.00    -0.326 N 
HETATM   12  H6  UNL     1       0.041  50.475 -19.150  1.00  0.00     0.169 HD
BRANCH  11  13
HETATM   13  C5  UNL     1       0.130  51.947 -20.607  1.00  0.00     0.035 A 
HETATM   14  C6  UNL     1       0.745  52.935 -19.826  1.00  0.00     0.032 A 
HETATM   15  C7  UNL     1       1.347  54.064 -20.401  1.00  0.00     0.034 A 
HETATM   16  C8  UNL     1       1.308  54.167 -21.793  1.00  0.00     0.060 A 
HETATM   17  N2  UNL     1       1.759  55.132 -22.647  1.00  0.00    -0.299 N 
HETATM   18  C16 UNL     1       0.731  53.199 -22.606  1.00  0.00     0.023 A 
HETATM   19  N3  UNL     1       1.518  54.880 -23.945  1.00  0.00    -0.299 N 
HETATM   20  H9  UNL     1       2.255  55.992 -22.414  1.00  0.00     0.187 HD
HETATM   21  C9  UNL     1       0.913  53.678 -23.941  1.00  0.00     0.070 A 
ATOM     22  H3  UNL     1       1.743  55.466 -24.750  1.00  0.00     0.187 HD
HETATM   23  C17 UNL     1       0.138  52.070 -22.002  1.00  0.00     0.045 A 
BRANCH  21  24
HETATM   24  C10 UNL     1       0.527  53.026 -25.193  1.00  0.00    -0.007 A 
HETATM   25  C11 UNL     1       0.653  51.632 -25.336  1.00  0.00     0.017 A 
HETATM   26  C12 UNL     1       0.295  51.014 -26.539  1.00  0.00     0.043 A 
HETATM   27  C13 UNL     1      -0.196  51.783 -27.589  1.00  0.00     0.116 A 
HETATM   28  F1  UNL     1      -0.540  51.187 -28.739  1.00  0.00    -0.206 F 
HETATM   29  C14 UNL     1      -0.343  53.162 -27.460  1.00  0.00     0.043 A 
HETATM   30  C15 UNL     1       0.019  53.784 -26.262  1.00  0.00     0.017 A 
ENDBRANCH  21  24
ENDBRANCH  11  13
ENDBRANCH   1   9
BRANCH   4  31
HETATM   31  C20 UNL     1      -2.867  48.144 -16.049  1.00  0.00     0.374 C 
BRANCH  31  32
HETATM   32  C21 UNL     1      -2.260  48.223 -14.626  1.00  0.00     0.248 C 
HETATM   33  O3  UNL     1      -1.608  47.303 -14.133  1.00  0.00    -0.271 OA
HETATM   34  N5  UNL     1      -2.511  49.398 -13.908  1.00  0.00    -0.348 N 
HETATM   35  C22 UNL     1      -2.426  50.726 -14.535  1.00  0.00     0.145 C 
HETATM   36  C35 UNL     1      -2.142  49.392 -12.487  1.00  0.00     0.145 C 
HETATM   37  C23 UNL     1      -3.147  51.821 -13.719  1.00  0.00     0.143 C 
HETATM   38  N6  UNL     1      -2.795  51.784 -12.288  1.00  0.00    -0.378 N 
HETATM   39  C34 UNL     1      -2.942  50.435 -11.689  1.00  0.00     0.143 C 
BRANCH  38  40
HETATM   40  C24 UNL     1      -1.787  52.583 -11.757  1.00  0.00     0.030 A 
HETATM   41  C25 UNL     1      -1.973  53.479 -10.700  1.00  0.00     0.030 A 
HETATM   42  C26 UNL     1      -0.919  54.277 -10.216  1.00  0.00     0.017 A 
HETATM   43  C27 UNL     1       0.379  54.197 -10.750  1.00  0.00     0.008 A 
HETATM   44  C32 UNL     1       0.570  53.277 -11.790  1.00  0.00     0.017 A 
HETATM   45  C33 UNL     1      -0.486  52.488 -12.272  1.00  0.00     0.030 A 
BRANCH  43  46
HETATM   46  C28 UNL     1       1.486  55.036 -10.246  1.00  0.00     0.115 A 
HETATM   47  N7  UNL     1       2.396  55.482 -11.139  1.00  0.00    -0.352 N 
HETATM   48  C29 UNL     1       3.377  56.275 -10.661  1.00  0.00     0.091 A 
ATOM     49  H7  UNL     1       2.344  55.232 -12.127  1.00  0.00     0.166 HD
HETATM   50  C30 UNL     1       3.485  56.635  -9.341  1.00  0.00     0.034 A 
HETATM   51  C31 UNL     1       2.516  56.126  -8.511  1.00  0.00     0.091 A 
HETATM   52  N8  UNL     1       1.512  55.332  -8.929  1.00  0.00    -0.352 N 
ATOM     53  H8  UNL     1       0.808  54.972  -8.284  1.00  0.00     0.166 HD
ENDBRANCH  43  46
ENDBRANCH  38  40
ENDBRANCH  31  32
ENDBRANCH   4  31
TORSDOF 9
ENDMDL
MODEL 5
REMARK minimizedAffinity -9.76430416
REMARK CNNscore 0.258487672
REMARK CNNaffinity 6.76116562
REMARK  9 active torsions:
REMARK  status: ('A' for Active; 'I' for Inactive)
REMARK    1  A    between atoms: O1_2  and  C2_3 
REMARK    2  A    between atoms: C2_3  and  C3_4 
REMARK    3  A    between atoms: C3_4  and  C4_5 
REMARK       I    between atoms: C4_5  and  N1_7 
REMARK    4  A    between atoms: N1_7  and  C5_8 
REMARK    5  A    between atoms: C9_15  and  C10_16 
REMARK    6  A    between atoms: N4_27  and  C20_28 
REMARK    7  A    between atoms: C20_28  and  C21_29 
REMARK       I    between atoms: C21_29  and  N5_31 
REMARK    8  A    between atoms: N6_34  and  C24_35 
REMARK    9  A    between atoms: C27_38  and  C28_39 
ROOT
HETATM    1  C3  UNL     1      -2.258  49.994 -18.005  1.00  0.00     0.090 C 
HETATM    2  C18 UNL     1      -1.533  48.748 -18.541  1.00  0.00     0.053 C 
HETATM    3  C19 UNL     1      -2.613  47.939 -19.247  1.00  0.00     0.274 C 
HETATM    4  N4  UNL     1      -3.854  48.236 -18.522  1.00  0.00     0.098 N 
HETATM    5  C36 UNL     1      -3.755  49.662 -18.174  1.00  0.00     0.294 C 
ENDROOT
BRANCH   1   6
HETATM    6  C2  UNL     1      -1.948  50.250 -16.517  1.00  0.00     0.188 C 
BRANCH   6   7
HETATM    7  O1  UNL     1      -3.041  50.945 -15.894  1.00  0.00    -0.395 OA
HETATM    8  C1  UNL     1      -3.038  50.755 -14.482  1.00  0.00     0.201 C 
ENDBRANCH   6   7
ENDBRANCH   1   6
BRANCH   1   9
HETATM    9  C4  UNL     1      -1.863  51.239 -18.831  1.00  0.00     0.234 C 
HETATM   10  O2  UNL     1      -2.579  52.234 -18.889  1.00  0.00    -0.272 OA
HETATM   11  N1  UNL     1      -0.666  51.084 -19.514  1.00  0.00    -0.326 N 
HETATM   12  H6  UNL     1      -0.156  50.223 -19.312  1.00  0.00     0.169 HD
BRANCH  11  13
HETATM   13  C5  UNL     1       0.022  52.046 -20.283  1.00  0.00     0.035 A 
HETATM   14  C6  UNL     1       0.793  52.985 -19.584  1.00  0.00     0.032 A 
HETATM   15  C7  UNL     1       1.478  54.017 -20.242  1.00  0.00     0.034 A 
HETATM   16  C8  UNL     1       1.358  54.075 -21.632  1.00  0.00     0.060 A 
HETATM   17  N2  UNL     1       1.856  54.952 -22.553  1.00  0.00    -0.299 N 
HETATM   18  C16 UNL     1       0.625  53.151 -22.366  1.00  0.00     0.023 A 
HETATM   19  N3  UNL     1       1.503  54.683 -23.822  1.00  0.00    -0.299 N 
HETATM   20  H9  UNL     1       2.458  55.757 -22.387  1.00  0.00     0.187 HD
HETATM   21  C9  UNL     1       0.770  53.559 -23.729  1.00  0.00     0.070 A 
ATOM     22  H3  UNL     1       1.737  55.211 -24.662  1.00  0.00     0.187 HD
HETATM   23  C17 UNL     1      -0.048  52.118 -21.679  1.00  0.00     0.045 A 
BRANCH  21  24
HETATM   24  C10 UNL     1       0.232  52.911 -24.926  1.00  0.00    -0.007 A 
HETATM   25  C11 UNL     1       0.021  53.654 -26.102  1.00  0.00     0.017 A 
HETATM   26  C12 UNL     1      -0.507  53.034 -27.239  1.00  0.00     0.043 A 
HETATM   27  C13 UNL     1      -0.813  51.677 -27.205  1.00  0.00     0.116 A 
HETATM   28  F1  UNL     1      -1.316  51.087 -28.298  1.00  0.00    -0.206 F 
HETATM   29  C14 UNL     1      -0.596  50.923 -26.055  1.00  0.00     0.043 A 
HETATM   30  C15 UNL     1      -0.074  51.539 -24.914  1.00  0.00     0.017 A 
ENDBRANCH  21  24
ENDBRANCH  11  13
ENDBRANCH   1   9
BRANCH   4  31
HETATM   31  C20 UNL     1      -4.094  47.343 -17.376  1.00  0.00     0.374 C 
BRANCH  31  32
HETATM   32  C21 UNL     1      -5.212  46.324 -17.709  1.00  0.00     0.248 C 
HETATM   33  O3  UNL     1      -5.271  45.211 -17.186  1.00  0.00    -0.271 OA
HETATM   34  N5  UNL     1      -6.155  46.726 -18.662  1.00  0.00    -0.348 N 
HETATM   35  C22 UNL     1      -6.730  48.081 -18.665  1.00  0.00     0.145 C 
HETATM   36  C35 UNL     1      -7.076  45.694 -19.151  1.00  0.00     0.145 C 
HETATM   37  C23 UNL     1      -7.388  48.449 -20.012  1.00  0.00     0.143 C 
HETATM   38  N6  UNL     1      -8.285  47.391 -20.512  1.00  0.00    -0.378 N 
HETATM   39  C34 UNL     1      -7.646  46.053 -20.535  1.00  0.00     0.143 C 
BRANCH  38  40
HETATM   40  C24 UNL     1      -9.655  47.411 -20.268  1.00  0.00     0.030 A 
HETATM   41  C25 UNL     1     -10.240  47.984 -19.135  1.00  0.00     0.030 A 
HETATM   42  C26 UNL     1     -11.633  47.957 -18.931  1.00  0.00     0.017 A 
HETATM   43  C27 UNL     1     -12.509  47.378 -19.865  1.00  0.00     0.008 A 
HETATM   44  C32 UNL     1     -11.922  46.830 -21.015  1.00  0.00     0.017 A 
HETATM   45  C33 UNL     1     -10.533  46.855 -21.209  1.00  0.00     0.030 A 
BRANCH  43  46
HETATM   46  C28 UNL     1     -13.971  47.346 -19.652  1.00  0.00     0.115 A 
HETATM   47  N7  UNL     1     -14.711  46.574 -20.478  1.00  0.00    -0.352 N 
HETATM   48  C29 UNL     1     -16.038  46.533 -20.241  1.00  0.00     0.091 A 
ATOM     49  H7  UNL     1     -14.287  46.048 -21.242  1.00  0.00     0.166 HD
HETATM   50  C30 UNL     1     -16.649  47.225 -19.226  1.00  0.00     0.034 A 
HETATM   51  C31 UNL     1     -15.813  47.986 -18.446  1.00  0.00     0.091 A 
HETATM   52  N8  UNL     1     -14.481  48.066 -18.631  1.00  0.00    -0.352 N 
ATOM     53  H8  UNL     1     -13.890  48.640 -18.031  1.00  0.00     0.166 HD
ENDBRANCH  43  46
ENDBRANCH  38  40
ENDBRANCH  31  32
ENDBRANCH   4  31
TORSDOF 9
ENDMDL
MODEL 6
REMARK minimizedAffinity -9.64340973
REMARK CNNscore 0.208966061
REMARK CNNaffinity 6.9204216
REMARK  9 active torsions:
REMARK  status: ('A' for Active; 'I' for Inactive)
REMARK    1  A    between atoms: O1_2  and  C2_3 
REMARK    2  A    between atoms: C2_3  and  C3_4 
REMARK    3  A    between atoms: C3_4  and  C4_5 
REMARK       I    between atoms: C4_5  and  N1_7 
REMARK    4  A    between atoms: N1_7  and  C5_8 
REMARK    5  A    between atoms: C9_15  and  C10_16 
REMARK    6  A    between atoms: N4_27  and  C20_28 
REMARK    7  A    between atoms: C20_28  and  C21_29 
REMARK       I    between atoms: C21_29  and  N5_31 
REMARK    8  A    between atoms: N6_34  and  C24_35 
REMARK    9  A    between atoms: C27_38  and  C28_39 
ROOT
HETATM    1  C3  UNL     1      -0.764  50.636 -16.943  1.00  0.00     0.090 C 
HETATM    2  C18 UNL     1      -0.402  49.172 -17.250  1.00  0.00     0.053 C 
HETATM    3  C19 UNL     1      -1.654  48.377 -16.904  1.00  0.00     0.274 C 
HETATM    4  N4  UNL     1      -2.297  49.123 -15.815  1.00  0.00     0.098 N 
HETATM    5  C36 UNL     1      -2.087  50.539 -16.154  1.00  0.00     0.294 C 
ENDROOT
BRANCH   1   6
HETATM    6  C2  UNL     1       0.307  51.328 -16.077  1.00  0.00     0.188 C 
BRANCH   6   7
HETATM    7  O1  UNL     1       1.098  52.217 -16.884  1.00  0.00    -0.395 OA
HETATM    8  C1  UNL     1       2.378  52.444 -16.300  1.00  0.00     0.201 C 
ENDBRANCH   6   7
ENDBRANCH   1   6
BRANCH   1   9
HETATM    9  C4  UNL     1      -0.950  51.427 -18.256  1.00  0.00     0.234 C 
HETATM   10  O2  UNL     1      -1.907  52.176 -18.433  1.00  0.00    -0.272 OA
HETATM   11  N1  UNL     1       0.032  51.162 -19.198  1.00  0.00    -0.326 N 
HETATM   12  H6  UNL     1       0.795  50.564 -18.877  1.00  0.00     0.169 HD
BRANCH  11  13
HETATM   13  C5  UNL     1       0.210  51.772 -20.457  1.00  0.00     0.035 A 
HETATM   14  C6  UNL     1       1.016  52.918 -20.500  1.00  0.00     0.032 A 
HETATM   15  C7  UNL     1       1.221  53.635 -21.688  1.00  0.00     0.034 A 
HETATM   16  C8  UNL     1       0.582  53.160 -22.836  1.00  0.00     0.060 A 
HETATM   17  N2  UNL     1       0.545  53.631 -24.117  1.00  0.00    -0.299 N 
HETATM   18  C16 UNL     1      -0.204  52.015 -22.844  1.00  0.00     0.023 A 
HETATM   19  N3  UNL     1      -0.205  52.896 -24.956  1.00  0.00    -0.299 N 
HETATM   20  H9  UNL     1       1.020  54.449 -24.497  1.00  0.00     0.187 HD
HETATM   21  C9  UNL     1      -0.649  51.879 -24.196  1.00  0.00     0.070 A 
ATOM     22  H3  UNL     1      -0.395  53.070 -25.943  1.00  0.00     0.187 HD
HETATM   23  C17 UNL     1      -0.388  51.308 -21.636  1.00  0.00     0.045 A 
BRANCH  21  24
HETATM   24  C10 UNL     1      -1.478  50.817 -24.769  1.00  0.00    -0.007 A 
HETATM   25  C11 UNL     1      -1.473  50.583 -26.156  1.00  0.00     0.017 A 
HETATM   26  C12 UNL     1      -2.277  49.575 -26.701  1.00  0.00     0.043 A 
HETATM   27  C13 UNL     1      -3.074  48.801 -25.863  1.00  0.00     0.116 A 
HETATM   28  F1  UNL     1      -3.841  47.837 -26.390  1.00  0.00    -0.206 F 
HETATM   29  C14 UNL     1      -3.080  49.009 -24.487  1.00  0.00     0.043 A 
HETATM   30  C15 UNL     1      -2.282  50.017 -23.938  1.00  0.00     0.017 A 
ENDBRANCH  21  24
ENDBRANCH  11  13
ENDBRANCH   1   9
BRANCH   4  31
HETATM   31  C20 UNL     1      -1.820  48.737 -14.476  1.00  0.00     0.374 C 
BRANCH  31  32
HETATM   32  C21 UNL     1      -2.745  49.325 -13.383  1.00  0.00     0.248 C 
HETATM   33  O3  UNL     1      -3.766  48.752 -13.000  1.00  0.00    -0.271 OA
HETATM   34  N5  UNL     1      -2.374  50.568 -12.857  1.00  0.00    -0.348 N 
HETATM   35  C22 UNL     1      -0.978  50.884 -12.518  1.00  0.00     0.145 C 
HETATM   36  C35 UNL     1      -3.356  51.237 -11.995  1.00  0.00     0.145 C 
HETATM   37  C23 UNL     1      -0.723  52.400 -12.378  1.00  0.00     0.143 C 
HETATM   38  N6  UNL     1      -1.734  53.068 -11.538  1.00  0.00    -0.378 N 
HETATM   39  C34 UNL     1      -3.125  52.758 -11.948  1.00  0.00     0.143 C 
BRANCH  38  40
HETATM   40  C24 UNL     1      -1.533  53.291 -10.179  1.00  0.00     0.030 A 
HETATM   41  C25 UNL     1      -0.848  54.395  -9.661  1.00  0.00     0.030 A 
HETATM   42  C26 UNL     1      -0.658  54.559  -8.275  1.00  0.00     0.017 A 
HETATM   43  C27 UNL     1      -1.164  53.639  -7.341  1.00  0.00     0.008 A 
HETATM   44  C32 UNL     1      -1.876  52.549  -7.863  1.00  0.00     0.017 A 
HETATM   45  C33 UNL     1      -2.058  52.387  -9.245  1.00  0.00     0.030 A 
BRANCH  43  46
HETATM   46  C28 UNL     1      -0.962  53.808  -5.887  1.00  0.00     0.115 A 
HETATM   47  N7  UNL     1      -1.356  52.802  -5.076  1.00  0.00    -0.352 N 
HETATM   48  C29 UNL     1      -1.128  52.963  -3.757  1.00  0.00     0.091 A 
ATOM     49  H7  UNL     1      -1.803  51.961  -5.443  1.00  0.00     0.166 HD
HETATM   50  C30 UNL     1      -0.532  54.077  -3.220  1.00  0.00     0.034 A 
HETATM   51  C31 UNL     1      -0.175  55.047  -4.126  1.00  0.00     0.091 A 
HETATM   52  N8  UNL     1      -0.373  54.942  -5.454  1.00  0.00    -0.352 N 
ATOM     53  H8  UNL     1      -0.094  55.681  -6.098  1.00  0.00     0.166 HD
ENDBRANCH  43  46
ENDBRANCH  38  40
ENDBRANCH  31  32
ENDBRANCH   4  31
TORSDOF 9
ENDMDL
MODEL 7
REMARK minimizedAffinity -9.10592365
REMARK CNNscore 0.208485827
REMARK CNNaffinity 6.74617529
REMARK  9 active torsions:
REMARK  status: ('A' for Active; 'I' for Inactive)
REMARK    1  A    between atoms: O1_2  and  C2_3 
REMARK    2  A    between atoms: C2_3  and  C3_4 
REMARK    3  A    between atoms: C3_4  and  C4_5 
REMARK       I    between atoms: C4_5  and  N1_7 
REMARK    4  A    between atoms: N1_7  and  C5_8 
REMARK    5  A    between atoms: C9_15  and  C10_16 
REMARK    6  A    between atoms: N4_27  and  C20_28 
REMARK    7  A    between atoms: C20_28  and  C21_29 
REMARK       I    between atoms: C21_29  and  N5_31 
REMARK    8  A    between atoms: N6_34  and  C24_35 
REMARK    9  A    between atoms: C27_38  and  C28_39 
ROOT
HETATM    1  C3  UNL     1      -1.768  49.982 -18.471  1.00  0.00     0.090 C 
HETATM    2  C18 UNL     1      -2.440  50.759 -17.325  1.00  0.00     0.053 C 
HETATM    3  C19 UNL     1      -1.331  50.991 -16.307  1.00  0.00     0.274 C 
HETATM    4  N4  UNL     1      -0.430  49.840 -16.446  1.00  0.00     0.098 N 
HETATM    5  C36 UNL     1      -0.403  49.557 -17.890  1.00  0.00     0.294 C 
ENDROOT
BRANCH   1   6
HETATM    6  C2  UNL     1      -2.574  48.730 -18.872  1.00  0.00     0.188 C 
BRANCH   6   7
HETATM    7  O1  UNL     1      -1.700  47.737 -19.437  1.00  0.00    -0.395 OA
HETATM    8  C1  UNL     1      -2.044  47.456 -20.790  1.00  0.00     0.201 C 
ENDBRANCH   6   7
ENDBRANCH   1   6
BRANCH   1   9
HETATM    9  C4  UNL     1      -1.593  50.895 -19.704  1.00  0.00     0.234 C 
HETATM   10  O2  UNL     1      -2.541  51.213 -20.418  1.00  0.00    -0.272 OA
HETATM   11  N1  UNL     1      -0.275  51.261 -19.930  1.00  0.00    -0.326 N 
HETATM   12  H6  UNL     1       0.389  50.969 -19.212  1.00  0.00     0.169 HD
BRANCH  11  13
HETATM   13  C5  UNL     1       0.221  52.149 -20.908  1.00  0.00     0.035 A 
HETATM   14  C6  UNL     1       1.135  53.121 -20.479  1.00  0.00     0.032 A 
HETATM   15  C7  UNL     1       1.653  54.087 -21.354  1.00  0.00     0.034 A 
HETATM   16  C8  UNL     1       1.217  54.044 -22.680  1.00  0.00     0.060 A 
HETATM   17  N2  UNL     1       1.492  54.840 -23.755  1.00  0.00    -0.299 N 
HETATM   18  C16 UNL     1       0.332  53.084 -23.153  1.00  0.00     0.023 A 
HETATM   19  N3  UNL     1       0.856  54.485 -24.885  1.00  0.00    -0.299 N 
HETATM   20  H9  UNL     1       2.119  55.643 -23.794  1.00  0.00     0.187 HD
HETATM   21  C9  UNL     1       0.161  53.386 -24.540  1.00  0.00     0.070 A 
ATOM     22  H3  UNL     1       0.892  54.944 -25.795  1.00  0.00     0.187 HD
HETATM   23  C17 UNL     1      -0.169  52.119 -22.253  1.00  0.00     0.045 A 
BRANCH  21  24
HETATM   24  C10 UNL     1      -0.641  52.663 -25.528  1.00  0.00    -0.007 A 
HETATM   25  C11 UNL     1      -0.023  52.046 -26.631  1.00  0.00     0.017 A 
HETATM   26  C12 UNL     1      -0.794  51.367 -27.580  1.00  0.00     0.043 A 
HETATM   27  C13 UNL     1      -2.175  51.296 -27.422  1.00  0.00     0.116 A 
HETATM   28  F1  UNL     1      -2.909  50.643 -28.333  1.00  0.00    -0.206 F 
HETATM   29  C14 UNL     1      -2.802  51.887 -26.329  1.00  0.00     0.043 A 
HETATM   30  C15 UNL     1      -2.036  52.572 -25.381  1.00  0.00     0.017 A 
ENDBRANCH  21  24
ENDBRANCH  11  13
ENDBRANCH   1   9
BRANCH   4  31
HETATM   31  C20 UNL     1      -0.807  48.692 -15.605  1.00  0.00     0.374 C 
BRANCH  31  32
HETATM   32  C21 UNL     1      -0.761  49.081 -14.107  1.00  0.00     0.248 C 
HETATM   33  O3  UNL     1      -1.573  48.655 -13.286  1.00  0.00    -0.271 OA
HETATM   34  N5  UNL     1       0.251  49.971 -13.727  1.00  0.00    -0.348 N 
HETATM   35  C22 UNL     1       1.628  49.844 -14.227  1.00  0.00     0.145 C 
HETATM   36  C35 UNL     1       0.165  50.523 -12.370  1.00  0.00     0.145 C 
HETATM   37  C23 UNL     1       2.453  51.136 -14.049  1.00  0.00     0.143 C 
HETATM   38  N6  UNL     1       2.333  51.701 -12.692  1.00  0.00    -0.378 N 
HETATM   39  C34 UNL     1       0.926  51.855 -12.250  1.00  0.00     0.143 C 
BRANCH  38  40
HETATM   40  C24 UNL     1       3.260  51.420 -11.692  1.00  0.00     0.030 A 
HETATM   41  C25 UNL     1       3.466  52.224 -10.567  1.00  0.00     0.030 A 
HETATM   42  C26 UNL     1       4.433  51.899  -9.597  1.00  0.00     0.017 A 
HETATM   43  C27 UNL     1       5.224  50.741  -9.694  1.00  0.00     0.008 A 
HETATM   44  C32 UNL     1       4.995  49.921 -10.808  1.00  0.00     0.017 A 
HETATM   45  C33 UNL     1       4.033  50.253 -11.775  1.00  0.00     0.030 A 
BRANCH  43  46
HETATM   46  C28 UNL     1       6.242  50.401  -8.679  1.00  0.00     0.115 A 
HETATM   47  N7  UNL     1       7.536  50.374  -9.068  1.00  0.00    -0.352 N 
HETATM   48  C29 UNL     1       8.450  50.096  -8.116  1.00  0.00     0.091 A 
ATOM     49  H7  UNL     1       7.808  50.555 -10.034  1.00  0.00     0.166 HD
HETATM   50  C30 UNL     1       8.127  49.845  -6.806  1.00  0.00     0.034 A 
HETATM   51  C31 UNL     1       6.786  49.889  -6.511  1.00  0.00     0.091 A 
HETATM   52  N8  UNL     1       5.828  50.163  -7.416  1.00  0.00    -0.352 N 
ATOM     53  H8  UNL     1       4.841  50.189  -7.162  1.00  0.00     0.166 HD
ENDBRANCH  43  46
ENDBRANCH  38  40
ENDBRANCH  31  32
ENDBRANCH   4  31
TORSDOF 9
ENDMDL
MODEL 8
REMARK minimizedAffinity -9.97945023
REMARK CNNscore 0.207807317
REMARK CNNaffinity 6.54798269
REMARK  9 active torsions:
REMARK  status: ('A' for Active; 'I' for Inactive)
REMARK    1  A    between atoms: O1_2  and  C2_3 
REMARK    2  A    between atoms: C2_3  and  C3_4 
REMARK    3  A    between atoms: C3_4  and  C4_5 
REMARK       I    between atoms: C4_5  and  N1_7 
REMARK    4  A    between atoms: N1_7  and  C5_8 
REMARK    5  A    between atoms: C9_15  and  C10_16 
REMARK    6  A    between atoms: N4_27  and  C20_28 
REMARK    7  A    between atoms: C20_28  and  C21_29 
REMARK       I    between atoms: C21_29  and  N5_31 
REMARK    8  A    between atoms: N6_34  and  C24_35 
REMARK    9  A    between atoms: C27_38  and  C28_39 
ROOT
HETATM    1  C3  UNL     1      -1.608  49.471 -18.518  1.00  0.00     0.090 C 
HETATM    2  C18 UNL     1      -2.699  50.489 -18.141  1.00  0.00     0.053 C 
HETATM    3  C19 UNL     1      -2.205  51.135 -16.854  1.00  0.00     0.274 C 
HETATM    4  N4  UNL     1      -1.419  50.096 -16.176  1.00  0.00     0.098 N 
HETATM    5  C36 UNL     1      -0.718  49.388 -17.259  1.00  0.00     0.294 C 
ENDROOT
BRANCH   1   6
HETATM    6  C2  UNL     1      -2.195  48.081 -18.831  1.00  0.00     0.188 C 
BRANCH   6   7
HETATM    7  O1  UNL     1      -1.746  47.632 -20.121  1.00  0.00    -0.395 OA
HETATM    8  C1  UNL     1      -2.792  46.977 -20.834  1.00  0.00     0.201 C 
ENDBRANCH   6   7
ENDBRANCH   1   6
BRANCH   1   9
HETATM    9  C4  UNL     1      -0.807  49.975 -19.739  1.00  0.00     0.234 C 
HETATM   10  O2  UNL     1      -0.299  49.203 -20.547  1.00  0.00    -0.272 OA
HETATM   11  N1  UNL     1      -0.692  51.357 -19.785  1.00  0.00    -0.326 N 
HETATM   12  H6  UNL     1      -1.223  51.863 -19.075  1.00  0.00     0.169 HD
BRANCH  11  13
HETATM   13  C5  UNL     1      -0.107  52.143 -20.799  1.00  0.00     0.035 A 
HETATM   14  C6  UNL     1       0.892  53.045 -20.408  1.00  0.00     0.032 A 
HETATM   15  C7  UNL     1       1.506  53.912 -21.324  1.00  0.00     0.034 A 
HETATM   16  C8  UNL     1       1.078  53.842 -22.651  1.00  0.00     0.060 A 
HETATM   17  N2  UNL     1       1.436  54.552 -23.761  1.00  0.00    -0.299 N 
HETATM   18  C16 UNL     1       0.110  52.946 -23.087  1.00  0.00     0.023 A 
HETATM   19  N3  UNL     1       0.779  54.201 -24.880  1.00  0.00    -0.299 N 
HETATM   20  H9  UNL     1       2.136  55.290 -23.833  1.00  0.00     0.187 HD
HETATM   21  C9  UNL     1      -0.020  53.192 -24.490  1.00  0.00     0.070 A 
ATOM     22  H3  UNL     1       0.865  54.608 -25.811  1.00  0.00     0.187 HD
HETATM   23  C17 UNL     1      -0.487  52.080 -22.146  1.00  0.00     0.045 A 
BRANCH  21  24
HETATM   24  C10 UNL     1      -0.879  52.497 -25.450  1.00  0.00    -0.007 A 
HETATM   25  C11 UNL     1      -2.279  52.554 -25.321  1.00  0.00     0.017 A 
HETATM   26  C12 UNL     1      -3.096  51.877 -26.234  1.00  0.00     0.043 A 
HETATM   27  C13 UNL     1      -2.517  51.157 -27.274  1.00  0.00     0.116 A 
HETATM   28  F1  UNL     1      -3.304  50.512 -28.147  1.00  0.00    -0.206 F 
HETATM   29  C14 UNL     1      -1.134  51.103 -27.426  1.00  0.00     0.043 A 
HETATM   30  C15 UNL     1      -0.314  51.773 -26.514  1.00  0.00     0.017 A 
ENDBRANCH  21  24
ENDBRANCH  11  13
ENDBRANCH   1   9
BRANCH   4  31
HETATM   31  C20 UNL     1      -2.222  49.229 -15.298  1.00  0.00     0.374 C 
BRANCH  31  32
HETATM   32  C21 UNL     1      -1.616  49.192 -13.874  1.00  0.00     0.248 C 
HETATM   33  O3  UNL     1      -0.741  48.391 -13.547  1.00  0.00    -0.271 OA
HETATM   34  N5  UNL     1      -2.133  50.113 -12.955  1.00  0.00    -0.348 N 
HETATM   35  C22 UNL     1      -2.400  51.513 -13.322  1.00  0.00     0.145 C 
HETATM   36  C35 UNL     1      -1.737  49.936 -11.553  1.00  0.00     0.145 C 
HETATM   37  C23 UNL     1      -3.350  52.221 -12.332  1.00  0.00     0.143 C 
HETATM   38  N6  UNL     1      -2.962  52.009 -10.926  1.00  0.00    -0.378 N 
HETATM   39  C34 UNL     1      -2.751  50.580 -10.591  1.00  0.00     0.143 C 
BRANCH  38  40
HETATM   40  C24 UNL     1      -2.171  52.922 -10.234  1.00  0.00     0.030 A 
HETATM   41  C25 UNL     1      -1.762  54.154 -10.753  1.00  0.00     0.030 A 
HETATM   42  C26 UNL     1      -0.945  55.030 -10.014  1.00  0.00     0.017 A 
HETATM   43  C27 UNL     1      -0.519  54.727  -8.709  1.00  0.00     0.008 A 
HETATM   44  C32 UNL     1      -0.956  53.504  -8.180  1.00  0.00     0.017 A 
HETATM   45  C33 UNL     1      -1.766  52.632  -8.924  1.00  0.00     0.030 A 
BRANCH  43  46
HETATM   46  C28 UNL     1       0.341  55.644  -7.932  1.00  0.00     0.115 A 
HETATM   47  N7  UNL     1      -0.160  56.159  -6.789  1.00  0.00    -0.352 N 
HETATM   48  C29 UNL     1       0.656  56.965  -6.079  1.00  0.00     0.091 A 
ATOM     49  H7  UNL     1      -1.108  55.950  -6.477  1.00  0.00     0.166 HD
HETATM   50  C30 UNL     1       1.938  57.274  -6.462  1.00  0.00     0.034 A 
HETATM   51  C31 UNL     1       2.352  56.706  -7.643  1.00  0.00     0.091 A 
HETATM   52  N8  UNL     1       1.585  55.893  -8.393  1.00  0.00    -0.352 N 
ATOM     53  H8  UNL     1       1.925  55.487  -9.265  1.00  0.00     0.166 HD
ENDBRANCH  43  46
ENDBRANCH  38  40
ENDBRANCH  31  32
ENDBRANCH   4  31
TORSDOF 9
ENDMDL
MODEL 9
REMARK minimizedAffinity -10.3358765
REMARK CNNscore 0.2041464
REMARK CNNaffinity 6.71592951
REMARK  9 active torsions:
REMARK  status: ('A' for Active; 'I' for Inactive)
REMARK    1  A    between atoms: O1_2  and  C2_3 
REMARK    2  A    between atoms: C2_3  and  C3_4 
REMARK    3  A    between atoms: C3_4  and  C4_5 
REMARK       I    between atoms: C4_5  and  N1_7 
REMARK    4  A    between atoms: N1_7  and  C5_8 
REMARK    5  A    between atoms: C9_15  and  C10_16 
REMARK    6  A    between atoms: N4_27  and  C20_28 
REMARK    7  A    between atoms: C20_28  and  C21_29 
REMARK       I    between atoms: C21_29  and  N5_31 
REMARK    8  A    between atoms: N6_34  and  C24_35 
REMARK    9  A    between atoms: C27_38  and  C28_39 
ROOT
HETATM    1  C3  UNL     1      -0.646  50.193 -16.779  1.00  0.00     0.090 C 
HETATM    2  C18 UNL     1      -2.017  49.960 -17.440  1.00  0.00     0.053 C 
HETATM    3  C19 UNL     1      -3.005  50.732 -16.576  1.00  0.00     0.274 C 
HETATM    4  N4  UNL     1      -2.441  50.700 -15.220  1.00  0.00     0.098 N 
HETATM    5  C36 UNL     1      -0.988  50.826 -15.414  1.00  0.00     0.294 C 
ENDROOT
BRANCH   1   6
HETATM    6  C2  UNL     1       0.125  48.876 -16.563  1.00  0.00     0.188 C 
BRANCH   6   7
HETATM    7  O1  UNL     1       0.812  48.905 -15.301  1.00  0.00    -0.395 OA
HETATM    8  C1  UNL     1       1.276  47.608 -14.935  1.00  0.00     0.201 C 
ENDBRANCH   6   7
ENDBRANCH   1   6
BRANCH   1   9
HETATM    9  C4  UNL     1       0.206  51.149 -17.642  1.00  0.00     0.234 C 
HETATM   10  O2  UNL     1       1.283  51.592 -17.251  1.00  0.00    -0.272 OA
HETATM   11  N1  UNL     1      -0.392  51.475 -18.851  1.00  0.00    -0.326 N 
HETATM   12  H6  UNL     1      -1.257  50.976 -19.058  1.00  0.00     0.169 HD
BRANCH  11  13
HETATM   13  C5  UNL     1       0.147  52.245 -19.902  1.00  0.00     0.035 A 
HETATM   14  C6  UNL     1       0.958  53.331 -19.544  1.00  0.00     0.032 A 
HETATM   15  C7  UNL     1       1.505  54.195 -20.504  1.00  0.00     0.034 A 
HETATM   16  C8  UNL     1       1.204  53.931 -21.842  1.00  0.00     0.060 A 
HETATM   17  N2  UNL     1       1.539  54.581 -22.995  1.00  0.00    -0.299 N 
HETATM   18  C16 UNL     1       0.426  52.852 -22.243  1.00  0.00     0.023 A 
HETATM   19  N3  UNL     1       1.039  54.024 -24.111  1.00  0.00    -0.299 N 
HETATM   20  H9  UNL     1       2.120  55.412 -23.098  1.00  0.00     0.187 HD
HETATM   21  C9  UNL     1       0.376  52.940 -23.669  1.00  0.00     0.070 A 
ATOM     22  H3  UNL     1       1.138  54.348 -25.073  1.00  0.00     0.187 HD
HETATM   23  C17 UNL     1      -0.106  51.994 -21.256  1.00  0.00     0.045 A 
BRANCH  21  24
HETATM   24  C10 UNL     1      -0.282  52.027 -24.605  1.00  0.00    -0.007 A 
HETATM   25  C11 UNL     1       0.327  51.707 -25.832  1.00  0.00     0.017 A 
HETATM   26  C12 UNL     1      -0.312  50.844 -26.730  1.00  0.00     0.043 A 
HETATM   27  C13 UNL     1      -1.547  50.297 -26.398  1.00  0.00     0.116 A 
HETATM   28  F1  UNL     1      -2.154  49.470 -27.261  1.00  0.00    -0.206 F 
HETATM   29  C14 UNL     1      -2.158  50.590 -25.182  1.00  0.00     0.043 A 
HETATM   30  C15 UNL     1      -1.526  51.455 -24.284  1.00  0.00     0.017 A 
ENDBRANCH  21  24
ENDBRANCH  11  13
ENDBRANCH   1   9
BRANCH   4  31
HETATM   31  C20 UNL     1      -2.854  49.522 -14.439  1.00  0.00     0.374 C 
BRANCH  31  32
HETATM   32  C21 UNL     1      -2.157  49.518 -13.056  1.00  0.00     0.248 C 
HETATM   33  O3  UNL     1      -1.326  48.668 -12.736  1.00  0.00    -0.271 OA
HETATM   34  N5  UNL     1      -2.537  50.529 -12.166  1.00  0.00    -0.348 N 
HETATM   35  C22 UNL     1      -2.720  51.922 -12.603  1.00  0.00     0.145 C 
HETATM   36  C35 UNL     1      -2.060  50.401 -10.784  1.00  0.00     0.145 C 
HETATM   37  C23 UNL     1      -3.543  52.761 -11.601  1.00  0.00     0.143 C 
HETATM   38  N6  UNL     1      -3.076  52.599 -10.211  1.00  0.00    -0.378 N 
HETATM   39  C34 UNL     1      -2.954  51.179  -9.802  1.00  0.00     0.143 C 
BRANCH  38  40
HETATM   40  C24 UNL     1      -2.172  53.484  -9.630  1.00  0.00     0.030 A 
HETATM   41  C25 UNL     1      -1.813  54.715 -10.187  1.00  0.00     0.030 A 
HETATM   42  C26 UNL     1      -0.877  55.561  -9.563  1.00  0.00     0.017 A 
HETATM   43  C27 UNL     1      -0.274  55.226  -8.338  1.00  0.00     0.008 A 
HETATM   44  C32 UNL     1      -0.658  54.005  -7.767  1.00  0.00     0.017 A 
HETATM   45  C33 UNL     1      -1.588  53.163  -8.397  1.00  0.00     0.030 A 
BRANCH  43  46
HETATM   46  C28 UNL     1       0.711  56.112  -7.683  1.00  0.00     0.115 A 
HETATM   47  N7  UNL     1       0.350  56.709  -6.527  1.00  0.00    -0.352 N 
HETATM   48  C29 UNL     1       1.278  57.484  -5.929  1.00  0.00     0.091 A 
ATOM     49  H7  UNL     1      -0.579  56.581  -6.125  1.00  0.00     0.166 HD
HETATM   50  C30 UNL     1       2.538  57.684  -6.435  1.00  0.00     0.034 A 
HETATM   51  C31 UNL     1       2.807  57.039  -7.618  1.00  0.00     0.091 A 
HETATM   52  N8  UNL     1       1.923  56.252  -8.260  1.00  0.00    -0.352 N 
ATOM     53  H8  UNL     1       2.157  55.787  -9.137  1.00  0.00     0.166 HD
ENDBRANCH  43  46
ENDBRANCH  38  40
ENDBRANCH  31  32
ENDBRANCH   4  31
TORSDOF 9
ENDMDL
