MODEL 1
REMARK minimizedAffinity -10.1781578
REMARK  5 active torsions:
REMARK  status: ('A' for Active; 'I' for Inactive)
REMARK    1  A    between atoms: C2_2  and  N1_3 
REMARK    2  A    between atoms: C2_2  and  C20_31 
REMARK       I    between atoms: N1_3  and  C3_4 
REMARK       I    between atoms: C3_4  and  N2_6 
REMARK    3  A    between atoms: N2_6  and  C4_7 
REMARK    4  A    between atoms: C7_13  and  C8_14 
REMARK    5  A    between atoms: C11_17  and  N5_18 
ROOT
HETATM    1  C4  UNL     1       0.821  52.173 -16.579  1.00  0.00     0.111 A 
HETATM    2  C5  UNL     1       0.164  50.951 -16.720  1.00  0.00     0.080 A 
HETATM    3  C6  UNL     1      -0.191  50.608 -18.024  1.00  0.00     0.065 A 
HETATM    4  N3  UNL     1      -0.852  49.532 -18.542  1.00  0.00    -0.299 N 
HETATM    5  N4  UNL     1      -1.020  49.575 -19.873  1.00  0.00    -0.299 N 
ATOM      6  H4  UNL     1      -1.497  48.896 -20.465  1.00  0.00     0.187 HD
HETATM    7  C7  UNL     1      -0.416  50.716 -20.248  1.00  0.00     0.073 A 
HETATM    8  C18 UNL     1       0.107  51.411 -19.117  1.00  0.00     0.036 A 
HETATM    9  C19 UNL     1       0.774  52.614 -18.887  1.00  0.00     0.105 A 
HETATM   10  N7  UNL     1       1.128  52.965 -17.624  1.00  0.00    -0.351 N 
ATOM     11  H7  UNL     1       1.633  53.837 -17.466  1.00  0.00     0.166 HD
HETATM   12  H8  UNL     1      -1.223  48.732 -18.044  1.00  0.00     0.187 HD
ENDROOT
BRANCH   1  13
HETATM   13  N2  UNL     1       1.191  52.548 -15.279  1.00  0.00    -0.295 N 
HETATM   14  C3  UNL     1       0.740  51.957 -14.125  1.00  0.00     0.322 C 
HETATM   15  N1  UNL     1       1.213  52.636 -13.018  1.00  0.00    -0.335 N 
HETATM   16  O1  UNL     1       0.055  50.950 -14.020  1.00  0.00    -0.247 OA
HETATM   17  H5  UNL     1       1.372  53.623 -13.137  1.00  0.00     0.165 HD
HETATM   18  H6  UNL     1       2.005  53.130 -15.179  1.00  0.00     0.172 HD
BRANCH  15  19
HETATM   19  C2  UNL     1       0.879  52.200 -11.671  1.00  0.00     0.115 C 
HETATM   20  C1  UNL     1       0.922  50.671 -11.553  1.00  0.00     0.037 C 
BRANCH  19  21
HETATM   21  C20 UNL     1      -0.452  52.821 -11.273  1.00  0.00    -0.036 A 
HETATM   22  C21 UNL     1      -1.603  52.010 -11.276  1.00  0.00     0.012 A 
HETATM   23  C22 UNL     1      -2.846  52.529 -10.910  1.00  0.00     0.043 A 
HETATM   24  C23 UNL     1      -2.946  53.860 -10.528  1.00  0.00     0.116 A 
HETATM   25  F1  UNL     1      -4.140  54.361 -10.186  1.00  0.00    -0.206 F 
HETATM   26  C24 UNL     1      -1.824  54.677 -10.498  1.00  0.00     0.043 A 
HETATM   27  C25 UNL     1      -0.578  54.160 -10.863  1.00  0.00     0.012 A 
ENDBRANCH  19  21
ENDBRANCH  15  19
ENDBRANCH   1  13
BRANCH   7  28
HETATM   28  C8  UNL     1      -0.365  51.107 -21.650  1.00  0.00     0.009 A 
HETATM   29  C9  UNL     1       0.495  52.100 -22.094  1.00  0.00     0.019 A 
HETATM   30  C10 UNL     1       0.529  52.429 -23.453  1.00  0.00     0.049 A 
HETATM   31  C11 UNL     1      -0.308  51.780 -24.361  1.00  0.00     0.102 A 
HETATM   32  N6  UNL     1      -1.149  50.815 -23.928  1.00  0.00    -0.352 N 
HETATM   33  C17 UNL     1      -1.168  50.506 -22.607  1.00  0.00     0.103 A 
ATOM     34  H6  UNL     1      -1.759  50.326 -24.583  1.00  0.00     0.166 HD
BRANCH  31  35
HETATM   35  N5  UNL     1      -0.271  52.076 -25.719  1.00  0.00    -0.367 N 
HETATM   36  C12 UNL     1      -0.016  53.471 -26.081  1.00  0.00     0.124 C 
HETATM   37  C13 UNL     1      -0.450  53.707 -27.525  1.00  0.00     0.020 C 
HETATM   38  C14 UNL     1       0.278  52.792 -28.509  1.00  0.00     0.003 C 
HETATM   39  C15 UNL     1       0.907  51.577 -27.836  1.00  0.00     0.020 C 
HETATM   40  C16 UNL     1       0.054  51.031 -26.692  1.00  0.00     0.124 C 
ENDBRANCH  31  35
ENDBRANCH   7  28
TORSDOF 5
ENDMDL
MODEL 2
REMARK minimizedAffinity -10.1098509
REMARK  5 active torsions:
REMARK  status: ('A' for Active; 'I' for Inactive)
REMARK    1  A    between atoms: C2_2  and  N1_3 
REMARK    2  A    between atoms: C2_2  and  C20_31 
REMARK       I    between atoms: N1_3  and  C3_4 
REMARK       I    between atoms: C3_4  and  N2_6 
REMARK    3  A    between atoms: N2_6  and  C4_7 
REMARK    4  A    between atoms: C7_13  and  C8_14 
REMARK    5  A    between atoms: C11_17  and  N5_18 
ROOT
HETATM    1  C4  UNL     1       1.192  52.104 -15.301  1.00  0.00     0.111 A 
HETATM    2  C5  UNL     1       0.536  50.880 -15.419  1.00  0.00     0.080 A 
HETATM    3  C6  UNL     1       0.110  50.548 -16.705  1.00  0.00     0.065 A 
HETATM    4  N3  UNL     1      -0.573  49.474 -17.198  1.00  0.00    -0.299 N 
HETATM    5  N4  UNL     1      -0.815  49.531 -18.516  1.00  0.00    -0.299 N 
ATOM      6  H4  UNL     1      -1.321  48.855 -19.088  1.00  0.00     0.187 HD
HETATM    7  C7  UNL     1      -0.240  50.679 -18.911  1.00  0.00     0.073 A 
HETATM    8  C18 UNL     1       0.342  51.365 -17.804  1.00  0.00     0.036 A 
HETATM    9  C19 UNL     1       1.014  52.570 -17.598  1.00  0.00     0.105 A 
HETATM   10  N7  UNL     1       1.436  52.909 -16.353  1.00  0.00    -0.351 N 
ATOM     11  H7  UNL     1       1.943  53.783 -16.213  1.00  0.00     0.166 HD
HETATM   12  H8  UNL     1      -0.911  48.667 -16.688  1.00  0.00     0.187 HD
ENDROOT
BRANCH   1  13
HETATM   13  N2  UNL     1       1.632  52.467 -14.020  1.00  0.00    -0.295 N 
HETATM   14  C3  UNL     1       0.820  52.847 -12.980  1.00  0.00     0.322 C 
HETATM   15  N1  UNL     1       1.578  53.243 -11.895  1.00  0.00    -0.335 N 
HETATM   16  O1  UNL     1      -0.401  52.820 -12.939  1.00  0.00    -0.247 OA
HETATM   17  H5  UNL     1       2.475  53.649 -12.104  1.00  0.00     0.165 HD
HETATM   18  H6  UNL     1       2.574  52.221 -13.767  1.00  0.00     0.172 HD
BRANCH  15  19
HETATM   19  C2  UNL     1       0.948  53.687 -10.661  1.00  0.00     0.115 C 
HETATM   20  C1  UNL     1      -0.515  54.088 -10.896  1.00  0.00     0.037 C 
BRANCH  19  21
HETATM   21  C20 UNL     1       1.804  54.782 -10.042  1.00  0.00    -0.036 A 
HETATM   22  C21 UNL     1       1.499  55.223  -8.740  1.00  0.00     0.012 A 
HETATM   23  C22 UNL     1       2.260  56.217  -8.124  1.00  0.00     0.043 A 
HETATM   24  C23 UNL     1       3.337  56.772  -8.801  1.00  0.00     0.116 A 
HETATM   25  F1  UNL     1       4.062  57.734  -8.213  1.00  0.00    -0.206 F 
HETATM   26  C24 UNL     1       3.671  56.344 -10.079  1.00  0.00     0.043 A 
HETATM   27  C25 UNL     1       2.912  55.347 -10.697  1.00  0.00     0.012 A 
ENDBRANCH  19  21
ENDBRANCH  15  19
ENDBRANCH   1  13
BRANCH   7  28
HETATM   28  C8  UNL     1      -0.269  51.086 -20.309  1.00  0.00     0.009 A 
HETATM   29  C9  UNL     1       0.344  52.254 -20.737  1.00  0.00     0.019 A 
HETATM   30  C10 UNL     1       0.311  52.595 -22.093  1.00  0.00     0.049 A 
HETATM   31  C11 UNL     1      -0.348  51.782 -23.015  1.00  0.00     0.102 A 
HETATM   32  N6  UNL     1      -0.949  50.645 -22.597  1.00  0.00    -0.352 N 
HETATM   33  C17 UNL     1      -0.906  50.326 -21.279  1.00  0.00     0.103 A 
ATOM     34  H6  UNL     1      -1.426  50.036 -23.262  1.00  0.00     0.166 HD
BRANCH  31  35
HETATM   35  N5  UNL     1      -0.370  52.091 -24.369  1.00  0.00    -0.367 N 
HETATM   36  C12 UNL     1       0.530  53.156 -24.815  1.00  0.00     0.124 C 
HETATM   37  C13 UNL     1       0.071  53.671 -26.176  1.00  0.00     0.020 C 
HETATM   38  C14 UNL     1       0.036  52.568 -27.234  1.00  0.00     0.003 C 
HETATM   39  C15 UNL     1       0.015  51.168 -26.631  1.00  0.00     0.020 C 
HETATM   40  C16 UNL     1      -0.808  51.093 -25.347  1.00  0.00     0.124 C 
ENDBRANCH  31  35
ENDBRANCH   7  28
TORSDOF 5
ENDMDL
MODEL 3
REMARK minimizedAffinity -9.73096466
REMARK  5 active torsions:
REMARK  status: ('A' for Active; 'I' for Inactive)
REMARK    1  A    between atoms: C2_2  and  N1_3 
REMARK    2  A    between atoms: C2_2  and  C20_31 
REMARK       I    between atoms: N1_3  and  C3_4 
REMARK       I    between atoms: C3_4  and  N2_6 
REMARK    3  A    between atoms: N2_6  and  C4_7 
REMARK    4  A    between atoms: C7_13  and  C8_14 
REMARK    5  A    between atoms: C11_17  and  N5_18 
ROOT
HETATM    1  C4  UNL     1       0.553  51.397 -16.843  1.00  0.00     0.111 A 
HETATM    2  C5  UNL     1       1.111  52.560 -17.373  1.00  0.00     0.080 A 
HETATM    3  C6  UNL     1       0.932  52.742 -18.744  1.00  0.00     0.065 A 
HETATM    4  N3  UNL     1       1.346  53.718 -19.602  1.00  0.00    -0.299 N 
HETATM    5  N4  UNL     1       0.981  53.523 -20.879  1.00  0.00    -0.299 N 
ATOM      6  H4  UNL     1       1.195  54.108 -21.687  1.00  0.00     0.187 HD
HETATM    7  C7  UNL     1       0.272  52.382 -20.852  1.00  0.00     0.073 A 
HETATM    8  C18 UNL     1       0.227  51.842 -19.532  1.00  0.00     0.036 A 
HETATM    9  C19 UNL     1      -0.306  50.708 -18.920  1.00  0.00     0.105 A 
HETATM   10  N7  UNL     1      -0.143  50.515 -17.586  1.00  0.00    -0.351 N 
ATOM     11  H7  UNL     1      -0.551  49.693 -17.142  1.00  0.00     0.166 HD
HETATM   12  H8  UNL     1       1.888  54.547 -19.386  1.00  0.00     0.187 HD
ENDROOT
BRANCH   1  13
HETATM   13  N2  UNL     1       0.716  51.185 -15.467  1.00  0.00    -0.295 N 
HETATM   14  C3  UNL     1      -0.303  51.114 -14.549  1.00  0.00     0.322 C 
HETATM   15  N1  UNL     1       0.207  51.008 -13.269  1.00  0.00    -0.335 N 
HETATM   16  O1  UNL     1      -1.505  51.097 -14.768  1.00  0.00    -0.247 OA
HETATM   17  H5  UNL     1       1.099  51.447 -13.108  1.00  0.00     0.165 HD
HETATM   18  H6  UNL     1       1.606  50.838 -15.155  1.00  0.00     0.172 HD
BRANCH  15  19
HETATM   19  C2  UNL     1      -0.674  50.911 -12.116  1.00  0.00     0.115 C 
HETATM   20  C1  UNL     1      -1.977  50.183 -12.470  1.00  0.00     0.037 C 
BRANCH  19  21
HETATM   21  C20 UNL     1      -0.874  52.303 -11.536  1.00  0.00    -0.036 A 
HETATM   22  C21 UNL     1      -2.142  52.648 -11.028  1.00  0.00     0.012 A 
HETATM   23  C22 UNL     1      -2.374  53.908 -10.477  1.00  0.00     0.043 A 
HETATM   24  C23 UNL     1      -1.340  54.831 -10.420  1.00  0.00     0.116 A 
HETATM   25  F1  UNL     1      -1.565  56.046  -9.899  1.00  0.00    -0.206 F 
HETATM   26  C24 UNL     1      -0.075  54.512 -10.896  1.00  0.00     0.043 A 
HETATM   27  C25 UNL     1       0.161  53.250 -11.448  1.00  0.00     0.012 A 
ENDBRANCH  19  21
ENDBRANCH  15  19
ENDBRANCH   1  13
BRANCH   7  28
HETATM   28  C8  UNL     1      -0.324  51.845 -22.067  1.00  0.00     0.009 A 
HETATM   29  C9  UNL     1       0.089  52.263 -23.323  1.00  0.00     0.019 A 
HETATM   30  C10 UNL     1      -0.493  51.704 -24.465  1.00  0.00     0.049 A 
HETATM   31  C11 UNL     1      -1.499  50.743 -24.351  1.00  0.00     0.102 A 
HETATM   32  N6  UNL     1      -1.904  50.338 -23.126  1.00  0.00    -0.352 N 
HETATM   33  C17 UNL     1      -1.327  50.888 -22.029  1.00  0.00     0.103 A 
ATOM     34  H6  UNL     1      -2.631  49.630 -23.029  1.00  0.00     0.166 HD
BRANCH  31  35
HETATM   35  N5  UNL     1      -2.072  50.158 -25.473  1.00  0.00    -0.367 N 
HETATM   36  C12 UNL     1      -3.301  49.390 -25.259  1.00  0.00     0.124 C 
HETATM   37  C13 UNL     1      -3.536  48.468 -26.452  1.00  0.00     0.020 C 
HETATM   38  C14 UNL     1      -3.648  49.237 -27.768  1.00  0.00     0.003 C 
HETATM   39  C15 UNL     1      -3.065  50.643 -27.686  1.00  0.00     0.020 C 
HETATM   40  C16 UNL     1      -1.820  50.712 -26.805  1.00  0.00     0.124 C 
ENDBRANCH  31  35
ENDBRANCH   7  28
TORSDOF 5
ENDMDL
MODEL 4
REMARK minimizedAffinity -9.69461536
REMARK  5 active torsions:
REMARK  status: ('A' for Active; 'I' for Inactive)
REMARK    1  A    between atoms: C2_2  and  N1_3 
REMARK    2  A    between atoms: C2_2  and  C20_31 
REMARK       I    between atoms: N1_3  and  C3_4 
REMARK       I    between atoms: C3_4  and  N2_6 
REMARK    3  A    between atoms: N2_6  and  C4_7 
REMARK    4  A    between atoms: C7_13  and  C8_14 
REMARK    5  A    between atoms: C11_17  and  N5_18 
ROOT
HETATM    1  C4  UNL     1       0.996  52.198 -16.021  1.00  0.00     0.111 A 
HETATM    2  C5  UNL     1       0.309  50.991 -16.138  1.00  0.00     0.080 A 
HETATM    3  C6  UNL     1      -0.076  50.642 -17.432  1.00  0.00     0.065 A 
HETATM    4  N3  UNL     1      -0.770  49.577 -17.928  1.00  0.00    -0.299 N 
HETATM    5  N4  UNL     1      -0.959  49.611 -19.256  1.00  0.00    -0.299 N 
ATOM      6  H4  UNL     1      -1.463  48.937 -19.833  1.00  0.00     0.187 HD
HETATM    7  C7  UNL     1      -0.335  50.733 -19.653  1.00  0.00     0.073 A 
HETATM    8  C18 UNL     1       0.222  51.427 -18.538  1.00  0.00     0.036 A 
HETATM    9  C19 UNL     1       0.921  52.616 -18.332  1.00  0.00     0.105 A 
HETATM   10  N7  UNL     1       1.304  52.971 -17.079  1.00  0.00    -0.351 N 
ATOM     11  H7  UNL     1       1.832  53.833 -16.939  1.00  0.00     0.166 HD
HETATM   12  H8  UNL     1      -1.152  48.792 -17.415  1.00  0.00     0.187 HD
ENDROOT
BRANCH   1  13
HETATM   13  N2  UNL     1       1.396  52.577 -14.731  1.00  0.00    -0.295 N 
HETATM   14  C3  UNL     1       2.012  51.757 -13.818  1.00  0.00     0.322 C 
HETATM   15  N1  UNL     1       2.170  52.411 -12.611  1.00  0.00    -0.335 N 
HETATM   16  O1  UNL     1       2.424  50.620 -13.996  1.00  0.00    -0.247 OA
HETATM   17  H5  UNL     1       1.476  53.105 -12.387  1.00  0.00     0.165 HD
HETATM   18  H6  UNL     1       1.448  53.562 -14.534  1.00  0.00     0.172 HD
BRANCH  15  19
HETATM   19  C2  UNL     1       2.804  51.753 -11.479  1.00  0.00     0.115 C 
HETATM   20  C1  UNL     1       1.763  51.093 -10.564  1.00  0.00     0.037 C 
BRANCH  19  21
HETATM   21  C20 UNL     1       3.709  52.754 -10.777  1.00  0.00    -0.036 A 
HETATM   22  C21 UNL     1       3.540  54.125 -11.050  1.00  0.00     0.012 A 
HETATM   23  C22 UNL     1       4.338  55.084 -10.425  1.00  0.00     0.043 A 
HETATM   24  C23 UNL     1       5.304  54.681  -9.514  1.00  0.00     0.116 A 
HETATM   25  F1  UNL     1       6.078  55.600  -8.920  1.00  0.00    -0.206 F 
HETATM   26  C24 UNL     1       5.480  53.337  -9.211  1.00  0.00     0.043 A 
HETATM   27  C25 UNL     1       4.681  52.375  -9.835  1.00  0.00     0.012 A 
ENDBRANCH  19  21
ENDBRANCH  15  19
ENDBRANCH   1  13
BRANCH   7  28
HETATM   28  C8  UNL     1      -0.299  51.109 -21.060  1.00  0.00     0.009 A 
HETATM   29  C9  UNL     1       0.576  52.077 -21.529  1.00  0.00     0.019 A 
HETATM   30  C10 UNL     1       0.595  52.391 -22.891  1.00  0.00     0.049 A 
HETATM   31  C11 UNL     1      -0.271  51.752 -23.779  1.00  0.00     0.102 A 
HETATM   32  N6  UNL     1      -1.126  50.809 -23.322  1.00  0.00    -0.352 N 
HETATM   33  C17 UNL     1      -1.130  50.515 -21.997  1.00  0.00     0.103 A 
ATOM     34  H6  UNL     1      -1.757  50.328 -23.961  1.00  0.00     0.166 HD
BRANCH  31  35
HETATM   35  N5  UNL     1      -0.250  52.032 -25.140  1.00  0.00    -0.367 N 
HETATM   36  C12 UNL     1       0.280  53.339 -25.534  1.00  0.00     0.124 C 
HETATM   37  C13 UNL     1      -0.176  53.663 -26.954  1.00  0.00     0.020 C 
HETATM   38  C14 UNL     1       0.278  52.612 -27.965  1.00  0.00     0.003 C 
HETATM   39  C15 UNL     1       0.667  51.290 -27.314  1.00  0.00     0.020 C 
HETATM   40  C16 UNL     1      -0.216  50.942 -26.117  1.00  0.00     0.124 C 
ENDBRANCH  31  35
ENDBRANCH   7  28
TORSDOF 5
ENDMDL
MODEL 5
REMARK minimizedAffinity -9.61385918
REMARK  5 active torsions:
REMARK  status: ('A' for Active; 'I' for Inactive)
REMARK    1  A    between atoms: C2_2  and  N1_3 
REMARK    2  A    between atoms: C2_2  and  C20_31 
REMARK       I    between atoms: N1_3  and  C3_4 
REMARK       I    between atoms: C3_4  and  N2_6 
REMARK    3  A    between atoms: N2_6  and  C4_7 
REMARK    4  A    between atoms: C7_13  and  C8_14 
REMARK    5  A    between atoms: C11_17  and  N5_18 
ROOT
HETATM    1  C4  UNL     1      -3.123  50.714 -27.118  1.00  0.00     0.111 A 
HETATM    2  C5  UNL     1      -2.290  51.806 -27.360  1.00  0.00     0.080 A 
HETATM    3  C6  UNL     1      -1.592  52.286 -26.252  1.00  0.00     0.065 A 
HETATM    4  N3  UNL     1      -0.726  53.328 -26.094  1.00  0.00    -0.299 N 
HETATM    5  N4  UNL     1      -0.269  53.482 -24.842  1.00  0.00    -0.299 N 
ATOM      6  H4  UNL     1       0.366  54.199 -24.492  1.00  0.00     0.187 HD
HETATM    7  C7  UNL     1      -0.839  52.478 -24.154  1.00  0.00     0.073 A 
HETATM    8  C18 UNL     1      -1.695  51.706 -24.995  1.00  0.00     0.036 A 
HETATM    9  C19 UNL     1      -2.546  50.611 -24.842  1.00  0.00     0.105 A 
HETATM   10  N7  UNL     1      -3.233  50.130 -25.910  1.00  0.00    -0.351 N 
ATOM     11  H7  UNL     1      -3.838  49.317 -25.795  1.00  0.00     0.166 HD
HETATM   12  H8  UNL     1      -0.406  53.981 -26.799  1.00  0.00     0.187 HD
ENDROOT
BRANCH   1  13
HETATM   13  N2  UNL     1      -3.839  50.208 -28.212  1.00  0.00    -0.295 N 
HETATM   14  C3  UNL     1      -4.403  48.958 -28.282  1.00  0.00     0.322 C 
HETATM   15  N1  UNL     1      -4.939  48.739 -29.537  1.00  0.00    -0.335 N 
HETATM   16  O1  UNL     1      -4.492  48.128 -27.389  1.00  0.00    -0.247 OA
HETATM   17  H5  UNL     1      -4.486  49.210 -30.302  1.00  0.00     0.165 HD
HETATM   18  H6  UNL     1      -4.160  50.867 -28.900  1.00  0.00     0.172 HD
BRANCH  15  19
HETATM   19  C2  UNL     1      -5.601  47.485 -29.862  1.00  0.00     0.115 C 
HETATM   20  C1  UNL     1      -5.079  46.906 -31.183  1.00  0.00     0.037 C 
BRANCH  19  21
HETATM   21  C20 UNL     1      -7.106  47.704 -29.826  1.00  0.00    -0.036 A 
HETATM   22  C21 UNL     1      -7.724  48.329 -30.927  1.00  0.00     0.012 A 
HETATM   23  C22 UNL     1      -9.102  48.544 -30.948  1.00  0.00     0.043 A 
HETATM   24  C23 UNL     1      -9.876  48.127 -29.873  1.00  0.00     0.116 A 
HETATM   25  F1  UNL     1     -11.199  48.342 -29.888  1.00  0.00    -0.206 F 
HETATM   26  C24 UNL     1      -9.296  47.492 -28.783  1.00  0.00     0.043 A 
HETATM   27  C25 UNL     1      -7.916  47.274 -28.761  1.00  0.00     0.012 A 
ENDBRANCH  19  21
ENDBRANCH  15  19
ENDBRANCH   1  13
BRANCH   7  28
HETATM   28  C8  UNL     1      -0.562  52.294 -22.736  1.00  0.00     0.009 A 
HETATM   29  C9  UNL     1       0.660  52.647 -22.184  1.00  0.00     0.019 A 
HETATM   30  C10 UNL     1       0.876  52.474 -20.814  1.00  0.00     0.049 A 
HETATM   31  C11 UNL     1      -0.121  51.933 -20.001  1.00  0.00     0.102 A 
HETATM   32  N6  UNL     1      -1.311  51.586 -20.539  1.00  0.00    -0.352 N 
HETATM   33  C17 UNL     1      -1.506  51.762 -21.870  1.00  0.00     0.103 A 
ATOM     34  H6  UNL     1      -2.051  51.198 -19.954  1.00  0.00     0.166 HD
BRANCH  31  35
HETATM   35  N5  UNL     1       0.066  51.777 -18.632  1.00  0.00    -0.367 N 
HETATM   36  C12 UNL     1      -0.154  50.436 -18.088  1.00  0.00     0.124 C 
HETATM   37  C13 UNL     1      -0.355  50.530 -16.578  1.00  0.00     0.020 C 
HETATM   38  C14 UNL     1       0.839  51.168 -15.870  1.00  0.00     0.003 C 
HETATM   39  C15 UNL     1       1.733  51.964 -16.814  1.00  0.00     0.020 C 
HETATM   40  C16 UNL     1       0.941  52.693 -17.898  1.00  0.00     0.124 C 
ENDBRANCH  31  35
ENDBRANCH   7  28
TORSDOF 5
ENDMDL
MODEL 6
REMARK minimizedAffinity -9.57129002
REMARK  5 active torsions:
REMARK  status: ('A' for Active; 'I' for Inactive)
REMARK    1  A    between atoms: C2_2  and  N1_3 
REMARK    2  A    between atoms: C2_2  and  C20_31 
REMARK       I    between atoms: N1_3  and  C3_4 
REMARK       I    between atoms: C3_4  and  N2_6 
REMARK    3  A    between atoms: N2_6  and  C4_7 
REMARK    4  A    between atoms: C7_13  and  C8_14 
REMARK    5  A    between atoms: C11_17  and  N5_18 
ROOT
HETATM    1  C4  UNL     1      -4.070  48.856 -26.279  1.00  0.00     0.111 A 
HETATM    2  C5  UNL     1      -2.996  49.529 -26.861  1.00  0.00     0.080 A 
HETATM    3  C6  UNL     1      -2.107  50.128 -25.968  1.00  0.00     0.065 A 
HETATM    4  N3  UNL     1      -0.982  50.876 -26.156  1.00  0.00    -0.299 N 
HETATM    5  N4  UNL     1      -0.401  51.295 -25.021  1.00  0.00    -0.299 N 
ATOM      6  H4  UNL     1       0.430  51.878 -24.923  1.00  0.00     0.187 HD
HETATM    7  C7  UNL     1      -1.163  50.773 -24.045  1.00  0.00     0.073 A 
HETATM    8  C18 UNL     1      -2.260  50.043 -24.591  1.00  0.00     0.036 A 
HETATM    9  C19 UNL     1      -3.359  49.343 -24.093  1.00  0.00     0.105 A 
HETATM   10  N7  UNL     1      -4.234  48.754 -24.947  1.00  0.00    -0.351 N 
ATOM     11  H7  UNL     1      -5.025  48.228 -24.575  1.00  0.00     0.166 HD
HETATM   12  H8  UNL     1      -0.555  51.146 -27.035  1.00  0.00     0.187 HD
ENDROOT
BRANCH   1  13
HETATM   13  N2  UNL     1      -4.982  48.244 -27.151  1.00  0.00    -0.295 N 
HETATM   14  C3  UNL     1      -5.031  48.436 -28.510  1.00  0.00     0.322 C 
HETATM   15  N1  UNL     1      -6.114  47.771 -29.052  1.00  0.00    -0.335 N 
HETATM   16  O1  UNL     1      -4.239  49.055 -29.205  1.00  0.00    -0.247 OA
HETATM   17  H5  UNL     1      -6.918  47.670 -28.454  1.00  0.00     0.165 HD
HETATM   18  H6  UNL     1      -5.485  47.445 -26.807  1.00  0.00     0.172 HD
BRANCH  15  19
HETATM   19  C2  UNL     1      -6.383  47.814 -30.481  1.00  0.00     0.115 C 
HETATM   20  C1  UNL     1      -7.849  48.173 -30.761  1.00  0.00     0.037 C 
BRANCH  19  21
HETATM   21  C20 UNL     1      -5.931  46.502 -31.103  1.00  0.00    -0.036 A 
HETATM   22  C21 UNL     1      -4.732  46.482 -31.841  1.00  0.00     0.012 A 
HETATM   23  C22 UNL     1      -4.269  45.301 -32.423  1.00  0.00     0.043 A 
HETATM   24  C23 UNL     1      -4.996  44.129 -32.264  1.00  0.00     0.116 A 
HETATM   25  F1  UNL     1      -4.557  42.997 -32.831  1.00  0.00    -0.206 F 
HETATM   26  C24 UNL     1      -6.172  44.116 -31.526  1.00  0.00     0.043 A 
HETATM   27  C25 UNL     1      -6.637  45.297 -30.941  1.00  0.00     0.012 A 
ENDBRANCH  19  21
ENDBRANCH  15  19
ENDBRANCH   1  13
BRANCH   7  28
HETATM   28  C8  UNL     1      -0.832  50.991 -22.644  1.00  0.00     0.009 A 
HETATM   29  C9  UNL     1      -0.272  52.182 -22.207  1.00  0.00     0.019 A 
HETATM   30  C10 UNL     1       0.008  52.358 -20.849  1.00  0.00     0.049 A 
HETATM   31  C11 UNL     1      -0.253  51.340 -19.932  1.00  0.00     0.102 A 
HETATM   32  N6  UNL     1      -0.796  50.177 -20.358  1.00  0.00    -0.352 N 
HETATM   33  C17 UNL     1      -1.064  50.022 -21.679  1.00  0.00     0.103 A 
ATOM     34  H6  UNL     1      -1.000  49.427 -19.697  1.00  0.00     0.166 HD
BRANCH  31  35
HETATM   35  N5  UNL     1      -0.005  51.505 -18.575  1.00  0.00    -0.367 N 
HETATM   36  C12 UNL     1      -0.016  50.293 -17.752  1.00  0.00     0.124 C 
HETATM   37  C13 UNL     1      -0.182  50.680 -16.285  1.00  0.00     0.020 C 
HETATM   38  C14 UNL     1       0.931  51.606 -15.798  1.00  0.00     0.003 C 
HETATM   39  C15 UNL     1       1.674  52.293 -16.938  1.00  0.00     0.020 C 
HETATM   40  C16 UNL     1       0.755  52.663 -18.100  1.00  0.00     0.124 C 
ENDBRANCH  31  35
ENDBRANCH   7  28
TORSDOF 5
ENDMDL
MODEL 7
REMARK minimizedAffinity -9.49175453
REMARK  5 active torsions:
REMARK  status: ('A' for Active; 'I' for Inactive)
REMARK    1  A    between atoms: C2_2  and  N1_3 
REMARK    2  A    between atoms: C2_2  and  C20_31 
REMARK       I    between atoms: N1_3  and  C3_4 
REMARK       I    between atoms: C3_4  and  N2_6 
REMARK    3  A    between atoms: N2_6  and  C4_7 
REMARK    4  A    between atoms: C7_13  and  C8_14 
REMARK    5  A    between atoms: C11_17  and  N5_18 
ROOT
HETATM    1  C4  UNL     1      -0.505  50.661 -15.626  1.00  0.00     0.111 A 
HETATM    2  C5  UNL     1       0.495  51.632 -15.634  1.00  0.00     0.080 A 
HETATM    3  C6  UNL     1       0.828  52.143 -16.888  1.00  0.00     0.065 A 
HETATM    4  N3  UNL     1       1.752  53.063 -17.289  1.00  0.00    -0.299 N 
HETATM    5  N4  UNL     1       1.780  53.276 -18.614  1.00  0.00    -0.299 N 
ATOM      6  H4  UNL     1       2.398  53.899 -19.134  1.00  0.00     0.187 HD
HETATM    7  C7  UNL     1       0.811  52.482 -19.100  1.00  0.00     0.073 A 
HETATM    8  C18 UNL     1       0.193  51.735 -18.053  1.00  0.00     0.036 A 
HETATM    9  C19 UNL     1      -0.804  50.764 -17.955  1.00  0.00     0.105 A 
HETATM   10  N7  UNL     1      -1.141  50.256 -16.742  1.00  0.00    -0.351 N 
ATOM     11  H7  UNL     1      -1.884  49.560 -16.675  1.00  0.00     0.166 HD
HETATM   12  H8  UNL     1       2.403  53.581 -16.712  1.00  0.00     0.187 HD
ENDROOT
BRANCH   1  13
HETATM   13  N2  UNL     1      -0.862  50.127 -14.379  1.00  0.00    -0.295 N 
HETATM   14  C3  UNL     1      -1.818  50.643 -13.539  1.00  0.00     0.322 C 
HETATM   15  N1  UNL     1      -1.842  49.943 -12.348  1.00  0.00    -0.335 N 
HETATM   16  O1  UNL     1      -2.596  51.557 -13.767  1.00  0.00    -0.247 OA
HETATM   17  H5  UNL     1      -0.968  49.543 -12.050  1.00  0.00     0.165 HD
HETATM   18  H6  UNL     1      -0.570  49.186 -14.179  1.00  0.00     0.172 HD
BRANCH  15  19
HETATM   19  C2  UNL     1      -2.777  50.294 -11.290  1.00  0.00     0.115 C 
HETATM   20  C1  UNL     1      -4.218  49.943 -11.681  1.00  0.00     0.037 C 
BRANCH  19  21
HETATM   21  C20 UNL     1      -2.568  51.755 -10.919  1.00  0.00    -0.036 A 
HETATM   22  C21 UNL     1      -1.266  52.194 -10.613  1.00  0.00     0.012 A 
HETATM   23  C22 UNL     1      -1.020  53.526 -10.276  1.00  0.00     0.043 A 
HETATM   24  C23 UNL     1      -2.072  54.431 -10.252  1.00  0.00     0.116 A 
HETATM   25  F1  UNL     1      -1.839  55.708  -9.919  1.00  0.00    -0.206 F 
HETATM   26  C24 UNL     1      -3.364  54.029 -10.567  1.00  0.00     0.043 A 
HETATM   27  C25 UNL     1      -3.612  52.696 -10.906  1.00  0.00     0.012 A 
ENDBRANCH  19  21
ENDBRANCH  15  19
ENDBRANCH   1  13
BRANCH   7  28
HETATM   28  C8  UNL     1       0.514  52.454 -20.525  1.00  0.00     0.009 A 
HETATM   29  C9  UNL     1       1.008  53.420 -21.388  1.00  0.00     0.019 A 
HETATM   30  C10 UNL     1       0.718  53.342 -22.753  1.00  0.00     0.049 A 
HETATM   31  C11 UNL     1      -0.078  52.310 -23.252  1.00  0.00     0.102 A 
HETATM   32  N6  UNL     1      -0.562  51.369 -22.411  1.00  0.00    -0.352 N 
HETATM   33  C17 UNL     1      -0.270  51.458 -21.089  1.00  0.00     0.103 A 
ATOM     34  H6  UNL     1      -1.137  50.605 -22.764  1.00  0.00     0.166 HD
BRANCH  31  35
HETATM   35  N5  UNL     1      -0.356  52.201 -24.610  1.00  0.00    -0.367 N 
HETATM   36  C12 UNL     1       0.426  53.050 -25.511  1.00  0.00     0.124 C 
HETATM   37  C13 UNL     1      -0.287  53.150 -26.857  1.00  0.00     0.020 C 
HETATM   38  C14 UNL     1      -0.496  51.784 -27.509  1.00  0.00     0.003 C 
HETATM   39  C15 UNL     1      -0.378  50.629 -26.519  1.00  0.00     0.020 C 
HETATM   40  C16 UNL     1      -0.948  50.973 -25.145  1.00  0.00     0.124 C 
ENDBRANCH  31  35
ENDBRANCH   7  28
TORSDOF 5
ENDMDL
MODEL 8
REMARK minimizedAffinity -9.43314171
REMARK  5 active torsions:
REMARK  status: ('A' for Active; 'I' for Inactive)
REMARK    1  A    between atoms: C2_2  and  N1_3 
REMARK    2  A    between atoms: C2_2  and  C20_31 
REMARK       I    between atoms: N1_3  and  C3_4 
REMARK       I    between atoms: C3_4  and  N2_6 
REMARK    3  A    between atoms: N2_6  and  C4_7 
REMARK    4  A    between atoms: C7_13  and  C8_14 
REMARK    5  A    between atoms: C11_17  and  N5_18 
ROOT
HETATM    1  C4  UNL     1      -3.467  48.570 -23.098  1.00  0.00     0.111 A 
HETATM    2  C5  UNL     1      -4.792  48.294 -22.764  1.00  0.00     0.080 A 
HETATM    3  C6  UNL     1      -5.653  48.086 -23.841  1.00  0.00     0.065 A 
HETATM    4  N3  UNL     1      -6.990  47.825 -23.910  1.00  0.00    -0.299 N 
HETATM    5  N4  UNL     1      -7.466  47.705 -25.159  1.00  0.00    -0.299 N 
ATOM      6  H4  UNL     1      -8.429  47.532 -25.447  1.00  0.00     0.187 HD
HETATM    7  C7  UNL     1      -6.387  47.866 -25.943  1.00  0.00     0.073 A 
HETATM    8  C18 UNL     1      -5.223  48.126 -25.161  1.00  0.00     0.036 A 
HETATM    9  C19 UNL     1      -3.878  48.401 -25.406  1.00  0.00     0.105 A 
HETATM   10  N7  UNL     1      -3.025  48.606 -24.370  1.00  0.00    -0.351 N 
ATOM     11  H7  UNL     1      -2.039  48.788 -24.557  1.00  0.00     0.166 HD
HETATM   12  H8  UNL     1      -7.643  47.721 -23.142  1.00  0.00     0.187 HD
ENDROOT
BRANCH   1  13
HETATM   13  N2  UNL     1      -2.576  48.785 -22.037  1.00  0.00    -0.295 N 
HETATM   14  C3  UNL     1      -2.525  49.917 -21.261  1.00  0.00     0.322 C 
HETATM   15  N1  UNL     1      -1.463  49.849 -20.378  1.00  0.00    -0.335 N 
HETATM   16  O1  UNL     1      -3.299  50.862 -21.268  1.00  0.00    -0.247 OA
HETATM   17  H5  UNL     1      -0.661  49.325 -20.687  1.00  0.00     0.165 HD
HETATM   18  H6  UNL     1      -2.096  47.983 -21.667  1.00  0.00     0.172 HD
BRANCH  15  19
HETATM   19  C2  UNL     1      -1.197  50.929 -19.441  1.00  0.00     0.115 C 
HETATM   20  C1  UNL     1      -2.499  51.488 -18.851  1.00  0.00     0.037 C 
BRANCH  19  21
HETATM   21  C20 UNL     1      -0.325  51.969 -20.128  1.00  0.00    -0.036 A 
HETATM   22  C21 UNL     1       0.099  51.728 -21.449  1.00  0.00     0.012 A 
HETATM   23  C22 UNL     1       0.892  52.655 -22.126  1.00  0.00     0.043 A 
HETATM   24  C23 UNL     1       1.259  53.835 -21.493  1.00  0.00     0.116 A 
HETATM   25  F1  UNL     1       2.028  54.721 -22.140  1.00  0.00    -0.206 F 
HETATM   26  C24 UNL     1       0.839  54.106 -20.197  1.00  0.00     0.043 A 
HETATM   27  C25 UNL     1       0.044  53.180 -19.517  1.00  0.00     0.012 A 
ENDBRANCH  19  21
ENDBRANCH  15  19
ENDBRANCH   1  13
BRANCH   7  28
HETATM   28  C8  UNL     1      -6.498  47.778 -27.393  1.00  0.00     0.009 A 
HETATM   29  C9  UNL     1      -5.396  47.955 -28.216  1.00  0.00     0.019 A 
HETATM   30  C10 UNL     1      -5.543  47.839 -29.602  1.00  0.00     0.049 A 
HETATM   31  C11 UNL     1      -6.790  47.566 -30.164  1.00  0.00     0.102 A 
HETATM   32  N6  UNL     1      -7.865  47.397 -29.361  1.00  0.00    -0.352 N 
HETATM   33  C17 UNL     1      -7.706  47.510 -28.019  1.00  0.00     0.103 A 
ATOM     34  H6  UNL     1      -8.781  47.188 -29.758  1.00  0.00     0.166 HD
BRANCH  31  35
HETATM   35  N5  UNL     1      -6.951  47.423 -31.537  1.00  0.00    -0.367 N 
HETATM   36  C12 UNL     1      -7.992  48.238 -32.165  1.00  0.00     0.124 C 
HETATM   37  C13 UNL     1      -8.341  47.651 -33.530  1.00  0.00     0.020 C 
HETATM   38  C14 UNL     1      -7.130  47.580 -34.459  1.00  0.00     0.003 C 
HETATM   39  C15 UNL     1      -5.803  47.668 -33.714  1.00  0.00     0.020 C 
HETATM   40  C16 UNL     1      -5.838  46.953 -32.365  1.00  0.00     0.124 C 
ENDBRANCH  31  35
ENDBRANCH   7  28
TORSDOF 5
ENDMDL
MODEL 9
REMARK minimizedAffinity -9.39851665
REMARK  5 active torsions:
REMARK  status: ('A' for Active; 'I' for Inactive)
REMARK    1  A    between atoms: C2_2  and  N1_3 
REMARK    2  A    between atoms: C2_2  and  C20_31 
REMARK       I    between atoms: N1_3  and  C3_4 
REMARK       I    between atoms: C3_4  and  N2_6 
REMARK    3  A    between atoms: N2_6  and  C4_7 
REMARK    4  A    between atoms: C7_13  and  C8_14 
REMARK    5  A    between atoms: C11_17  and  N5_18 
ROOT
HETATM    1  C4  UNL     1      -0.396  52.406 -22.158  1.00  0.00     0.111 A 
HETATM    2  C5  UNL     1       0.431  52.691 -23.244  1.00  0.00     0.080 A 
HETATM    3  C6  UNL     1       0.032  52.143 -24.463  1.00  0.00     0.065 A 
HETATM    4  N3  UNL     1       0.585  52.179 -25.710  1.00  0.00    -0.299 N 
HETATM    5  N4  UNL     1      -0.104  51.498 -26.639  1.00  0.00    -0.299 N 
ATOM      6  H4  UNL     1       0.130  51.373 -27.624  1.00  0.00     0.187 HD
HETATM    7  C7  UNL     1      -1.171  51.019 -25.978  1.00  0.00     0.073 A 
HETATM    8  C18 UNL     1      -1.122  51.384 -24.600  1.00  0.00     0.036 A 
HETATM    9  C19 UNL     1      -1.897  51.154 -23.463  1.00  0.00     0.105 A 
HETATM   10  N7  UNL     1      -1.524  51.680 -22.268  1.00  0.00    -0.351 N 
ATOM     11  H7  UNL     1      -2.106  51.523 -21.445  1.00  0.00     0.166 HD
HETATM   12  H8  UNL     1       1.437  52.645 -25.998  1.00  0.00     0.187 HD
ENDROOT
BRANCH   1  13
HETATM   13  N2  UNL     1      -0.021  52.942 -20.918  1.00  0.00    -0.295 N 
HETATM   14  C3  UNL     1       0.243  52.212 -19.785  1.00  0.00     0.322 C 
HETATM   15  N1  UNL     1       0.475  53.052 -18.713  1.00  0.00    -0.335 N 
HETATM   16  O1  UNL     1       0.321  50.997 -19.682  1.00  0.00    -0.247 OA
HETATM   17  H5  UNL     1      -0.005  53.937 -18.730  1.00  0.00     0.165 HD
HETATM   18  H6  UNL     1       0.296  53.896 -20.903  1.00  0.00     0.172 HD
BRANCH  15  19
HETATM   19  C2  UNL     1       0.784  52.519 -17.395  1.00  0.00     0.115 C 
HETATM   20  C1  UNL     1       2.290  52.274 -17.233  1.00  0.00     0.037 C 
BRANCH  19  21
HETATM   21  C20 UNL     1      -0.079  51.291 -17.150  1.00  0.00    -0.036 A 
HETATM   22  C21 UNL     1       0.547  50.095 -16.747  1.00  0.00     0.012 A 
HETATM   23  C22 UNL     1      -0.202  48.944 -16.500  1.00  0.00     0.043 A 
HETATM   24  C23 UNL     1      -1.581  48.980 -16.644  1.00  0.00     0.116 A 
HETATM   25  F1  UNL     1      -2.300  47.872 -16.416  1.00  0.00    -0.206 F 
HETATM   26  C24 UNL     1      -2.226  50.151 -17.022  1.00  0.00     0.043 A 
HETATM   27  C25 UNL     1      -1.479  51.306 -17.269  1.00  0.00     0.012 A 
ENDBRANCH  19  21
ENDBRANCH  15  19
ENDBRANCH   1  13
BRANCH   7  28
HETATM   28  C8  UNL     1      -2.185  50.232 -26.667  1.00  0.00     0.009 A 
HETATM   29  C9  UNL     1      -2.500  48.944 -26.264  1.00  0.00     0.019 A 
HETATM   30  C10 UNL     1      -3.496  48.232 -26.939  1.00  0.00     0.049 A 
HETATM   31  C11 UNL     1      -4.162  48.800 -28.026  1.00  0.00     0.102 A 
HETATM   32  N6  UNL     1      -3.852  50.055 -28.422  1.00  0.00    -0.352 N 
HETATM   33  C17 UNL     1      -2.885  50.733 -27.755  1.00  0.00     0.103 A 
ATOM     34  H6  UNL     1      -4.338  50.485 -29.208  1.00  0.00     0.166 HD
BRANCH  31  35
HETATM   35  N5  UNL     1      -5.172  48.118 -28.694  1.00  0.00    -0.367 N 
HETATM   36  C12 UNL     1      -6.266  47.596 -27.874  1.00  0.00     0.124 C 
HETATM   37  C13 UNL     1      -7.018  46.523 -28.657  1.00  0.00     0.020 C 
HETATM   38  C14 UNL     1      -7.585  47.052 -29.973  1.00  0.00     0.003 C 
HETATM   39  C15 UNL     1      -6.919  48.345 -30.430  1.00  0.00     0.020 C 
HETATM   40  C16 UNL     1      -5.426  48.381 -30.112  1.00  0.00     0.124 C 
ENDBRANCH  31  35
ENDBRANCH   7  28
TORSDOF 5
ENDMDL
