MODEL 1
REMARK minimizedAffinity -8.9171524
REMARK CNNscore 0.389171541
REMARK CNNaffinity 7.17778635
REMARK  8 active torsions:
REMARK  status: ('A' for Active; 'I' for Inactive)
REMARK    1  A    between atoms: S1_2  and  C2_3 
REMARK    2  A    between atoms: C2_3  and  C3_4 
REMARK       I    between atoms: C3_4  and  N1_6 
REMARK    3  A    between atoms: N1_6  and  C4_7 
REMARK    4  A    between atoms: C8_14  and  C9_15 
REMARK    5  A    between atoms: N4_26  and  C19_27 
REMARK    6  A    between atoms: C19_27  and  C20_28 
REMARK       I    between atoms: C20_28  and  N5_30 
REMARK    7  A    between atoms: N6_33  and  C23_34 
REMARK    8  A    between atoms: C26_37  and  C27_38 
ROOT
HETATM    1  C2  UNL     1      -3.086  49.480 -19.334  1.00  0.00     0.117 C 
HETATM    2  C17 UNL     1      -3.103  48.737 -20.685  1.00  0.00     0.062 C 
HETATM    3  C18 UNL     1      -4.565  48.722 -21.105  1.00  0.00     0.275 C 
HETATM    4  N4  UNL     1      -5.341  48.698 -19.864  1.00  0.00     0.099 N 
HETATM    5  C35 UNL     1      -4.583  49.591 -18.960  1.00  0.00     0.303 C 
ENDROOT
BRANCH   1   6
HETATM    6  S1  UNL     1      -2.129  48.458 -18.090  1.00  0.00    -0.152 SA
HETATM    7  C1  UNL     1      -3.078  48.822 -16.584  1.00  0.00     0.091 C 
ENDBRANCH   1   6
BRANCH   1   8
HETATM    8  C3  UNL     1      -2.399  50.867 -19.443  1.00  0.00     0.242 C 
HETATM    9  O1  UNL     1      -2.778  51.828 -18.779  1.00  0.00    -0.271 OA
HETATM   10  N1  UNL     1      -1.312  50.872 -20.308  1.00  0.00    -0.326 N 
HETATM   11  H4  UNL     1      -1.052  49.971 -20.695  1.00  0.00     0.169 HD
BRANCH  10  12
HETATM   12  C4  UNL     1      -0.499  51.960 -20.681  1.00  0.00     0.035 A 
HETATM   13  C5  UNL     1      -0.004  52.908 -19.785  1.00  0.00     0.032 A 
HETATM   14  C6  UNL     1       0.792  53.978 -20.215  1.00  0.00     0.034 A 
HETATM   15  C7  UNL     1       1.049  54.077 -21.585  1.00  0.00     0.060 A 
HETATM   16  N2  UNL     1       1.766  54.986 -22.310  1.00  0.00    -0.299 N 
HETATM   17  C15 UNL     1       0.561  53.171 -22.517  1.00  0.00     0.023 A 
HETATM   18  N3  UNL     1       1.780  54.753 -23.630  1.00  0.00    -0.299 N 
HETATM   19  H7  UNL     1       2.277  55.788 -21.961  1.00  0.00     0.187 HD
HETATM   20  C8  UNL     1       1.023  53.654 -23.787  1.00  0.00     0.070 A 
ATOM     21  H3  UNL     1       2.259  55.290 -24.353  1.00  0.00     0.187 HD
HETATM   22  C16 UNL     1      -0.205  52.081 -22.052  1.00  0.00     0.045 A 
BRANCH  20  23
HETATM   23  C9  UNL     1       0.768  53.118 -25.128  1.00  0.00    -0.007 A 
HETATM   24  C10 UNL     1       1.255  51.858 -25.512  1.00  0.00     0.017 A 
HETATM   25  C11 UNL     1       0.999  51.358 -26.792  1.00  0.00     0.043 A 
HETATM   26  C12 UNL     1       0.241  52.107 -27.682  1.00  0.00     0.116 A 
HETATM   27  F1  UNL     1      -0.007  51.628 -28.908  1.00  0.00    -0.206 F 
HETATM   28  C13 UNL     1      -0.268  53.347 -27.318  1.00  0.00     0.043 A 
HETATM   29  C14 UNL     1      -0.006  53.851 -26.041  1.00  0.00     0.017 A 
ENDBRANCH  20  23
ENDBRANCH  10  12
ENDBRANCH   1   8
BRANCH   4  30
HETATM   30  C19 UNL     1      -5.504  47.342 -19.295  1.00  0.00     0.374 C 
BRANCH  30  31
HETATM   31  C20 UNL     1      -6.322  46.391 -20.198  1.00  0.00     0.248 C 
HETATM   32  O2  UNL     1      -7.428  46.681 -20.657  1.00  0.00    -0.271 OA
HETATM   33  N5  UNL     1      -5.711  45.171 -20.517  1.00  0.00    -0.348 N 
HETATM   34  C21 UNL     1      -6.472  44.241 -21.360  1.00  0.00     0.145 C 
HETATM   35  C34 UNL     1      -4.811  44.473 -19.585  1.00  0.00     0.145 C 
HETATM   36  C22 UNL     1      -7.308  43.282 -20.485  1.00  0.00     0.143 C 
HETATM   37  N6  UNL     1      -6.428  42.568 -19.513  1.00  0.00    -0.378 N 
HETATM   38  C33 UNL     1      -5.618  43.499 -18.692  1.00  0.00     0.143 C 
BRANCH  37  39
HETATM   39  C23 UNL     1      -5.911  41.334 -19.913  1.00  0.00     0.030 A 
HETATM   40  C24 UNL     1      -6.345  40.642 -21.050  1.00  0.00     0.030 A 
HETATM   41  C25 UNL     1      -5.792  39.404 -21.428  1.00  0.00     0.017 A 
HETATM   42  C26 UNL     1      -4.762  38.799 -20.692  1.00  0.00     0.008 A 
HETATM   43  C31 UNL     1      -4.303  39.503 -19.570  1.00  0.00     0.017 A 
HETATM   44  C32 UNL     1      -4.856  40.741 -19.201  1.00  0.00     0.030 A 
BRANCH  42  45
HETATM   45  C27 UNL     1      -4.186  37.495 -21.080  1.00  0.00     0.115 A 
HETATM   46  N7  UNL     1      -4.826  36.774 -22.024  1.00  0.00    -0.352 N 
HETATM   47  C28 UNL     1      -4.269  35.597 -22.365  1.00  0.00     0.091 A 
ATOM     48  H7  UNL     1      -5.689  37.104 -22.458  1.00  0.00     0.166 HD
HETATM   49  C29 UNL     1      -3.108  35.116 -21.808  1.00  0.00     0.034 A 
HETATM   50  C30 UNL     1      -2.533  35.920 -20.856  1.00  0.00     0.091 A 
HETATM   51  N8  UNL     1      -3.044  37.105 -20.474  1.00  0.00    -0.352 N 
ATOM     52  H8  UNL     1      -2.592  37.678 -19.762  1.00  0.00     0.166 HD
ENDBRANCH  42  45
ENDBRANCH  37  39
ENDBRANCH  30  31
ENDBRANCH   4  30
TORSDOF 8
ENDMDL
MODEL 2
REMARK minimizedAffinity -9.87196541
REMARK CNNscore 0.349074632
REMARK CNNaffinity 7.04059458
REMARK  8 active torsions:
REMARK  status: ('A' for Active; 'I' for Inactive)
REMARK    1  A    between atoms: S1_2  and  C2_3 
REMARK    2  A    between atoms: C2_3  and  C3_4 
REMARK       I    between atoms: C3_4  and  N1_6 
REMARK    3  A    between atoms: N1_6  and  C4_7 
REMARK    4  A    between atoms: C8_14  and  C9_15 
REMARK    5  A    between atoms: N4_26  and  C19_27 
REMARK    6  A    between atoms: C19_27  and  C20_28 
REMARK       I    between atoms: C20_28  and  N5_30 
REMARK    7  A    between atoms: N6_33  and  C23_34 
REMARK    8  A    between atoms: C26_37  and  C27_38 
ROOT
HETATM    1  C2  UNL     1      -3.754  49.661 -19.558  1.00  0.00     0.117 C 
HETATM    2  C17 UNL     1      -3.355  48.710 -20.705  1.00  0.00     0.062 C 
HETATM    3  C18 UNL     1      -4.525  48.756 -21.677  1.00  0.00     0.275 C 
HETATM    4  N4  UNL     1      -5.716  49.005 -20.862  1.00  0.00     0.099 N 
HETATM    5  C35 UNL     1      -5.246  49.964 -19.838  1.00  0.00     0.303 C 
ENDROOT
BRANCH   1   6
HETATM    6  S1  UNL     1      -3.515  48.776 -17.925  1.00  0.00    -0.152 SA
HETATM    7  C1  UNL     1      -3.028  47.131 -18.525  1.00  0.00     0.091 C 
ENDBRANCH   1   6
BRANCH   1   8
HETATM    8  C3  UNL     1      -2.883  50.944 -19.539  1.00  0.00     0.242 C 
HETATM    9  O1  UNL     1      -3.101  51.860 -18.750  1.00  0.00    -0.271 OA
HETATM   10  N1  UNL     1      -1.834  50.906 -20.449  1.00  0.00    -0.326 N 
HETATM   11  H4  UNL     1      -1.716  50.032 -20.950  1.00  0.00     0.169 HD
BRANCH  10  12
HETATM   12  C4  UNL     1      -0.888  51.911 -20.732  1.00  0.00     0.035 A 
HETATM   13  C5  UNL     1      -0.341  52.761 -19.771  1.00  0.00     0.032 A 
HETATM   14  C6  UNL     1       0.589  53.752 -20.112  1.00  0.00     0.034 A 
HETATM   15  C7  UNL     1       0.928  53.877 -21.462  1.00  0.00     0.060 A 
HETATM   16  N2  UNL     1       1.778  54.728 -22.109  1.00  0.00    -0.299 N 
HETATM   17  C15 UNL     1       0.395  53.069 -22.457  1.00  0.00     0.023 A 
HETATM   18  N3  UNL     1       1.837  54.549 -23.436  1.00  0.00    -0.299 N 
HETATM   19  H7  UNL     1       2.353  55.454 -21.699  1.00  0.00     0.187 HD
HETATM   20  C8  UNL     1       0.974  53.548 -23.680  1.00  0.00     0.070 A 
ATOM     21  H3  UNL     1       2.409  55.058 -24.110  1.00  0.00     0.187 HD
HETATM   22  C16 UNL     1      -0.510  52.053 -22.080  1.00  0.00     0.045 A 
BRANCH  20  23
HETATM   23  C9  UNL     1       0.733  53.098 -25.054  1.00  0.00    -0.007 A 
HETATM   24  C10 UNL     1      -0.006  53.880 -25.957  1.00  0.00     0.017 A 
HETATM   25  C11 UNL     1      -0.222  53.440 -27.266  1.00  0.00     0.043 A 
HETATM   26  C12 UNL     1       0.314  52.227 -27.679  1.00  0.00     0.116 A 
HETATM   27  F1  UNL     1       0.109  51.806 -28.934  1.00  0.00    -0.206 F 
HETATM   28  C13 UNL     1       1.064  51.446 -26.810  1.00  0.00     0.043 A 
HETATM   29  C14 UNL     1       1.275  51.883 -25.499  1.00  0.00     0.017 A 
ENDBRANCH  20  23
ENDBRANCH  10  12
ENDBRANCH   1   8
BRANCH   4  30
HETATM   30  C19 UNL     1      -6.284  47.781 -20.255  1.00  0.00     0.374 C 
BRANCH  30  31
HETATM   31  C20 UNL     1      -7.571  48.041 -19.439  1.00  0.00     0.248 C 
HETATM   32  O2  UNL     1      -7.569  48.259 -18.226  1.00  0.00    -0.271 OA
HETATM   33  N5  UNL     1      -8.766  48.065 -20.171  1.00  0.00    -0.348 N 
HETATM   34  C21 UNL     1     -10.007  48.294 -19.419  1.00  0.00     0.145 C 
HETATM   35  C34 UNL     1      -8.980  47.226 -21.360  1.00  0.00     0.145 C 
HETATM   36  C22 UNL     1     -10.623  46.950 -18.975  1.00  0.00     0.143 C 
HETATM   37  N6  UNL     1     -10.838  46.064 -20.157  1.00  0.00    -0.378 N 
HETATM   38  C33 UNL     1      -9.601  45.868 -20.951  1.00  0.00     0.143 C 
BRANCH  37  39
HETATM   39  C23 UNL     1     -12.084  46.131 -20.783  1.00  0.00     0.030 A 
HETATM   40  C24 UNL     1     -12.725  45.027 -21.358  1.00  0.00     0.030 A 
HETATM   41  C25 UNL     1     -13.987  45.131 -21.971  1.00  0.00     0.017 A 
HETATM   42  C26 UNL     1     -14.683  46.348 -22.028  1.00  0.00     0.008 A 
HETATM   43  C31 UNL     1     -14.059  47.450 -21.425  1.00  0.00     0.017 A 
HETATM   44  C32 UNL     1     -12.801  47.338 -20.812  1.00  0.00     0.030 A 
BRANCH  42  45
HETATM   45  C27 UNL     1     -16.004  46.464 -22.679  1.00  0.00     0.115 A 
HETATM   46  N7  UNL     1     -16.045  46.895 -23.958  1.00  0.00    -0.352 N 
HETATM   47  C28 UNL     1     -17.262  46.977 -24.528  1.00  0.00     0.091 A 
ATOM     48  H7  UNL     1     -15.197  47.146 -24.466  1.00  0.00     0.166 HD
HETATM   49  C29 UNL     1     -18.428  46.648 -23.880  1.00  0.00     0.034 A 
HETATM   50  C30 UNL     1     -18.284  46.222 -22.583  1.00  0.00     0.091 A 
HETATM   51  N8  UNL     1     -17.094  46.121 -21.961  1.00  0.00    -0.352 N 
ATOM     52  H8  UNL     1     -17.021  45.802 -20.996  1.00  0.00     0.166 HD
ENDBRANCH  42  45
ENDBRANCH  37  39
ENDBRANCH  30  31
ENDBRANCH   4  30
TORSDOF 8
ENDMDL
MODEL 3
REMARK minimizedAffinity -9.3009901
REMARK CNNscore 0.328199029
REMARK CNNaffinity 7.1781764
REMARK  8 active torsions:
REMARK  status: ('A' for Active; 'I' for Inactive)
REMARK    1  A    between atoms: S1_2  and  C2_3 
REMARK    2  A    between atoms: C2_3  and  C3_4 
REMARK       I    between atoms: C3_4  and  N1_6 
REMARK    3  A    between atoms: N1_6  and  C4_7 
REMARK    4  A    between atoms: C8_14  and  C9_15 
REMARK    5  A    between atoms: N4_26  and  C19_27 
REMARK    6  A    between atoms: C19_27  and  C20_28 
REMARK       I    between atoms: C20_28  and  N5_30 
REMARK    7  A    between atoms: N6_33  and  C23_34 
REMARK    8  A    between atoms: C26_37  and  C27_38 
ROOT
HETATM    1  C2  UNL     1      -4.422  49.492 -23.253  1.00  0.00     0.117 C 
HETATM    2  C17 UNL     1      -3.529  48.457 -23.966  1.00  0.00     0.062 C 
HETATM    3  C18 UNL     1      -3.969  48.496 -25.422  1.00  0.00     0.275 C 
HETATM    4  N4  UNL     1      -5.390  48.847 -25.403  1.00  0.00     0.099 N 
HETATM    5  C35 UNL     1      -5.492  49.844 -24.315  1.00  0.00     0.303 C 
ENDROOT
BRANCH   1   6
HETATM    6  S1  UNL     1      -5.179  48.699 -21.736  1.00  0.00    -0.152 SA
HETATM    7  C1  UNL     1      -4.016  47.326 -21.482  1.00  0.00     0.091 C 
ENDBRANCH   1   6
BRANCH   1   8
HETATM    8  C3  UNL     1      -3.615  50.734 -22.791  1.00  0.00     0.242 C 
HETATM    9  O1  UNL     1      -4.172  51.773 -22.447  1.00  0.00    -0.271 OA
HETATM   10  N1  UNL     1      -2.244  50.515 -22.762  1.00  0.00    -0.326 N 
HETATM   11  H4  UNL     1      -1.944  49.567 -22.965  1.00  0.00     0.169 HD
BRANCH  10  12
HETATM   12  C4  UNL     1      -1.221  51.431 -22.446  1.00  0.00     0.035 A 
HETATM   13  C5  UNL     1      -0.545  52.203 -23.391  1.00  0.00     0.032 A 
HETATM   14  C6  UNL     1       0.473  53.091 -23.021  1.00  0.00     0.034 A 
HETATM   15  C7  UNL     1       0.808  53.153 -21.665  1.00  0.00     0.060 A 
HETATM   16  N2  UNL     1       1.740  53.894 -20.994  1.00  0.00    -0.299 N 
HETATM   17  C15 UNL     1       0.179  52.390 -20.690  1.00  0.00     0.023 A 
HETATM   18  N3  UNL     1       1.775  53.673 -19.672  1.00  0.00    -0.299 N 
HETATM   19  H7  UNL     1       2.381  54.575 -21.381  1.00  0.00     0.187 HD
HETATM   20  C8  UNL     1       0.840  52.731 -19.463  1.00  0.00     0.070 A 
ATOM     21  H3  UNL     1       2.377  54.120 -18.980  1.00  0.00     0.187 HD
HETATM   22  C16 UNL     1      -0.870  51.533 -21.087  1.00  0.00     0.045 A 
BRANCH  20  23
HETATM   23  C9  UNL     1       0.620  52.194 -18.116  1.00  0.00    -0.007 A 
HETATM   24  C10 UNL     1       1.409  52.607 -17.031  1.00  0.00     0.017 A 
HETATM   25  C11 UNL     1       1.184  52.091 -15.752  1.00  0.00     0.043 A 
HETATM   26  C12 UNL     1       0.159  51.175 -15.553  1.00  0.00     0.116 A 
HETATM   27  F1  UNL     1      -0.059  50.681 -14.327  1.00  0.00    -0.206 F 
HETATM   28  C13 UNL     1      -0.648  50.766 -16.607  1.00  0.00     0.043 A 
HETATM   29  C14 UNL     1      -0.418  51.278 -17.887  1.00  0.00     0.017 A 
ENDBRANCH  20  23
ENDBRANCH  10  12
ENDBRANCH   1   8
BRANCH   4  30
HETATM   30  C19 UNL     1      -6.283  47.688 -25.177  1.00  0.00     0.374 C 
BRANCH  30  31
HETATM   31  C20 UNL     1      -7.747  47.950 -25.603  1.00  0.00     0.248 C 
HETATM   32  O2  UNL     1      -8.634  48.268 -24.809  1.00  0.00    -0.271 OA
HETATM   33  N5  UNL     1      -8.013  47.850 -26.975  1.00  0.00    -0.348 N 
HETATM   34  C21 UNL     1      -9.398  48.077 -27.406  1.00  0.00     0.145 C 
HETATM   35  C34 UNL     1      -7.302  46.904 -27.850  1.00  0.00     0.145 C 
HETATM   36  C22 UNL     1     -10.178  46.745 -27.435  1.00  0.00     0.143 C 
HETATM   37  N6  UNL     1      -9.475  45.753 -28.302  1.00  0.00    -0.378 N 
HETATM   38  C33 UNL     1      -8.060  45.555 -27.904  1.00  0.00     0.143 C 
BRANCH  37  39
HETATM   39  C23 UNL     1      -9.852  45.703 -29.645  1.00  0.00     0.030 A 
HETATM   40  C24 UNL     1     -10.024  44.511 -30.360  1.00  0.00     0.030 A 
HETATM   41  C25 UNL     1     -10.416  44.500 -31.711  1.00  0.00     0.017 A 
HETATM   42  C26 UNL     1     -10.672  45.686 -32.417  1.00  0.00     0.008 A 
HETATM   43  C31 UNL     1     -10.531  46.880 -31.696  1.00  0.00     0.017 A 
HETATM   44  C32 UNL     1     -10.143  46.884 -30.346  1.00  0.00     0.030 A 
BRANCH  42  45
HETATM   45  C27 UNL     1     -11.074  45.679 -33.838  1.00  0.00     0.115 A 
HETATM   46  N7  UNL     1     -12.288  46.175 -34.156  1.00  0.00    -0.352 N 
HETATM   47  C28 UNL     1     -12.620  46.168 -35.460  1.00  0.00     0.091 A 
ATOM     48  H7  UNL     1     -12.923  46.537 -33.443  1.00  0.00     0.166 HD
HETATM   49  C29 UNL     1     -11.796  45.692 -36.451  1.00  0.00     0.034 A 
HETATM   50  C30 UNL     1     -10.583  45.207 -36.029  1.00  0.00     0.091 A 
HETATM   51  N8  UNL     1     -10.198  45.187 -34.739  1.00  0.00    -0.352 N 
ATOM     52  H8  UNL     1      -9.290  44.819 -34.458  1.00  0.00     0.166 HD
ENDBRANCH  42  45
ENDBRANCH  37  39
ENDBRANCH  30  31
ENDBRANCH   4  30
TORSDOF 8
ENDMDL
MODEL 4
REMARK minimizedAffinity -9.59597206
REMARK CNNscore 0.308398932
REMARK CNNaffinity 7.01080561
REMARK  8 active torsions:
REMARK  status: ('A' for Active; 'I' for Inactive)
REMARK    1  A    between atoms: S1_2  and  C2_3 
REMARK    2  A    between atoms: C2_3  and  C3_4 
REMARK       I    between atoms: C3_4  and  N1_6 
REMARK    3  A    between atoms: N1_6  and  C4_7 
REMARK    4  A    between atoms: C8_14  and  C9_15 
REMARK    5  A    between atoms: N4_26  and  C19_27 
REMARK    6  A    between atoms: C19_27  and  C20_28 
REMARK       I    between atoms: C20_28  and  N5_30 
REMARK    7  A    between atoms: N6_33  and  C23_34 
REMARK    8  A    between atoms: C26_37  and  C27_38 
ROOT
HETATM    1  C2  UNL     1      -2.610  49.795 -18.414  1.00  0.00     0.117 C 
HETATM    2  C17 UNL     1      -1.561  48.674 -18.568  1.00  0.00     0.062 C 
HETATM    3  C18 UNL     1      -2.117  47.765 -19.654  1.00  0.00     0.275 C 
HETATM    4  N4  UNL     1      -3.575  47.857 -19.549  1.00  0.00     0.099 N 
HETATM    5  C35 UNL     1      -3.815  49.283 -19.238  1.00  0.00     0.303 C 
ENDROOT
BRANCH   1   6
HETATM    6  S1  UNL     1      -3.034  49.986 -16.600  1.00  0.00    -0.152 SA
HETATM    7  C1  UNL     1      -2.002  48.667 -15.894  1.00  0.00     0.091 C 
ENDBRANCH   1   6
BRANCH   1   8
HETATM    8  C3  UNL     1      -2.078  51.160 -18.927  1.00  0.00     0.242 C 
HETATM    9  O1  UNL     1      -2.690  52.206 -18.727  1.00  0.00    -0.271 OA
HETATM   10  N1  UNL     1      -0.848  51.063 -19.564  1.00  0.00    -0.326 N 
HETATM   11  H4  UNL     1      -0.414  50.146 -19.549  1.00  0.00     0.169 HD
BRANCH  10  12
HETATM   12  C4  UNL     1      -0.107  52.085 -20.190  1.00  0.00     0.035 A 
HETATM   13  C5  UNL     1       0.586  53.081 -19.502  1.00  0.00     0.032 A 
HETATM   14  C6  UNL     1       1.298  54.080 -20.178  1.00  0.00     0.034 A 
HETATM   15  C7  UNL     1       1.263  54.059 -21.575  1.00  0.00     0.060 A 
HETATM   16  N2  UNL     1       1.833  54.878 -22.509  1.00  0.00    -0.299 N 
HETATM   17  C15 UNL     1       0.571  53.102 -22.304  1.00  0.00     0.023 A 
HETATM   18  N3  UNL     1       1.564  54.540 -23.778  1.00  0.00    -0.299 N 
HETATM   19  H7  UNL     1       2.423  55.684 -22.344  1.00  0.00     0.187 HD
HETATM   20  C8  UNL     1       0.767  53.464 -23.679  1.00  0.00     0.070 A 
ATOM     21  H3  UNL     1       1.892  54.998 -24.628  1.00  0.00     0.187 HD
HETATM   22  C16 UNL     1      -0.106  52.084 -21.597  1.00  0.00     0.045 A 
BRANCH  20  23
HETATM   23  C9  UNL     1       0.224  52.833 -24.886  1.00  0.00    -0.007 A 
HETATM   24  C10 UNL     1       1.066  52.226 -25.832  1.00  0.00     0.017 A 
HETATM   25  C11 UNL     1       0.533  51.624 -26.975  1.00  0.00     0.043 A 
HETATM   26  C12 UNL     1      -0.842  51.611 -27.165  1.00  0.00     0.116 A 
HETATM   27  F1  UNL     1      -1.354  51.032 -28.259  1.00  0.00    -0.206 F 
HETATM   28  C13 UNL     1      -1.697  52.188 -26.234  1.00  0.00     0.043 A 
HETATM   29  C14 UNL     1      -1.163  52.796 -25.095  1.00  0.00     0.017 A 
ENDBRANCH  20  23
ENDBRANCH  10  12
ENDBRANCH   1   8
BRANCH   4  30
HETATM   30  C19 UNL     1      -4.152  46.962 -18.522  1.00  0.00     0.374 C 
BRANCH  30  31
HETATM   31  C20 UNL     1      -4.914  45.755 -19.117  1.00  0.00     0.248 C 
HETATM   32  O2  UNL     1      -4.512  44.593 -19.030  1.00  0.00    -0.271 OA
HETATM   33  N5  UNL     1      -6.137  46.048 -19.734  1.00  0.00    -0.348 N 
HETATM   34  C21 UNL     1      -6.875  44.923 -20.323  1.00  0.00     0.145 C 
HETATM   35  C34 UNL     1      -6.378  47.311 -20.450  1.00  0.00     0.145 C 
HETATM   36  C22 UNL     1      -6.482  44.738 -21.805  1.00  0.00     0.143 C 
HETATM   37  N6  UNL     1      -6.697  46.008 -22.560  1.00  0.00    -0.378 N 
HETATM   38  C33 UNL     1      -5.996  47.160 -21.942  1.00  0.00     0.143 C 
BRANCH  37  39
HETATM   39  C23 UNL     1      -7.937  46.176 -23.180  1.00  0.00     0.030 A 
HETATM   40  C24 UNL     1      -9.132  46.384 -22.482  1.00  0.00     0.030 A 
HETATM   41  C25 UNL     1     -10.363  46.559 -23.143  1.00  0.00     0.017 A 
HETATM   42  C26 UNL     1     -10.458  46.550 -24.543  1.00  0.00     0.008 A 
HETATM   43  C31 UNL     1      -9.258  46.374 -25.246  1.00  0.00     0.017 A 
HETATM   44  C32 UNL     1      -8.032  46.203 -24.581  1.00  0.00     0.030 A 
BRANCH  42  45
HETATM   45  C27 UNL     1     -11.748  46.724 -25.240  1.00  0.00     0.115 A 
HETATM   46  N7  UNL     1     -11.745  47.363 -26.429  1.00  0.00    -0.352 N 
HETATM   47  C28 UNL     1     -12.934  47.493 -27.046  1.00  0.00     0.091 A 
ATOM     48  H7  UNL     1     -10.886  47.728 -26.840  1.00  0.00     0.166 HD
HETATM   49  C29 UNL     1     -14.115  47.016 -26.530  1.00  0.00     0.034 A 
HETATM   50  C30 UNL     1     -14.016  46.383 -25.316  1.00  0.00     0.091 A 
HETATM   51  N8  UNL     1     -12.855  46.224 -24.652  1.00  0.00    -0.352 N 
ATOM     52  H8  UNL     1     -12.815  45.749 -23.751  1.00  0.00     0.166 HD
ENDBRANCH  42  45
ENDBRANCH  37  39
ENDBRANCH  30  31
ENDBRANCH   4  30
TORSDOF 8
ENDMDL
MODEL 5
REMARK minimizedAffinity -10.1250744
REMARK CNNscore 0.268355221
REMARK CNNaffinity 6.95295095
REMARK  8 active torsions:
REMARK  status: ('A' for Active; 'I' for Inactive)
REMARK    1  A    between atoms: S1_2  and  C2_3 
REMARK    2  A    between atoms: C2_3  and  C3_4 
REMARK       I    between atoms: C3_4  and  N1_6 
REMARK    3  A    between atoms: N1_6  and  C4_7 
REMARK    4  A    between atoms: C8_14  and  C9_15 
REMARK    5  A    between atoms: N4_26  and  C19_27 
REMARK    6  A    between atoms: C19_27  and  C20_28 
REMARK       I    between atoms: C20_28  and  N5_30 
REMARK    7  A    between atoms: N6_33  and  C23_34 
REMARK    8  A    between atoms: C26_37  and  C27_38 
ROOT
HETATM    1  C2  UNL     1      -2.520  49.397 -19.002  1.00  0.00     0.117 C 
HETATM    2  C17 UNL     1      -1.643  48.326 -19.682  1.00  0.00     0.062 C 
HETATM    3  C18 UNL     1      -2.521  47.740 -20.778  1.00  0.00     0.275 C 
HETATM    4  N4  UNL     1      -3.897  47.840 -20.288  1.00  0.00     0.099 N 
HETATM    5  C35 UNL     1      -3.928  49.145 -19.592  1.00  0.00     0.303 C 
ENDROOT
BRANCH   1   6
HETATM    6  S1  UNL     1      -2.480  49.128 -17.149  1.00  0.00    -0.152 SA
HETATM    7  C1  UNL     1      -0.694  49.276 -16.846  1.00  0.00     0.091 C 
ENDBRANCH   1   6
BRANCH   1   8
HETATM    8  C3  UNL     1      -2.006  50.833 -19.288  1.00  0.00     0.242 C 
HETATM    9  O1  UNL     1      -2.566  51.822 -18.822  1.00  0.00    -0.271 OA
HETATM   10  N1  UNL     1      -0.850  50.858 -20.057  1.00  0.00    -0.326 N 
HETATM   11  H4  UNL     1      -0.442  49.954 -20.269  1.00  0.00     0.169 HD
BRANCH  10  12
HETATM   12  C4  UNL     1      -0.150  51.979 -20.543  1.00  0.00     0.035 A 
HETATM   13  C5  UNL     1       0.367  52.989 -19.731  1.00  0.00     0.032 A 
HETATM   14  C6  UNL     1       1.046  54.089 -20.271  1.00  0.00     0.034 A 
HETATM   15  C7  UNL     1       1.163  54.151 -21.662  1.00  0.00     0.060 A 
HETATM   16  N2  UNL     1       1.747  55.075 -22.483  1.00  0.00    -0.299 N 
HETATM   17  C15 UNL     1       0.648  53.182 -22.512  1.00  0.00     0.023 A 
HETATM   18  N3  UNL     1       1.649  54.793 -23.790  1.00  0.00    -0.299 N 
HETATM   19  H7  UNL     1       2.235  55.920 -22.212  1.00  0.00     0.187 HD
HETATM   20  C8  UNL     1       0.954  53.644 -23.836  1.00  0.00     0.070 A 
ATOM     21  H3  UNL     1       2.020  55.331 -24.574  1.00  0.00     0.187 HD
HETATM   22  C16 UNL     1       0.002  52.065 -21.939  1.00  0.00     0.045 A 
BRANCH  20  23
HETATM   23  C9  UNL     1       0.606  53.042 -25.127  1.00  0.00    -0.007 A 
HETATM   24  C10 UNL     1       0.693  51.656 -25.330  1.00  0.00     0.017 A 
HETATM   25  C11 UNL     1       0.352  51.096 -26.565  1.00  0.00     0.043 A 
HETATM   26  C12 UNL     1      -0.091  51.918 -27.592  1.00  0.00     0.116 A 
HETATM   27  F1  UNL     1      -0.420  51.383 -28.775  1.00  0.00    -0.206 F 
HETATM   28  C13 UNL     1      -0.204  53.291 -27.409  1.00  0.00     0.043 A 
HETATM   29  C14 UNL     1       0.143  53.851 -26.176  1.00  0.00     0.017 A 
ENDBRANCH  20  23
ENDBRANCH  10  12
ENDBRANCH   1   8
BRANCH   4  30
HETATM   30  C19 UNL     1      -4.290  46.727 -19.395  1.00  0.00     0.374 C 
BRANCH  30  31
HETATM   31  C20 UNL     1      -5.348  45.786 -20.017  1.00  0.00     0.248 C 
HETATM   32  O2  UNL     1      -5.069  44.889 -20.815  1.00  0.00    -0.271 OA
HETATM   33  N5  UNL     1      -6.666  45.976 -19.582  1.00  0.00    -0.348 N 
HETATM   34  C21 UNL     1      -7.696  45.107 -20.168  1.00  0.00     0.145 C 
HETATM   35  C34 UNL     1      -7.194  47.300 -19.217  1.00  0.00     0.145 C 
HETATM   36  C22 UNL     1      -8.303  45.765 -21.427  1.00  0.00     0.143 C 
HETATM   37  N6  UNL     1      -8.833  47.121 -21.096  1.00  0.00    -0.378 N 
HETATM   38  C33 UNL     1      -7.814  47.989 -20.458  1.00  0.00     0.143 C 
BRANCH  37  39
HETATM   39  C23 UNL     1     -10.176  47.204 -20.723  1.00  0.00     0.030 A 
HETATM   40  C24 UNL     1     -10.628  47.909 -19.602  1.00  0.00     0.030 A 
HETATM   41  C25 UNL     1     -11.992  47.979 -19.262  1.00  0.00     0.017 A 
HETATM   42  C26 UNL     1     -12.980  47.356 -20.040  1.00  0.00     0.008 A 
HETATM   43  C31 UNL     1     -12.535  46.674 -21.181  1.00  0.00     0.017 A 
HETATM   44  C32 UNL     1     -11.172  46.612 -21.516  1.00  0.00     0.030 A 
BRANCH  42  45
HETATM   45  C27 UNL     1     -14.412  47.418 -19.682  1.00  0.00     0.115 A 
HETATM   46  N7  UNL     1     -14.794  48.313 -18.747  1.00  0.00    -0.352 N 
HETATM   47  C28 UNL     1     -16.107  48.356 -18.453  1.00  0.00     0.091 A 
ATOM     48  H7  UNL     1     -14.122  48.927 -18.286  1.00  0.00     0.166 HD
HETATM   49  C29 UNL     1     -17.045  47.549 -19.050  1.00  0.00     0.034 A 
HETATM   50  C30 UNL     1     -16.560  46.670 -19.987  1.00  0.00     0.091 A 
HETATM   51  N8  UNL     1     -15.259  46.583 -20.320  1.00  0.00    -0.352 N 
ATOM     52  H8  UNL     1     -14.929  45.918 -21.020  1.00  0.00     0.166 HD
ENDBRANCH  42  45
ENDBRANCH  37  39
ENDBRANCH  30  31
ENDBRANCH   4  30
TORSDOF 8
ENDMDL
MODEL 6
REMARK minimizedAffinity -9.74212074
REMARK CNNscore 0.223744065
REMARK CNNaffinity 6.52541399
REMARK  8 active torsions:
REMARK  status: ('A' for Active; 'I' for Inactive)
REMARK    1  A    between atoms: S1_2  and  C2_3 
REMARK    2  A    between atoms: C2_3  and  C3_4 
REMARK       I    between atoms: C3_4  and  N1_6 
REMARK    3  A    between atoms: N1_6  and  C4_7 
REMARK    4  A    between atoms: C8_14  and  C9_15 
REMARK    5  A    between atoms: N4_26  and  C19_27 
REMARK    6  A    between atoms: C19_27  and  C20_28 
REMARK       I    between atoms: C20_28  and  N5_30 
REMARK    7  A    between atoms: N6_33  and  C23_34 
REMARK    8  A    between atoms: C26_37  and  C27_38 
ROOT
HETATM    1  C2  UNL     1      -5.817  47.568 -29.801  1.00  0.00     0.117 C 
HETATM    2  C17 UNL     1      -6.963  48.413 -30.393  1.00  0.00     0.062 C 
HETATM    3  C18 UNL     1      -8.234  47.796 -29.830  1.00  0.00     0.275 C 
HETATM    4  N4  UNL     1      -7.944  46.374 -29.644  1.00  0.00     0.099 N 
HETATM    5  C35 UNL     1      -6.545  46.361 -29.162  1.00  0.00     0.303 C 
ENDROOT
BRANCH   1   6
HETATM    6  S1  UNL     1      -4.674  47.039 -31.188  1.00  0.00    -0.152 SA
HETATM    7  C1  UNL     1      -5.568  47.725 -32.613  1.00  0.00     0.091 C 
ENDBRANCH   1   6
BRANCH   1   8
HETATM    8  C3  UNL     1      -4.978  48.368 -28.770  1.00  0.00     0.242 C 
HETATM    9  O1  UNL     1      -4.203  49.255 -29.118  1.00  0.00    -0.271 OA
HETATM   10  N1  UNL     1      -5.245  48.011 -27.454  1.00  0.00    -0.326 N 
HETATM   11  H4  UNL     1      -5.995  47.341 -27.322  1.00  0.00     0.169 HD
BRANCH  10  12
HETATM   12  C4  UNL     1      -4.633  48.491 -26.279  1.00  0.00     0.035 A 
HETATM   13  C5  UNL     1      -5.198  48.388 -25.008  1.00  0.00     0.032 A 
HETATM   14  C6  UNL     1      -4.550  48.895 -23.874  1.00  0.00     0.034 A 
HETATM   15  C7  UNL     1      -3.323  49.536 -24.069  1.00  0.00     0.060 A 
HETATM   16  N2  UNL     1      -2.461  50.131 -23.192  1.00  0.00    -0.299 N 
HETATM   17  C15 UNL     1      -2.731  49.681 -25.316  1.00  0.00     0.023 A 
HETATM   18  N3  UNL     1      -1.367  50.655 -23.762  1.00  0.00    -0.299 N 
HETATM   19  H7  UNL     1      -2.560  50.208 -22.187  1.00  0.00     0.187 HD
HETATM   20  C8  UNL     1      -1.521  50.414 -25.074  1.00  0.00     0.070 A 
ATOM     21  H3  UNL     1      -0.591  51.131 -23.301  1.00  0.00     0.187 HD
HETATM   22  C16 UNL     1      -3.388  49.127 -26.436  1.00  0.00     0.045 A 
BRANCH  20  23
HETATM   23  C9  UNL     1      -0.523  50.892 -26.036  1.00  0.00    -0.007 A 
HETATM   24  C10 UNL     1      -0.885  51.238 -27.348  1.00  0.00     0.017 A 
HETATM   25  C11 UNL     1       0.076  51.698 -28.252  1.00  0.00     0.043 A 
HETATM   26  C12 UNL     1       1.396  51.829 -27.841  1.00  0.00     0.116 A 
HETATM   27  F1  UNL     1       2.319  52.272 -28.707  1.00  0.00    -0.206 F 
HETATM   28  C13 UNL     1       1.775  51.513 -26.543  1.00  0.00     0.043 A 
HETATM   29  C14 UNL     1       0.814  51.047 -25.641  1.00  0.00     0.017 A 
ENDBRANCH  20  23
ENDBRANCH  10  12
ENDBRANCH   1   8
BRANCH   4  30
HETATM   30  C19 UNL     1      -8.113  45.569 -30.874  1.00  0.00     0.374 C 
BRANCH  30  31
HETATM   31  C20 UNL     1      -9.584  45.459 -31.339  1.00  0.00     0.248 C 
HETATM   32  O2  UNL     1     -10.455  44.877 -30.690  1.00  0.00    -0.271 OA
HETATM   33  N5  UNL     1      -9.897  46.110 -32.539  1.00  0.00    -0.348 N 
HETATM   34  C21 UNL     1     -11.283  46.008 -33.013  1.00  0.00     0.145 C 
HETATM   35  C34 UNL     1      -8.935  46.229 -33.646  1.00  0.00     0.145 C 
HETATM   36  C22 UNL     1     -11.445  44.789 -33.947  1.00  0.00     0.143 C 
HETATM   37  N6  UNL     1     -10.470  44.869 -35.075  1.00  0.00    -0.378 N 
HETATM   38  C33 UNL     1      -9.072  45.022 -34.606  1.00  0.00     0.143 C 
BRANCH  37  39
HETATM   39  C23 UNL     1     -10.903  45.495 -36.246  1.00  0.00     0.030 A 
HETATM   40  C24 UNL     1     -10.297  46.634 -36.787  1.00  0.00     0.030 A 
HETATM   41  C25 UNL     1     -10.755  47.233 -37.975  1.00  0.00     0.017 A 
HETATM   42  C26 UNL     1     -11.840  46.709 -38.695  1.00  0.00     0.008 A 
HETATM   43  C31 UNL     1     -12.431  45.549 -38.174  1.00  0.00     0.017 A 
HETATM   44  C32 UNL     1     -11.966  44.956 -36.989  1.00  0.00     0.030 A 
BRANCH  42  45
HETATM   45  C27 UNL     1     -12.331  47.339 -39.938  1.00  0.00     0.115 A 
HETATM   46  N7  UNL     1     -13.535  46.955 -40.411  1.00  0.00    -0.352 N 
HETATM   47  C28 UNL     1     -13.961  47.557 -41.537  1.00  0.00     0.091 A 
ATOM     48  H7  UNL     1     -14.095  46.244 -39.939  1.00  0.00     0.166 HD
HETATM   49  C29 UNL     1     -13.240  48.519 -42.203  1.00  0.00     0.034 A 
HETATM   50  C30 UNL     1     -12.028  48.840 -41.646  1.00  0.00     0.091 A 
HETATM   51  N8  UNL     1     -11.550  48.272 -40.524  1.00  0.00    -0.352 N 
ATOM     52  H8  UNL     1     -10.644  48.532 -40.135  1.00  0.00     0.166 HD
ENDBRANCH  42  45
ENDBRANCH  37  39
ENDBRANCH  30  31
ENDBRANCH   4  30
TORSDOF 8
ENDMDL
MODEL 7
REMARK minimizedAffinity -8.80377483
REMARK CNNscore 0.217406243
REMARK CNNaffinity 6.69782782
REMARK  8 active torsions:
REMARK  status: ('A' for Active; 'I' for Inactive)
REMARK    1  A    between atoms: S1_2  and  C2_3 
REMARK    2  A    between atoms: C2_3  and  C3_4 
REMARK       I    between atoms: C3_4  and  N1_6 
REMARK    3  A    between atoms: N1_6  and  C4_7 
REMARK    4  A    between atoms: C8_14  and  C9_15 
REMARK    5  A    between atoms: N4_26  and  C19_27 
REMARK    6  A    between atoms: C19_27  and  C20_28 
REMARK       I    between atoms: C20_28  and  N5_30 
REMARK    7  A    between atoms: N6_33  and  C23_34 
REMARK    8  A    between atoms: C26_37  and  C27_38 
ROOT
HETATM    1  C2  UNL     1      -1.670  49.886 -18.387  1.00  0.00     0.117 C 
HETATM    2  C17 UNL     1      -0.988  48.676 -19.057  1.00  0.00     0.062 C 
HETATM    3  C18 UNL     1      -2.105  47.959 -19.801  1.00  0.00     0.275 C 
HETATM    4  N4  UNL     1      -3.325  48.205 -19.030  1.00  0.00     0.099 N 
HETATM    5  C35 UNL     1      -3.180  49.608 -18.581  1.00  0.00     0.303 C 
ENDROOT
BRANCH   1   6
HETATM    6  S1  UNL     1      -1.194  49.926 -16.576  1.00  0.00    -0.152 SA
HETATM    7  C1  UNL     1       0.541  50.445 -16.717  1.00  0.00     0.091 C 
ENDBRANCH   1   6
BRANCH   1   8
HETATM    8  C3  UNL     1      -1.228  51.228 -19.027  1.00  0.00     0.242 C 
HETATM    9  O1  UNL     1      -1.579  52.310 -18.563  1.00  0.00    -0.271 OA
HETATM   10  N1  UNL     1      -0.375  51.062 -20.111  1.00  0.00    -0.326 N 
HETATM   11  H4  UNL     1      -0.085  50.109 -20.302  1.00  0.00     0.169 HD
BRANCH  10  12
HETATM   12  C4  UNL     1       0.171  52.053 -20.951  1.00  0.00     0.035 A 
HETATM   13  C5  UNL     1       1.021  53.068 -20.511  1.00  0.00     0.032 A 
HETATM   14  C6  UNL     1       1.526  54.035 -21.390  1.00  0.00     0.034 A 
HETATM   15  C7  UNL     1       1.121  53.961 -22.726  1.00  0.00     0.060 A 
HETATM   16  N2  UNL     1       1.421  54.739 -23.808  1.00  0.00    -0.299 N 
HETATM   17  C15 UNL     1       0.261  52.983 -23.207  1.00  0.00     0.023 A 
HETATM   18  N3  UNL     1       0.825  54.356 -24.946  1.00  0.00    -0.299 N 
HETATM   19  H7  UNL     1       2.032  55.546 -23.838  1.00  0.00     0.187 HD
HETATM   20  C8  UNL     1       0.084  53.291 -24.598  1.00  0.00     0.070 A 
ATOM     21  H3  UNL     1       0.914  54.778 -25.871  1.00  0.00     0.187 HD
HETATM   22  C16 UNL     1      -0.202  51.999 -22.307  1.00  0.00     0.045 A 
BRANCH  20  23
HETATM   23  C9  UNL     1      -0.760  52.619 -25.591  1.00  0.00    -0.007 A 
HETATM   24  C10 UNL     1      -2.152  52.540 -25.428  1.00  0.00     0.017 A 
HETATM   25  C11 UNL     1      -2.944  51.902 -26.387  1.00  0.00     0.043 A 
HETATM   26  C12 UNL     1      -2.348  51.358 -27.517  1.00  0.00     0.116 A 
HETATM   27  F1  UNL     1      -3.106  50.747 -28.438  1.00  0.00    -0.206 F 
HETATM   28  C13 UNL     1      -0.975  51.441 -27.710  1.00  0.00     0.043 A 
HETATM   29  C14 UNL     1      -0.182  52.074 -26.748  1.00  0.00     0.017 A 
ENDBRANCH  20  23
ENDBRANCH  10  12
ENDBRANCH   1   8
BRANCH   4  30
HETATM   30  C19 UNL     1      -3.504  47.276 -17.892  1.00  0.00     0.374 C 
BRANCH  30  31
HETATM   31  C20 UNL     1      -4.221  45.962 -18.280  1.00  0.00     0.248 C 
HETATM   32  O2  UNL     1      -3.720  44.847 -18.121  1.00  0.00    -0.271 OA
HETATM   33  N5  UNL     1      -5.519  46.100 -18.789  1.00  0.00    -0.348 N 
HETATM   34  C21 UNL     1      -6.218  44.870 -19.181  1.00  0.00     0.145 C 
HETATM   35  C34 UNL     1      -5.930  47.259 -19.598  1.00  0.00     0.145 C 
HETATM   36  C22 UNL     1      -5.959  44.555 -20.671  1.00  0.00     0.143 C 
HETATM   37  N6  UNL     1      -6.349  45.718 -21.521  1.00  0.00    -0.378 N 
HETATM   38  C33 UNL     1      -5.686  46.976 -21.100  1.00  0.00     0.143 C 
BRANCH  37  39
HETATM   39  C23 UNL     1      -7.654  45.732 -22.020  1.00  0.00     0.030 A 
HETATM   40  C24 UNL     1      -8.058  45.021 -23.156  1.00  0.00     0.030 A 
HETATM   41  C25 UNL     1      -9.385  45.050 -23.623  1.00  0.00     0.017 A 
HETATM   42  C26 UNL     1     -10.384  45.784 -22.966  1.00  0.00     0.008 A 
HETATM   43  C31 UNL     1      -9.990  46.473 -21.809  1.00  0.00     0.017 A 
HETATM   44  C32 UNL     1      -8.664  46.436 -21.346  1.00  0.00     0.030 A 
BRANCH  42  45
HETATM   45  C27 UNL     1     -11.776  45.826 -23.458  1.00  0.00     0.115 A 
HETATM   46  N7  UNL     1     -12.074  46.698 -24.444  1.00  0.00    -0.352 N 
HETATM   47  C28 UNL     1     -13.347  46.702 -24.881  1.00  0.00     0.091 A 
ATOM     48  H7  UNL     1     -11.370  47.322 -24.839  1.00  0.00     0.166 HD
HETATM   49  C29 UNL     1     -14.325  45.878 -24.378  1.00  0.00     0.034 A 
HETATM   50  C30 UNL     1     -13.926  45.028 -23.378  1.00  0.00     0.091 A 
HETATM   51  N8  UNL     1     -12.668  44.980 -22.900  1.00  0.00    -0.352 N 
ATOM     52  H8  UNL     1     -12.403  44.337 -22.155  1.00  0.00     0.166 HD
ENDBRANCH  42  45
ENDBRANCH  37  39
ENDBRANCH  30  31
ENDBRANCH   4  30
TORSDOF 8
ENDMDL
MODEL 8
REMARK minimizedAffinity -9.07329941
REMARK CNNscore 0.183833405
REMARK CNNaffinity 6.24492264
REMARK  8 active torsions:
REMARK  status: ('A' for Active; 'I' for Inactive)
REMARK    1  A    between atoms: S1_2  and  C2_3 
REMARK    2  A    between atoms: C2_3  and  C3_4 
REMARK       I    between atoms: C3_4  and  N1_6 
REMARK    3  A    between atoms: N1_6  and  C4_7 
REMARK    4  A    between atoms: C8_14  and  C9_15 
REMARK    5  A    between atoms: N4_26  and  C19_27 
REMARK    6  A    between atoms: C19_27  and  C20_28 
REMARK       I    between atoms: C20_28  and  N5_30 
REMARK    7  A    between atoms: N6_33  and  C23_34 
REMARK    8  A    between atoms: C26_37  and  C27_38 
ROOT
HETATM    1  C2  UNL     1      -4.994  48.205 -21.119  1.00  0.00     0.117 C 
HETATM    2  C17 UNL     1      -5.151  47.018 -20.147  1.00  0.00     0.062 C 
HETATM    3  C18 UNL     1      -5.374  45.808 -21.042  1.00  0.00     0.275 C 
HETATM    4  N4  UNL     1      -6.060  46.309 -22.234  1.00  0.00     0.099 N 
HETATM    5  C35 UNL     1      -5.414  47.616 -22.487  1.00  0.00     0.303 C 
ENDROOT
BRANCH   1   6
HETATM    6  S1  UNL     1      -6.133  49.589 -20.576  1.00  0.00    -0.152 SA
HETATM    7  C1  UNL     1      -6.962  48.785 -19.173  1.00  0.00     0.091 C 
ENDBRANCH   1   6
BRANCH   1   8
HETATM    8  C3  UNL     1      -3.544  48.757 -21.132  1.00  0.00     0.242 C 
HETATM    9  O1  UNL     1      -2.580  48.029 -21.357  1.00  0.00    -0.271 OA
HETATM   10  N1  UNL     1      -3.479  50.128 -20.922  1.00  0.00    -0.326 N 
HETATM   11  H4  UNL     1      -4.370  50.609 -20.865  1.00  0.00     0.169 HD
BRANCH  10  12
HETATM   12  C4  UNL     1      -2.332  50.941 -20.819  1.00  0.00     0.035 A 
HETATM   13  C5  UNL     1      -1.828  51.430 -19.614  1.00  0.00     0.032 A 
HETATM   14  C6  UNL     1      -0.689  52.245 -19.572  1.00  0.00     0.034 A 
HETATM   15  C7  UNL     1      -0.092  52.575 -20.791  1.00  0.00     0.060 A 
HETATM   16  N2  UNL     1       1.002  53.339 -21.088  1.00  0.00    -0.299 N 
HETATM   17  C15 UNL     1      -0.568  52.130 -22.017  1.00  0.00     0.023 A 
HETATM   18  N3  UNL     1       1.271  53.434 -22.398  1.00  0.00    -0.299 N 
HETATM   19  H7  UNL     1       1.613  53.820 -20.439  1.00  0.00     0.187 HD
HETATM   20  C8  UNL     1       0.303  52.719 -22.994  1.00  0.00     0.070 A 
ATOM     21  H3  UNL     1       2.039  53.937 -22.842  1.00  0.00     0.187 HD
HETATM   22  C16 UNL     1      -1.694  51.278 -22.026  1.00  0.00     0.045 A 
BRANCH  20  23
HETATM   23  C9  UNL     1       0.242  52.631 -24.456  1.00  0.00    -0.007 A 
HETATM   24  C10 UNL     1       0.053  53.776 -25.247  1.00  0.00     0.017 A 
HETATM   25  C11 UNL     1       0.004  53.678 -26.640  1.00  0.00     0.043 A 
HETATM   26  C12 UNL     1       0.160  52.438 -27.245  1.00  0.00     0.116 A 
HETATM   27  F1  UNL     1       0.114  52.342 -28.581  1.00  0.00    -0.206 F 
HETATM   28  C13 UNL     1       0.367  51.294 -26.486  1.00  0.00     0.043 A 
HETATM   29  C14 UNL     1       0.410  51.392 -25.092  1.00  0.00     0.017 A 
ENDBRANCH  20  23
ENDBRANCH  10  12
ENDBRANCH   1   8
BRANCH   4  30
HETATM   30  C19 UNL     1      -7.524  46.438 -22.065  1.00  0.00     0.374 C 
BRANCH  30  31
HETATM   31  C20 UNL     1      -8.319  45.258 -22.672  1.00  0.00     0.248 C 
HETATM   32  O2  UNL     1      -7.784  44.233 -23.100  1.00  0.00    -0.271 OA
HETATM   33  N5  UNL     1      -9.713  45.394 -22.671  1.00  0.00    -0.348 N 
HETATM   34  C21 UNL     1     -10.492  44.295 -23.256  1.00  0.00     0.145 C 
HETATM   35  C34 UNL     1     -10.380  46.697 -22.824  1.00  0.00     0.145 C 
HETATM   36  C22 UNL     1     -10.741  44.553 -24.759  1.00  0.00     0.143 C 
HETATM   37  N6  UNL     1     -11.402  45.878 -24.953  1.00  0.00    -0.378 N 
HETATM   38  C33 UNL     1     -10.647  46.987 -24.321  1.00  0.00     0.143 C 
BRANCH  37  39
HETATM   39  C23 UNL     1     -12.798  45.893 -24.986  1.00  0.00     0.030 A 
HETATM   40  C24 UNL     1     -13.577  46.918 -24.438  1.00  0.00     0.030 A 
HETATM   41  C25 UNL     1     -14.983  46.904 -24.500  1.00  0.00     0.017 A 
HETATM   42  C26 UNL     1     -15.684  45.864 -25.128  1.00  0.00     0.008 A 
HETATM   43  C31 UNL     1     -14.907  44.850 -25.706  1.00  0.00     0.017 A 
HETATM   44  C32 UNL     1     -13.504  44.872 -25.644  1.00  0.00     0.030 A 
BRANCH  42  45
HETATM   45  C27 UNL     1     -17.161  45.839 -25.187  1.00  0.00     0.115 A 
HETATM   46  N7  UNL     1     -17.749  44.901 -25.959  1.00  0.00    -0.352 N 
HETATM   47  C28 UNL     1     -19.095  44.896 -25.981  1.00  0.00     0.091 A 
ATOM     48  H7  UNL     1     -17.201  44.231 -26.500  1.00  0.00     0.166 HD
HETATM   49  C29 UNL     1     -19.869  45.779 -25.268  1.00  0.00     0.034 A 
HETATM   50  C30 UNL     1     -19.180  46.695 -24.514  1.00  0.00     0.091 A 
HETATM   51  N8  UNL     1     -17.836  46.749 -24.454  1.00  0.00    -0.352 N 
ATOM     52  H8  UNL     1     -17.353  47.443 -23.885  1.00  0.00     0.166 HD
ENDBRANCH  42  45
ENDBRANCH  37  39
ENDBRANCH  30  31
ENDBRANCH   4  30
TORSDOF 8
ENDMDL
MODEL 9
REMARK minimizedAffinity -10.5155716
REMARK CNNscore 0.169030026
REMARK CNNaffinity 7.0450263
REMARK  8 active torsions:
REMARK  status: ('A' for Active; 'I' for Inactive)
REMARK    1  A    between atoms: S1_2  and  C2_3 
REMARK    2  A    between atoms: C2_3  and  C3_4 
REMARK       I    between atoms: C3_4  and  N1_6 
REMARK    3  A    between atoms: N1_6  and  C4_7 
REMARK    4  A    between atoms: C8_14  and  C9_15 
REMARK    5  A    between atoms: N4_26  and  C19_27 
REMARK    6  A    between atoms: C19_27  and  C20_28 
REMARK       I    between atoms: C20_28  and  N5_30 
REMARK    7  A    between atoms: N6_33  and  C23_34 
REMARK    8  A    between atoms: C26_37  and  C27_38 
ROOT
HETATM    1  C2  UNL     1      -1.151  50.543 -17.227  1.00  0.00     0.117 C 
HETATM    2  C17 UNL     1      -1.754  49.147 -17.487  1.00  0.00     0.062 C 
HETATM    3  C18 UNL     1      -3.042  49.121 -16.677  1.00  0.00     0.275 C 
HETATM    4  N4  UNL     1      -2.806  49.984 -15.518  1.00  0.00     0.099 N 
HETATM    5  C35 UNL     1      -2.010  51.103 -16.069  1.00  0.00     0.303 C 
ENDROOT
BRANCH   1   6
HETATM    6  S1  UNL     1       0.645  50.346 -16.733  1.00  0.00    -0.152 SA
HETATM    7  C1  UNL     1       1.135  52.092 -16.620  1.00  0.00     0.091 C 
ENDBRANCH   1   6
BRANCH   1   8
HETATM    8  C3  UNL     1      -1.203  51.441 -18.491  1.00  0.00     0.242 C 
HETATM    9  O1  UNL     1      -2.173  52.153 -18.736  1.00  0.00    -0.271 OA
HETATM   10  N1  UNL     1      -0.041  51.385 -19.250  1.00  0.00    -0.326 N 
HETATM   11  H4  UNL     1       0.718  50.838 -18.856  1.00  0.00     0.169 HD
BRANCH  10  12
HETATM   12  C4  UNL     1       0.233  52.024 -20.476  1.00  0.00     0.035 A 
HETATM   13  C5  UNL     1       0.994  53.187 -20.596  1.00  0.00     0.032 A 
HETATM   14  C6  UNL     1       1.225  53.787 -21.841  1.00  0.00     0.034 A 
HETATM   15  C7  UNL     1       0.637  53.190 -22.960  1.00  0.00     0.060 A 
HETATM   16  N2  UNL     1       0.661  53.524 -24.284  1.00  0.00    -0.299 N 
HETATM   17  C15 UNL     1      -0.146  52.045 -22.888  1.00  0.00     0.023 A 
HETATM   18  N3  UNL     1      -0.042  52.702 -25.075  1.00  0.00    -0.299 N 
HETATM   19  H7  UNL     1       1.146  54.302 -24.715  1.00  0.00     0.187 HD
HETATM   20  C8  UNL     1      -0.571  51.796 -24.236  1.00  0.00     0.070 A 
ATOM     21  H3  UNL     1      -0.152  52.753 -26.088  1.00  0.00     0.187 HD
HETATM   22  C16 UNL     1      -0.329  51.440 -21.625  1.00  0.00     0.045 A 
BRANCH  20  23
HETATM   23  C9  UNL     1      -1.456  50.744 -24.745  1.00  0.00    -0.007 A 
HETATM   24  C10 UNL     1      -2.281  50.006 -23.880  1.00  0.00     0.017 A 
HETATM   25  C11 UNL     1      -3.124  49.010 -24.381  1.00  0.00     0.043 A 
HETATM   26  C12 UNL     1      -3.156  48.762 -25.747  1.00  0.00     0.116 A 
HETATM   27  F1  UNL     1      -3.965  47.809 -26.229  1.00  0.00    -0.206 F 
HETATM   28  C13 UNL     1      -2.364  49.493 -26.624  1.00  0.00     0.043 A 
HETATM   29  C14 UNL     1      -1.517  50.484 -26.122  1.00  0.00     0.017 A 
ENDBRANCH  20  23
ENDBRANCH  10  12
ENDBRANCH   1   8
BRANCH   4  30
HETATM   30  C19 UNL     1      -2.108  49.303 -14.405  1.00  0.00     0.374 C 
BRANCH  30  31
HETATM   31  C20 UNL     1      -2.266  50.026 -13.048  1.00  0.00     0.248 C 
HETATM   32  O2  UNL     1      -3.357  50.211 -12.504  1.00  0.00    -0.271 OA
HETATM   33  N5  UNL     1      -1.077  50.430 -12.427  1.00  0.00    -0.348 N 
HETATM   34  C21 UNL     1      -1.197  51.135 -11.144  1.00  0.00     0.145 C 
HETATM   35  C34 UNL     1       0.106  50.858 -13.191  1.00  0.00     0.145 C 
HETATM   36  C22 UNL     1      -1.278  52.660 -11.372  1.00  0.00     0.143 C 
HETATM   37  N6  UNL     1      -0.099  53.127 -12.161  1.00  0.00    -0.378 N 
HETATM   38  C33 UNL     1       0.059  52.386 -13.436  1.00  0.00     0.143 C 
BRANCH  37  39
HETATM   39  C23 UNL     1       1.017  53.556 -11.441  1.00  0.00     0.030 A 
HETATM   40  C24 UNL     1       1.052  54.740 -10.695  1.00  0.00     0.030 A 
HETATM   41  C25 UNL     1       2.193  55.136  -9.973  1.00  0.00     0.017 A 
HETATM   42  C26 UNL     1       3.359  54.355  -9.948  1.00  0.00     0.008 A 
HETATM   43  C31 UNL     1       3.318  53.153 -10.669  1.00  0.00     0.017 A 
HETATM   44  C32 UNL     1       2.174  52.763 -11.385  1.00  0.00     0.030 A 
BRANCH  42  45
HETATM   45  C27 UNL     1       4.563  54.771  -9.200  1.00  0.00     0.115 A 
HETATM   46  N7  UNL     1       5.751  54.246  -9.567  1.00  0.00    -0.352 N 
HETATM   47  C28 UNL     1       6.831  54.654  -8.875  1.00  0.00     0.091 A 
ATOM     48  H7  UNL     1       5.827  53.573 -10.330  1.00  0.00     0.166 HD
HETATM   49  C29 UNL     1       6.773  55.559  -7.842  1.00  0.00     0.034 A 
HETATM   50  C30 UNL     1       5.521  56.035  -7.542  1.00  0.00     0.091 A 
HETATM   51  N8  UNL     1       4.407  55.662  -8.198  1.00  0.00    -0.352 N 
ATOM     52  H8  UNL     1       3.490  56.034  -7.950  1.00  0.00     0.166 HD
ENDBRANCH  42  45
ENDBRANCH  37  39
ENDBRANCH  30  31
ENDBRANCH   4  30
TORSDOF 8
ENDMDL
