MODEL 1
REMARK minimizedAffinity -9.75761414
REMARK  4 active torsions:
REMARK  status: ('A' for Active; 'I' for Inactive)
REMARK    1  A    between atoms: C2_2  and  N1_3 
REMARK    2  A    between atoms: C2_2  and  C17_26 
REMARK       I    between atoms: N1_3  and  C3_4 
REMARK       I    between atoms: C3_4  and  N2_6 
REMARK    3  A    between atoms: N2_6  and  C4_7 
REMARK    4  A    between atoms: C7_13  and  C8_14 
ROOT
HETATM    1  C8  UNL     1       0.350  52.610 -22.772  1.00  0.00    -0.007 A 
HETATM    2  C9  UNL     1       1.063  53.659 -22.173  1.00  0.00     0.015 A 
HETATM    3  C10 UNL     1       1.245  53.690 -20.785  1.00  0.00     0.023 A 
HETATM    4  C11 UNL     1       0.723  52.670 -19.983  1.00  0.00     0.044 A 
HETATM    5  C12 UNL     1       0.912  52.702 -18.562  1.00  0.00     0.099 C 
HETATM    6  N5  UNL     1       1.065  52.733 -17.412  1.00  0.00    -0.191 NA
HETATM    7  C13 UNL     1       0.020  51.616 -20.574  1.00  0.00     0.023 A 
HETATM    8  C14 UNL     1      -0.160  51.586 -21.961  1.00  0.00     0.015 A 
ENDROOT
BRANCH   1   9
HETATM    9  C7  UNL     1       0.150  52.564 -24.221  1.00  0.00     0.072 A 
HETATM   10  N4  UNL     1       1.036  53.140 -25.051  1.00  0.00    -0.299 N 
HETATM   11  N3  UNL     1       0.536  52.926 -26.277  1.00  0.00    -0.299 N 
ATOM     12  H4  UNL     1       1.896  53.630 -24.805  1.00  0.00     0.187 HD
HETATM   13  C6  UNL     1      -0.628  52.212 -26.288  1.00  0.00     0.065 A 
HETATM   14  H8  UNL     1       1.044  53.290 -27.075  1.00  0.00     0.187 HD
HETATM   15  C5  UNL     1      -1.442  51.777 -27.333  1.00  0.00     0.080 A 
HETATM   16  C15 UNL     1      -0.908  51.946 -24.954  1.00  0.00     0.036 A 
HETATM   17  C4  UNL     1      -2.558  51.043 -26.949  1.00  0.00     0.111 A 
HETATM   18  N6  UNL     1      -2.859  50.759 -25.660  1.00  0.00    -0.351 N 
HETATM   19  C16 UNL     1      -2.047  51.193 -24.661  1.00  0.00     0.105 A 
ATOM     20  H6  UNL     1      -3.696  50.220 -25.439  1.00  0.00     0.166 HD
BRANCH  17  21
HETATM   21  N2  UNL     1      -3.490  50.529 -27.850  1.00  0.00    -0.295 N 
HETATM   22  C3  UNL     1      -3.928  49.238 -27.977  1.00  0.00     0.322 C 
HETATM   23  N1  UNL     1      -4.831  49.117 -29.009  1.00  0.00    -0.335 N 
HETATM   24  O1  UNL     1      -3.596  48.288 -27.282  1.00  0.00    -0.247 OA
HETATM   25  H5  UNL     1      -4.824  49.833 -29.719  1.00  0.00     0.165 HD
HETATM   26  H6  UNL     1      -3.952  51.252 -28.378  1.00  0.00     0.172 HD
BRANCH  23  27
HETATM   27  C2  UNL     1      -5.400  47.831 -29.377  1.00  0.00     0.115 C 
HETATM   28  C1  UNL     1      -5.365  47.619 -30.895  1.00  0.00     0.037 C 
BRANCH  27  29
HETATM   29  C17 UNL     1      -6.792  47.719 -28.780  1.00  0.00    -0.034 A 
HETATM   30  C18 UNL     1      -7.014  47.324 -27.450  1.00  0.00     0.009 A 
HETATM   31  C19 UNL     1      -8.312  47.205 -26.946  1.00  0.00     0.002 A 
HETATM   32  C20 UNL     1      -9.408  47.467 -27.766  1.00  0.00     0.024 A 
HETATM   33  C21 UNL     1      -9.202  47.843 -29.091  1.00  0.00     0.034 A 
HETATM   34 CL1  UNL     1     -10.553  48.156 -30.110  1.00  0.00    -0.084 Cl
HETATM   35  C22 UNL     1      -7.908  47.964 -29.599  1.00  0.00     0.033 A 
ENDBRANCH  27  29
ENDBRANCH  23  27
ENDBRANCH  17  21
ENDBRANCH   1   9
TORSDOF 4
ENDMDL
MODEL 2
REMARK minimizedAffinity -9.75147343
REMARK  4 active torsions:
REMARK  status: ('A' for Active; 'I' for Inactive)
REMARK    1  A    between atoms: C2_2  and  N1_3 
REMARK    2  A    between atoms: C2_2  and  C17_26 
REMARK       I    between atoms: N1_3  and  C3_4 
REMARK       I    between atoms: C3_4  and  N2_6 
REMARK    3  A    between atoms: N2_6  and  C4_7 
REMARK    4  A    between atoms: C7_13  and  C8_14 
ROOT
HETATM    1  C8  UNL     1      -0.547  52.439 -24.765  1.00  0.00    -0.007 A 
HETATM    2  C9  UNL     1       0.058  51.564 -25.678  1.00  0.00     0.015 A 
HETATM    3  C10 UNL     1      -0.711  50.902 -26.642  1.00  0.00     0.023 A 
HETATM    4  C11 UNL     1      -2.092  51.113 -26.708  1.00  0.00     0.044 A 
HETATM    5  C12 UNL     1      -2.879  50.436 -27.697  1.00  0.00     0.099 C 
HETATM    6  N5  UNL     1      -3.512  49.884 -28.497  1.00  0.00    -0.191 NA
HETATM    7  C13 UNL     1      -2.701  51.993 -25.808  1.00  0.00     0.023 A 
HETATM    8  C14 UNL     1      -1.931  52.654 -24.845  1.00  0.00     0.015 A 
ENDROOT
BRANCH   1   9
HETATM    9  C7  UNL     1       0.244  53.138 -23.751  1.00  0.00     0.072 A 
HETATM   10  N4  UNL     1       1.070  54.139 -24.099  1.00  0.00    -0.299 N 
HETATM   11  N3  UNL     1       1.635  54.524 -22.946  1.00  0.00    -0.299 N 
ATOM     12  H4  UNL     1       1.231  54.520 -25.032  1.00  0.00     0.187 HD
HETATM   13  C6  UNL     1       1.196  53.835 -21.852  1.00  0.00     0.065 A 
HETATM   14  H8  UNL     1       2.316  55.276 -22.970  1.00  0.00     0.187 HD
HETATM   15  C5  UNL     1       1.519  53.936 -20.498  1.00  0.00     0.080 A 
HETATM   16  C15 UNL     1       0.272  52.921 -22.339  1.00  0.00     0.036 A 
HETATM   17  C4  UNL     1       0.839  53.061 -19.661  1.00  0.00     0.111 A 
HETATM   18  N6  UNL     1      -0.073  52.162 -20.100  1.00  0.00    -0.351 N 
HETATM   19  C16 UNL     1      -0.370  52.087 -21.423  1.00  0.00     0.105 A 
ATOM     20  H6  UNL     1      -0.537  51.541 -19.437  1.00  0.00     0.166 HD
BRANCH  17  21
HETATM   21  N2  UNL     1       1.030  53.009 -18.280  1.00  0.00    -0.295 N 
HETATM   22  C3  UNL     1       0.676  52.014 -17.409  1.00  0.00     0.322 C 
HETATM   23  N1  UNL     1       1.003  52.346 -16.114  1.00  0.00    -0.335 N 
HETATM   24  O1  UNL     1       0.147  50.950 -17.700  1.00  0.00    -0.247 OA
HETATM   25  H5  UNL     1       1.137  53.323 -15.904  1.00  0.00     0.165 HD
HETATM   26  H6  UNL     1       1.600  53.769 -17.943  1.00  0.00     0.172 HD
BRANCH  23  27
HETATM   27  C2  UNL     1       0.678  51.471 -14.999  1.00  0.00     0.115 C 
HETATM   28  C1  UNL     1      -0.024  52.240 -13.873  1.00  0.00     0.037 C 
BRANCH  27  29
HETATM   29  C17 UNL     1       1.940  50.757 -14.549  1.00  0.00    -0.034 A 
HETATM   30  C18 UNL     1       3.215  51.339 -14.651  1.00  0.00     0.009 A 
HETATM   31  C19 UNL     1       4.356  50.638 -14.254  1.00  0.00     0.002 A 
HETATM   32  C20 UNL     1       4.244  49.340 -13.758  1.00  0.00     0.024 A 
HETATM   33  C21 UNL     1       2.988  48.745 -13.668  1.00  0.00     0.034 A 
HETATM   34 CL1  UNL     1       2.845  47.138 -13.068  1.00  0.00    -0.084 Cl
HETATM   35  C22 UNL     1       1.845  49.441 -14.063  1.00  0.00     0.033 A 
ENDBRANCH  27  29
ENDBRANCH  23  27
ENDBRANCH  17  21
ENDBRANCH   1   9
TORSDOF 4
ENDMDL
MODEL 3
REMARK minimizedAffinity -9.70022678
REMARK  4 active torsions:
REMARK  status: ('A' for Active; 'I' for Inactive)
REMARK    1  A    between atoms: C2_2  and  N1_3 
REMARK    2  A    between atoms: C2_2  and  C17_26 
REMARK       I    between atoms: N1_3  and  C3_4 
REMARK       I    between atoms: C3_4  and  N2_6 
REMARK    3  A    between atoms: N2_6  and  C4_7 
REMARK    4  A    between atoms: C7_13  and  C8_14 
ROOT
HETATM    1  C8  UNL     1      -0.148  51.963 -21.823  1.00  0.00    -0.007 A 
HETATM    2  C9  UNL     1      -1.035  51.593 -22.844  1.00  0.00     0.015 A 
HETATM    3  C10 UNL     1      -0.967  52.210 -24.099  1.00  0.00     0.023 A 
HETATM    4  C11 UNL     1      -0.009  53.199 -24.348  1.00  0.00     0.044 A 
HETATM    5  C12 UNL     1       0.060  53.828 -25.635  1.00  0.00     0.099 C 
HETATM    6  N5  UNL     1       0.110  54.337 -26.676  1.00  0.00    -0.191 NA
HETATM    7  C13 UNL     1       0.885  53.565 -23.338  1.00  0.00     0.023 A 
HETATM    8  C14 UNL     1       0.817  52.947 -22.085  1.00  0.00     0.015 A 
ENDROOT
BRANCH   1   9
HETATM    9  C7  UNL     1      -0.206  51.328 -20.506  1.00  0.00     0.072 A 
HETATM   10  N4  UNL     1      -0.761  50.113 -20.358  1.00  0.00    -0.299 N 
HETATM   11  N3  UNL     1      -0.662  49.857 -19.045  1.00  0.00    -0.299 N 
ATOM     12  H4  UNL     1      -1.166  49.518 -21.081  1.00  0.00     0.187 HD
HETATM   13  C6  UNL     1      -0.043  50.842 -18.329  1.00  0.00     0.065 A 
HETATM   14  H8  UNL     1      -1.032  48.980 -18.696  1.00  0.00     0.187 HD
HETATM   15  C5  UNL     1       0.261  50.954 -16.973  1.00  0.00     0.080 A 
HETATM   16  C15 UNL     1       0.280  51.822 -19.257  1.00  0.00     0.036 A 
HETATM   17  C4  UNL     1       0.927  52.118 -16.610  1.00  0.00     0.111 A 
HETATM   18  N6  UNL     1       1.264  53.092 -17.488  1.00  0.00    -0.351 N 
HETATM   19  C16 UNL     1       0.957  52.955 -18.804  1.00  0.00     0.105 A 
ATOM     20  H6  UNL     1       1.748  53.928 -17.161  1.00  0.00     0.166 HD
BRANCH  17  21
HETATM   21  N2  UNL     1       1.310  52.411 -15.301  1.00  0.00    -0.295 N 
HETATM   22  C3  UNL     1       0.799  51.913 -14.133  1.00  0.00     0.322 C 
HETATM   23  N1  UNL     1       1.418  52.472 -13.039  1.00  0.00    -0.335 N 
HETATM   24  O1  UNL     1      -0.085  51.073 -14.028  1.00  0.00    -0.247 OA
HETATM   25  H5  UNL     1       1.891  53.353 -13.172  1.00  0.00     0.165 HD
HETATM   26  H6  UNL     1       2.140  52.981 -15.263  1.00  0.00     0.172 HD
BRANCH  23  27
HETATM   27  C2  UNL     1       1.012  52.143 -11.682  1.00  0.00     0.115 C 
HETATM   28  C1  UNL     1       0.612  50.668 -11.562  1.00  0.00     0.037 C 
BRANCH  27  29
HETATM   29  C17 UNL     1      -0.081  53.104 -11.248  1.00  0.00    -0.034 A 
HETATM   30  C18 UNL     1       0.197  54.391 -10.758  1.00  0.00     0.009 A 
HETATM   31  C19 UNL     1      -0.834  55.237 -10.341  1.00  0.00     0.002 A 
HETATM   32  C20 UNL     1      -2.159  54.806 -10.396  1.00  0.00     0.024 A 
HETATM   33  C21 UNL     1      -2.446  53.527 -10.864  1.00  0.00     0.034 A 
HETATM   34 CL1  UNL     1      -4.079  52.986 -10.923  1.00  0.00    -0.084 Cl
HETATM   35  C22 UNL     1      -1.420  52.679 -11.283  1.00  0.00     0.033 A 
ENDBRANCH  27  29
ENDBRANCH  23  27
ENDBRANCH  17  21
ENDBRANCH   1   9
TORSDOF 4
ENDMDL
MODEL 4
REMARK minimizedAffinity -9.68276978
REMARK  4 active torsions:
REMARK  status: ('A' for Active; 'I' for Inactive)
REMARK    1  A    between atoms: C2_2  and  N1_3 
REMARK    2  A    between atoms: C2_2  and  C17_26 
REMARK       I    between atoms: N1_3  and  C3_4 
REMARK       I    between atoms: C3_4  and  N2_6 
REMARK    3  A    between atoms: N2_6  and  C4_7 
REMARK    4  A    between atoms: C7_13  and  C8_14 
ROOT
HETATM    1  C8  UNL     1      -0.554  52.386 -24.622  1.00  0.00    -0.007 A 
HETATM    2  C9  UNL     1       0.054  51.493 -25.516  1.00  0.00     0.015 A 
HETATM    3  C10 UNL     1      -0.706  50.843 -26.495  1.00  0.00     0.023 A 
HETATM    4  C11 UNL     1      -2.081  51.083 -26.594  1.00  0.00     0.044 A 
HETATM    5  C12 UNL     1      -2.858  50.417 -27.599  1.00  0.00     0.099 C 
HETATM    6  N5  UNL     1      -3.483  49.874 -28.412  1.00  0.00    -0.191 NA
HETATM    7  C13 UNL     1      -2.692  51.980 -25.714  1.00  0.00     0.023 A 
HETATM    8  C14 UNL     1      -1.931  52.630 -24.737  1.00  0.00     0.015 A 
ENDROOT
BRANCH   1   9
HETATM    9  C7  UNL     1       0.227  53.074 -23.593  1.00  0.00     0.072 A 
HETATM   10  N4  UNL     1       1.069  54.067 -23.925  1.00  0.00    -0.299 N 
HETATM   11  N3  UNL     1       1.619  54.443 -22.761  1.00  0.00    -0.299 N 
ATOM     12  H4  UNL     1       1.249  54.450 -24.853  1.00  0.00     0.187 HD
HETATM   13  C6  UNL     1       1.156  53.755 -21.676  1.00  0.00     0.065 A 
HETATM   14  H8  UNL     1       2.307  55.187 -22.771  1.00  0.00     0.187 HD
HETATM   15  C5  UNL     1       1.457  53.849 -20.317  1.00  0.00     0.080 A 
HETATM   16  C15 UNL     1       0.230  52.852 -22.182  1.00  0.00     0.036 A 
HETATM   17  C4  UNL     1       0.755  52.978 -19.494  1.00  0.00     0.111 A 
HETATM   18  N6  UNL     1      -0.160  52.089 -19.951  1.00  0.00    -0.351 N 
HETATM   19  C16 UNL     1      -0.436  52.021 -21.279  1.00  0.00     0.105 A 
ATOM     20  H6  UNL     1      -0.640  51.471 -19.298  1.00  0.00     0.166 HD
BRANCH  17  21
HETATM   21  N2  UNL     1       0.923  52.919 -18.111  1.00  0.00    -0.295 N 
HETATM   22  C3  UNL     1       0.755  51.846 -17.278  1.00  0.00     0.322 C 
HETATM   23  N1  UNL     1       0.982  52.193 -15.965  1.00  0.00    -0.335 N 
HETATM   24  O1  UNL     1       0.454  50.708 -17.612  1.00  0.00    -0.247 OA
HETATM   25  H5  UNL     1       0.915  53.169 -15.724  1.00  0.00     0.165 HD
HETATM   26  H6  UNL     1       1.323  53.765 -17.737  1.00  0.00     0.172 HD
BRANCH  23  27
HETATM   27  C2  UNL     1       0.813  51.235 -14.884  1.00  0.00     0.115 C 
HETATM   28  C1  UNL     1       1.090  49.804 -15.359  1.00  0.00     0.037 C 
BRANCH  27  29
HETATM   29  C17 UNL     1      -0.567  51.417 -14.277  1.00  0.00    -0.034 A 
HETATM   30  C18 UNL     1      -1.731  50.916 -14.885  1.00  0.00     0.009 A 
HETATM   31  C19 UNL     1      -2.987  51.128 -14.310  1.00  0.00     0.002 A 
HETATM   32  C20 UNL     1      -3.101  51.853 -13.125  1.00  0.00     0.024 A 
HETATM   33  C21 UNL     1      -1.957  52.369 -12.522  1.00  0.00     0.034 A 
HETATM   34 CL1  UNL     1      -2.094  53.275 -11.065  1.00  0.00    -0.084 Cl
HETATM   35  C22 UNL     1      -0.700  52.159 -13.091  1.00  0.00     0.033 A 
ENDBRANCH  27  29
ENDBRANCH  23  27
ENDBRANCH  17  21
ENDBRANCH   1   9
TORSDOF 4
ENDMDL
MODEL 5
REMARK minimizedAffinity -9.62758255
REMARK  4 active torsions:
REMARK  status: ('A' for Active; 'I' for Inactive)
REMARK    1  A    between atoms: C2_2  and  N1_3 
REMARK    2  A    between atoms: C2_2  and  C17_26 
REMARK       I    between atoms: N1_3  and  C3_4 
REMARK       I    between atoms: C3_4  and  N2_6 
REMARK    3  A    between atoms: N2_6  and  C4_7 
REMARK    4  A    between atoms: C7_13  and  C8_14 
ROOT
HETATM    1  C8  UNL     1      -0.546  52.442 -24.706  1.00  0.00    -0.007 A 
HETATM    2  C9  UNL     1       0.069  51.573 -25.619  1.00  0.00     0.015 A 
HETATM    3  C10 UNL     1      -0.688  50.930 -26.606  1.00  0.00     0.023 A 
HETATM    4  C11 UNL     1      -2.066  51.154 -26.694  1.00  0.00     0.044 A 
HETATM    5  C12 UNL     1      -2.839  50.496 -27.706  1.00  0.00     0.099 C 
HETATM    6  N5  UNL     1      -3.462  49.959 -28.525  1.00  0.00    -0.191 NA
HETATM    7  C13 UNL     1      -2.683  52.027 -25.794  1.00  0.00     0.023 A 
HETATM    8  C14 UNL     1      -1.926  52.670 -24.810  1.00  0.00     0.015 A 
ENDROOT
BRANCH   1   9
HETATM    9  C7  UNL     1       0.232  53.121 -23.669  1.00  0.00     0.072 A 
HETATM   10  N4  UNL     1       1.086  54.108 -23.992  1.00  0.00    -0.299 N 
HETATM   11  N3  UNL     1       1.629  54.477 -22.822  1.00  0.00    -0.299 N 
ATOM     12  H4  UNL     1       1.277  54.490 -24.918  1.00  0.00     0.187 HD
HETATM   13  C6  UNL     1       1.149  53.792 -21.743  1.00  0.00     0.065 A 
HETATM   14  H8  UNL     1       2.323  55.216 -22.825  1.00  0.00     0.187 HD
HETATM   15  C5  UNL     1       1.439  53.881 -20.381  1.00  0.00     0.080 A 
HETATM   16  C15 UNL     1       0.221  52.898 -22.258  1.00  0.00     0.036 A 
HETATM   17  C4  UNL     1       0.722  53.015 -19.566  1.00  0.00     0.111 A 
HETATM   18  N6  UNL     1      -0.196  52.135 -20.032  1.00  0.00    -0.351 N 
HETATM   19  C16 UNL     1      -0.460  52.071 -21.363  1.00  0.00     0.105 A 
ATOM     20  H6  UNL     1      -0.688  51.520 -19.384  1.00  0.00     0.166 HD
BRANCH  17  21
HETATM   21  N2  UNL     1       0.877  52.953 -18.181  1.00  0.00    -0.295 N 
HETATM   22  C3  UNL     1       0.703  51.877 -17.353  1.00  0.00     0.322 C 
HETATM   23  N1  UNL     1       0.917  52.221 -16.037  1.00  0.00    -0.335 N 
HETATM   24  O1  UNL     1       0.407  50.740 -17.693  1.00  0.00    -0.247 OA
HETATM   25  H5  UNL     1       0.845  53.197 -15.794  1.00  0.00     0.165 HD
HETATM   26  H6  UNL     1       1.272  53.798 -17.801  1.00  0.00     0.172 HD
BRANCH  23  27
HETATM   27  C2  UNL     1       0.739  51.260 -14.960  1.00  0.00     0.115 C 
HETATM   28  C1  UNL     1      -0.692  50.710 -14.933  1.00  0.00     0.037 C 
BRANCH  27  29
HETATM   29  C17 UNL     1       1.168  51.902 -13.653  1.00  0.00    -0.034 A 
HETATM   30  C18 UNL     1       2.452  51.727 -13.111  1.00  0.00     0.009 A 
HETATM   31  C19 UNL     1       2.800  52.310 -11.889  1.00  0.00     0.002 A 
HETATM   32  C20 UNL     1       1.866  53.069 -11.185  1.00  0.00     0.024 A 
HETATM   33  C21 UNL     1       0.585  53.236 -11.703  1.00  0.00     0.034 A 
HETATM   34 CL1  UNL     1      -0.575  54.162 -10.831  1.00  0.00    -0.084 Cl
HETATM   35  C22 UNL     1       0.233  52.657 -12.922  1.00  0.00     0.033 A 
ENDBRANCH  27  29
ENDBRANCH  23  27
ENDBRANCH  17  21
ENDBRANCH   1   9
TORSDOF 4
ENDMDL
MODEL 6
REMARK minimizedAffinity -9.35974693
REMARK  4 active torsions:
REMARK  status: ('A' for Active; 'I' for Inactive)
REMARK    1  A    between atoms: C2_2  and  N1_3 
REMARK    2  A    between atoms: C2_2  and  C17_26 
REMARK       I    between atoms: N1_3  and  C3_4 
REMARK       I    between atoms: C3_4  and  N2_6 
REMARK    3  A    between atoms: N2_6  and  C4_7 
REMARK    4  A    between atoms: C7_13  and  C8_14 
ROOT
HETATM    1  C8  UNL     1      -0.384  51.493 -20.940  1.00  0.00    -0.007 A 
HETATM    2  C9  UNL     1      -1.470  51.216 -21.784  1.00  0.00     0.015 A 
HETATM    3  C10 UNL     1      -1.533  51.778 -23.065  1.00  0.00     0.023 A 
HETATM    4  C11 UNL     1      -0.509  52.616 -23.517  1.00  0.00     0.044 A 
HETATM    5  C12 UNL     1      -0.575  53.189 -24.830  1.00  0.00     0.099 C 
HETATM    6  N5  UNL     1      -0.633  53.653 -25.892  1.00  0.00    -0.191 NA
HETATM    7  C13 UNL     1       0.581  52.888 -22.686  1.00  0.00     0.023 A 
HETATM    8  C14 UNL     1       0.643  52.326 -21.407  1.00  0.00     0.015 A 
ENDROOT
BRANCH   1   9
HETATM    9  C7  UNL     1      -0.304  50.914 -19.598  1.00  0.00     0.072 A 
HETATM   10  N4  UNL     1      -0.839  49.709 -19.341  1.00  0.00    -0.299 N 
HETATM   11  N3  UNL     1      -0.603  49.508 -18.036  1.00  0.00    -0.299 N 
ATOM     12  H4  UNL     1      -1.317  49.085 -19.993  1.00  0.00     0.187 HD
HETATM   13  C6  UNL     1       0.086  50.520 -17.432  1.00  0.00     0.065 A 
HETATM   14  H8  UNL     1      -0.935  48.648 -17.614  1.00  0.00     0.187 HD
HETATM   15  C5  UNL     1       0.530  50.688 -16.120  1.00  0.00     0.080 A 
HETATM   16  C15 UNL     1       0.310  51.459 -18.429  1.00  0.00     0.036 A 
HETATM   17  C4  UNL     1       1.229  51.864 -15.878  1.00  0.00     0.111 A 
HETATM   18  N6  UNL     1       1.472  52.799 -16.828  1.00  0.00    -0.351 N 
HETATM   19  C16 UNL     1       1.030  52.608 -18.098  1.00  0.00     0.105 A 
ATOM     20  H6  UNL     1       1.987  53.646 -16.588  1.00  0.00     0.166 HD
BRANCH  17  21
HETATM   21  N2  UNL     1       1.746  52.211 -14.631  1.00  0.00    -0.295 N 
HETATM   22  C3  UNL     1       1.066  52.529 -13.486  1.00  0.00     0.322 C 
HETATM   23  N1  UNL     1       1.931  52.850 -12.464  1.00  0.00    -0.335 N 
HETATM   24  O1  UNL     1      -0.149  52.531 -13.341  1.00  0.00    -0.247 OA
HETATM   25  H5  UNL     1       2.865  53.131 -12.718  1.00  0.00     0.165 HD
HETATM   26  H6  UNL     1       2.746  52.094 -14.583  1.00  0.00     0.172 HD
BRANCH  23  27
HETATM   27  C2  UNL     1       1.446  53.276 -11.162  1.00  0.00     0.115 C 
HETATM   28  C1  UNL     1       0.099  53.999 -11.276  1.00  0.00     0.037 C 
BRANCH  27  29
HETATM   29  C17 UNL     1       2.523  54.103 -10.482  1.00  0.00    -0.034 A 
HETATM   30  C18 UNL     1       2.334  55.453 -10.141  1.00  0.00     0.009 A 
HETATM   31  C19 UNL     1       3.360  56.191  -9.543  1.00  0.00     0.002 A 
HETATM   32  C20 UNL     1       4.593  55.594  -9.286  1.00  0.00     0.024 A 
HETATM   33  C21 UNL     1       4.798  54.261  -9.634  1.00  0.00     0.034 A 
HETATM   34 CL1  UNL     1       6.323  53.524  -9.329  1.00  0.00    -0.084 Cl
HETATM   35  C22 UNL     1       3.777  53.521 -10.231  1.00  0.00     0.033 A 
ENDBRANCH  27  29
ENDBRANCH  23  27
ENDBRANCH  17  21
ENDBRANCH   1   9
TORSDOF 4
ENDMDL
MODEL 7
REMARK minimizedAffinity -9.31648827
REMARK  4 active torsions:
REMARK  status: ('A' for Active; 'I' for Inactive)
REMARK    1  A    between atoms: C2_2  and  N1_3 
REMARK    2  A    between atoms: C2_2  and  C17_26 
REMARK       I    between atoms: N1_3  and  C3_4 
REMARK       I    between atoms: C3_4  and  N2_6 
REMARK    3  A    between atoms: N2_6  and  C4_7 
REMARK    4  A    between atoms: C7_13  and  C8_14 
ROOT
HETATM    1  C8  UNL     1       0.018  51.911 -22.796  1.00  0.00    -0.007 A 
HETATM    2  C9  UNL     1      -0.551  50.936 -21.964  1.00  0.00     0.015 A 
HETATM    3  C10 UNL     1      -0.438  51.038 -20.572  1.00  0.00     0.023 A 
HETATM    4  C11 UNL     1       0.240  52.118 -19.998  1.00  0.00     0.044 A 
HETATM    5  C12 UNL     1       0.354  52.222 -18.572  1.00  0.00     0.099 C 
HETATM    6  N5  UNL     1       0.446  52.300 -17.418  1.00  0.00    -0.191 NA
HETATM    7  C13 UNL     1       0.801  53.099 -20.820  1.00  0.00     0.023 A 
HETATM    8  C14 UNL     1       0.687  52.997 -22.210  1.00  0.00     0.015 A 
ENDROOT
BRANCH   1   9
HETATM    9  C7  UNL     1      -0.091  51.818 -24.252  1.00  0.00     0.072 A 
HETATM   10  N4  UNL     1       0.908  52.249 -25.041  1.00  0.00    -0.299 N 
HETATM   11  N3  UNL     1       0.466  52.035 -26.289  1.00  0.00    -0.299 N 
ATOM     12  H4  UNL     1       1.802  52.649 -24.755  1.00  0.00     0.187 HD
HETATM   13  C6  UNL     1      -0.770  51.458 -26.352  1.00  0.00     0.065 A 
HETATM   14  H8  UNL     1       1.064  52.300 -27.064  1.00  0.00     0.187 HD
HETATM   15  C5  UNL     1      -1.560  51.069 -27.434  1.00  0.00     0.080 A 
HETATM   16  C15 UNL     1      -1.165  51.291 -25.032  1.00  0.00     0.036 A 
HETATM   17  C4  UNL     1      -2.776  50.487 -27.099  1.00  0.00     0.111 A 
HETATM   18  N6  UNL     1      -3.192  50.302 -25.823  1.00  0.00    -0.351 N 
HETATM   19  C16 UNL     1      -2.400  50.687 -24.789  1.00  0.00     0.105 A 
ATOM     20  H6  UNL     1      -4.099  49.873 -25.640  1.00  0.00     0.166 HD
BRANCH  17  21
HETATM   21  N2  UNL     1      -3.703  50.040 -28.041  1.00  0.00    -0.295 N 
HETATM   22  C3  UNL     1      -4.578  48.992 -27.943  1.00  0.00     0.322 C 
HETATM   23  N1  UNL     1      -5.310  48.843 -29.099  1.00  0.00    -0.335 N 
HETATM   24  O1  UNL     1      -4.732  48.264 -26.972  1.00  0.00    -0.247 OA
HETATM   25  H5  UNL     1      -4.934  49.248 -29.943  1.00  0.00     0.165 HD
HETATM   26  H6  UNL     1      -3.778  50.662 -28.831  1.00  0.00     0.172 HD
BRANCH  23  27
HETATM   27  C2  UNL     1      -6.270  47.763 -29.259  1.00  0.00     0.115 C 
HETATM   28  C1  UNL     1      -6.430  46.963 -27.961  1.00  0.00     0.037 C 
BRANCH  27  29
HETATM   29  C17 UNL     1      -5.861  46.913 -30.449  1.00  0.00    -0.034 A 
HETATM   30  C18 UNL     1      -6.327  45.601 -30.636  1.00  0.00     0.009 A 
HETATM   31  C19 UNL     1      -5.905  44.840 -31.729  1.00  0.00     0.002 A 
HETATM   32  C20 UNL     1      -5.002  45.373 -32.647  1.00  0.00     0.024 A 
HETATM   33  C21 UNL     1      -4.519  46.666 -32.464  1.00  0.00     0.034 A 
HETATM   34 CL1  UNL     1      -3.394  47.324 -33.588  1.00  0.00    -0.084 Cl
HETATM   35  C22 UNL     1      -4.937  47.431 -31.375  1.00  0.00     0.033 A 
ENDBRANCH  27  29
ENDBRANCH  23  27
ENDBRANCH  17  21
ENDBRANCH   1   9
TORSDOF 4
ENDMDL
MODEL 8
REMARK minimizedAffinity -9.21131516
REMARK  4 active torsions:
REMARK  status: ('A' for Active; 'I' for Inactive)
REMARK    1  A    between atoms: C2_2  and  N1_3 
REMARK    2  A    between atoms: C2_2  and  C17_26 
REMARK       I    between atoms: N1_3  and  C3_4 
REMARK       I    between atoms: C3_4  and  N2_6 
REMARK    3  A    between atoms: N2_6  and  C4_7 
REMARK    4  A    between atoms: C7_13  and  C8_14 
ROOT
HETATM    1  C8  UNL     1      -2.196  50.269 -25.870  1.00  0.00    -0.007 A 
HETATM    2  C9  UNL     1      -2.531  50.828 -27.112  1.00  0.00     0.015 A 
HETATM    3  C10 UNL     1      -3.397  50.154 -27.982  1.00  0.00     0.023 A 
HETATM    4  C11 UNL     1      -3.941  48.918 -27.616  1.00  0.00     0.044 A 
HETATM    5  C12 UNL     1      -4.829  48.230 -28.508  1.00  0.00     0.099 C 
HETATM    6  N5  UNL     1      -5.545  47.676 -29.233  1.00  0.00    -0.191 NA
HETATM    7  C13 UNL     1      -3.620  48.360 -26.376  1.00  0.00     0.023 A 
HETATM    8  C14 UNL     1      -2.756  49.035 -25.507  1.00  0.00     0.015 A 
ENDROOT
BRANCH   1   9
HETATM    9  C7  UNL     1      -1.292  50.961 -24.950  1.00  0.00     0.072 A 
HETATM   10  N4  UNL     1      -0.256  51.675 -25.420  1.00  0.00    -0.299 N 
HETATM   11  N3  UNL     1       0.355  52.142 -24.321  1.00  0.00    -0.299 N 
ATOM     12  H4  UNL     1       0.008  51.829 -26.393  1.00  0.00     0.187 HD
HETATM   13  C6  UNL     1      -0.251  51.785 -23.150  1.00  0.00     0.065 A 
HETATM   14  H8  UNL     1       1.187  52.711 -24.436  1.00  0.00     0.187 HD
HETATM   15  C5  UNL     1       0.055  52.070 -21.820  1.00  0.00     0.080 A 
HETATM   16  C15 UNL     1      -1.345  51.016 -23.524  1.00  0.00     0.036 A 
HETATM   17  C4  UNL     1      -0.822  51.537 -20.884  1.00  0.00     0.111 A 
HETATM   18  N6  UNL     1      -1.903  50.789 -21.211  1.00  0.00    -0.351 N 
HETATM   19  C16 UNL     1      -2.179  50.529 -22.515  1.00  0.00     0.105 A 
ATOM     20  H6  UNL     1      -2.508  50.420 -20.478  1.00  0.00     0.166 HD
BRANCH  17  21
HETATM   21  N2  UNL     1      -0.679  51.709 -19.507  1.00  0.00    -0.295 N 
HETATM   22  C3  UNL     1      -0.560  50.749 -18.538  1.00  0.00     0.322 C 
HETATM   23  N1  UNL     1      -0.472  51.313 -17.286  1.00  0.00    -0.335 N 
HETATM   24  O1  UNL     1      -0.523  49.539 -18.716  1.00  0.00    -0.247 OA
HETATM   25  H5  UNL     1      -0.816  52.255 -17.174  1.00  0.00     0.165 HD
HETATM   26  H6  UNL     1      -0.541  52.674 -19.253  1.00  0.00     0.172 HD
BRANCH  23  27
HETATM   27  C2  UNL     1      -0.393  50.496 -16.086  1.00  0.00     0.115 C 
HETATM   28  C1  UNL     1      -1.541  50.811 -15.120  1.00  0.00     0.037 C 
BRANCH  27  29
HETATM   29  C17 UNL     1       0.983  50.662 -15.467  1.00  0.00    -0.034 A 
HETATM   30  C18 UNL     1       1.417  49.894 -14.373  1.00  0.00     0.009 A 
HETATM   31  C19 UNL     1       2.681  50.096 -13.812  1.00  0.00     0.002 A 
HETATM   32  C20 UNL     1       3.527  51.076 -14.328  1.00  0.00     0.024 A 
HETATM   33  C21 UNL     1       3.103  51.855 -15.402  1.00  0.00     0.034 A 
HETATM   34 CL1  UNL     1       4.141  53.074 -16.035  1.00  0.00    -0.084 Cl
HETATM   35  C22 UNL     1       1.843  51.657 -15.966  1.00  0.00     0.033 A 
ENDBRANCH  27  29
ENDBRANCH  23  27
ENDBRANCH  17  21
ENDBRANCH   1   9
TORSDOF 4
ENDMDL
MODEL 9
REMARK minimizedAffinity -9.15321922
REMARK  4 active torsions:
REMARK  status: ('A' for Active; 'I' for Inactive)
REMARK    1  A    between atoms: C2_2  and  N1_3 
REMARK    2  A    between atoms: C2_2  and  C17_26 
REMARK       I    between atoms: N1_3  and  C3_4 
REMARK       I    between atoms: C3_4  and  N2_6 
REMARK    3  A    between atoms: N2_6  and  C4_7 
REMARK    4  A    between atoms: C7_13  and  C8_14 
ROOT
HETATM    1  C8  UNL     1      -0.850  51.185 -23.152  1.00  0.00    -0.007 A 
HETATM    2  C9  UNL     1      -1.203  50.305 -22.120  1.00  0.00     0.015 A 
HETATM    3  C10 UNL     1      -0.871  50.599 -20.792  1.00  0.00     0.023 A 
HETATM    4  C11 UNL     1      -0.188  51.780 -20.483  1.00  0.00     0.044 A 
HETATM    5  C12 UNL     1       0.151  52.080 -19.122  1.00  0.00     0.099 C 
HETATM    6  N5  UNL     1       0.425  52.319 -18.020  1.00  0.00    -0.191 NA
HETATM    7  C13 UNL     1       0.159  52.667 -21.505  1.00  0.00     0.023 A 
HETATM    8  C14 UNL     1      -0.175  52.372 -22.831  1.00  0.00     0.015 A 
ENDROOT
BRANCH   1   9
HETATM    9  C7  UNL     1      -1.190  50.891 -24.545  1.00  0.00     0.072 A 
HETATM   10  N4  UNL     1      -0.433  51.368 -25.548  1.00  0.00    -0.299 N 
HETATM   11  N3  UNL     1      -1.038  50.930 -26.662  1.00  0.00    -0.299 N 
ATOM     12  H4  UNL     1       0.412  51.935 -25.478  1.00  0.00     0.187 HD
HETATM   13  C6  UNL     1      -2.146  50.165 -26.432  1.00  0.00     0.065 A 
HETATM   14  H8  UNL     1      -0.639  51.183 -27.559  1.00  0.00     0.187 HD
HETATM   15  C5  UNL     1      -3.029  49.523 -27.300  1.00  0.00     0.080 A 
HETATM   16  C15 UNL     1      -2.272  50.108 -25.051  1.00  0.00     0.036 A 
HETATM   17  C4  UNL     1      -4.048  48.806 -26.684  1.00  0.00     0.111 A 
HETATM   18  N6  UNL     1      -4.198  48.723 -25.341  1.00  0.00    -0.351 N 
HETATM   19  C16 UNL     1      -3.321  49.356 -24.519  1.00  0.00     0.105 A 
ATOM     20  H6  UNL     1      -4.970  48.186 -24.947  1.00  0.00     0.166 HD
BRANCH  17  21
HETATM   21  N2  UNL     1      -5.029  48.104 -27.384  1.00  0.00    -0.295 N 
HETATM   22  C3  UNL     1      -5.291  48.120 -28.728  1.00  0.00     0.322 C 
HETATM   23  N1  UNL     1      -6.366  47.317 -29.036  1.00  0.00    -0.335 N 
HETATM   24  O1  UNL     1      -4.672  48.742 -29.581  1.00  0.00    -0.247 OA
HETATM   25  H5  UNL     1      -7.007  47.093 -28.291  1.00  0.00     0.165 HD
HETATM   26  H6  UNL     1      -5.508  47.434 -26.805  1.00  0.00     0.172 HD
BRANCH  23  27
HETATM   27  C2  UNL     1      -6.872  47.210 -30.394  1.00  0.00     0.115 C 
HETATM   28  C1  UNL     1      -8.405  47.186 -30.417  1.00  0.00     0.037 C 
BRANCH  27  29
HETATM   29  C17 UNL     1      -6.237  46.005 -31.064  1.00  0.00    -0.034 A 
HETATM   30  C18 UNL     1      -5.067  46.100 -31.836  1.00  0.00     0.009 A 
HETATM   31  C19 UNL     1      -4.528  44.972 -32.461  1.00  0.00     0.002 A 
HETATM   32  C20 UNL     1      -5.155  43.734 -32.333  1.00  0.00     0.024 A 
HETATM   33  C21 UNL     1      -6.323  43.629 -31.584  1.00  0.00     0.034 A 
HETATM   34 CL1  UNL     1      -7.108  42.105 -31.432  1.00  0.00    -0.084 Cl
HETATM   35  C22 UNL     1      -6.866  44.752 -30.957  1.00  0.00     0.033 A 
ENDBRANCH  27  29
ENDBRANCH  23  27
ENDBRANCH  17  21
ENDBRANCH   1   9
TORSDOF 4
ENDMDL
