MODEL 1
REMARK minimizedAffinity -9.3413372
REMARK  6 active torsions:
REMARK  status: ('A' for Active; 'I' for Inactive)
REMARK    1  A    between atoms: O1_2  and  C2_3 
REMARK    2  A    between atoms: C5_6  and  C6_7 
REMARK    3  A    between atoms: C6_7  and  N1_8 
REMARK       I    between atoms: N1_8  and  C7_9 
REMARK       I    between atoms: C7_9  and  N2_11 
REMARK    4  A    between atoms: N2_11  and  C8_12 
REMARK    5  A    between atoms: C11_18  and  C12_19 
REMARK    6  A    between atoms: C21_31  and  O3_32 
ROOT
HETATM    1  C8  UNL     1      -2.342  51.248 -26.720  1.00  0.00     0.111 A 
HETATM    2  C9  UNL     1      -1.285  52.068 -27.093  1.00  0.00     0.080 A 
HETATM    3  C10 UNL     1      -0.508  52.550 -26.041  1.00  0.00     0.065 A 
HETATM    4  N3  UNL     1       0.581  53.374 -26.016  1.00  0.00    -0.299 N 
HETATM    5  N4  UNL     1       1.056  53.619 -24.785  1.00  0.00    -0.299 N 
ATOM      6  H4  UNL     1       1.844  54.213 -24.527  1.00  0.00     0.187 HD
HETATM    7  C11 UNL     1       0.260  52.906 -23.970  1.00  0.00     0.072 A 
HETATM    8  C18 UNL     1      -0.757  52.232 -24.713  1.00  0.00     0.036 A 
HETATM    9  C19 UNL     1      -1.850  51.410 -24.429  1.00  0.00     0.105 A 
HETATM   10  N5  UNL     1      -2.622  50.925 -25.436  1.00  0.00    -0.351 N 
ATOM     11  H5  UNL     1      -3.414  50.318 -25.223  1.00  0.00     0.166 HD
HETATM   12  H11 UNL     1       1.047  53.807 -26.805  1.00  0.00     0.187 HD
ENDROOT
BRANCH   1  13
HETATM   13  N2  UNL     1      -3.222  50.661 -27.630  1.00  0.00    -0.295 N 
HETATM   14  C7  UNL     1      -3.695  49.376 -27.652  1.00  0.00     0.322 C 
HETATM   15  N1  UNL     1      -4.577  49.191 -28.695  1.00  0.00    -0.339 N 
HETATM   16  O2  UNL     1      -3.390  48.478 -26.878  1.00  0.00    -0.247 OA
HETATM   17  H8  UNL     1      -5.059  50.012 -29.023  1.00  0.00     0.164 HD
HETATM   18  H9  UNL     1      -3.442  51.271 -28.401  1.00  0.00     0.172 HD
BRANCH  15  19
HETATM   19  C6  UNL     1      -5.277  47.936 -28.868  1.00  0.00     0.163 C 
BRANCH  19  20
HETATM   20  C5  UNL     1      -5.984  47.892 -30.200  1.00  0.00    -0.038 A 
HETATM   21  C4  UNL     1      -7.380  47.915 -30.271  1.00  0.00     0.012 A 
HETATM   22  C3  UNL     1      -8.029  47.849 -31.507  1.00  0.00     0.040 A 
HETATM   23  C2  UNL     1      -7.291  47.750 -32.691  1.00  0.00     0.101 A 
HETATM   24  C21 UNL     1      -5.884  47.717 -32.632  1.00  0.00     0.102 A 
HETATM   25  C20 UNL     1      -5.244  47.788 -31.388  1.00  0.00     0.048 A 
BRANCH  23  26
HETATM   26  O1  UNL     1      -7.844  47.677 -33.947  1.00  0.00    -0.353 OA
HETATM   27  C1  UNL     1      -8.553  46.495 -34.288  1.00  0.00     0.210 C 
ENDBRANCH  23  26
BRANCH  24  28
HETATM   28  O3  UNL     1      -5.229  47.613 -33.834  1.00  0.00    -0.353 OA
HETATM   29  C22 UNL     1      -3.809  47.644 -33.815  1.00  0.00     0.210 C 
ENDBRANCH  24  28
ENDBRANCH  19  20
ENDBRANCH  15  19
ENDBRANCH   1  13
BRANCH   7  30
HETATM   30  C12 UNL     1       0.487  52.900 -22.524  1.00  0.00    -0.007 A 
HETATM   31  C13 UNL     1       0.032  51.837 -21.727  1.00  0.00     0.017 A 
HETATM   32  C14 UNL     1       0.257  51.846 -20.348  1.00  0.00     0.043 A 
HETATM   33  C15 UNL     1       0.938  52.909 -19.768  1.00  0.00     0.116 A 
HETATM   34  F1  UNL     1       1.152  52.911 -18.446  1.00  0.00    -0.206 F 
HETATM   35  C16 UNL     1       1.407  53.963 -20.540  1.00  0.00     0.043 A 
HETATM   36  C17 UNL     1       1.186  53.957 -21.919  1.00  0.00     0.017 A 
ENDBRANCH   7  30
TORSDOF 6
ENDMDL
MODEL 2
REMARK minimizedAffinity -9.28907776
REMARK  6 active torsions:
REMARK  status: ('A' for Active; 'I' for Inactive)
REMARK    1  A    between atoms: O1_2  and  C2_3 
REMARK    2  A    between atoms: C5_6  and  C6_7 
REMARK    3  A    between atoms: C6_7  and  N1_8 
REMARK       I    between atoms: N1_8  and  C7_9 
REMARK       I    between atoms: C7_9  and  N2_11 
REMARK    4  A    between atoms: N2_11  and  C8_12 
REMARK    5  A    between atoms: C11_18  and  C12_19 
REMARK    6  A    between atoms: C21_31  and  O3_32 
ROOT
HETATM    1  C8  UNL     1       0.378  52.478 -19.791  1.00  0.00     0.111 A 
HETATM    2  C9  UNL     1       0.967  53.687 -20.139  1.00  0.00     0.080 A 
HETATM    3  C10 UNL     1       1.117  53.901 -21.509  1.00  0.00     0.065 A 
HETATM    4  N3  UNL     1       1.651  54.941 -22.215  1.00  0.00    -0.299 N 
HETATM    5  N4  UNL     1       1.621  54.773 -23.546  1.00  0.00    -0.299 N 
ATOM      6  H4  UNL     1       1.976  55.405 -24.264  1.00  0.00     0.187 HD
HETATM    7  C11 UNL     1       1.019  53.584 -23.722  1.00  0.00     0.072 A 
HETATM    8  C18 UNL     1       0.702  52.984 -22.465  1.00  0.00     0.036 A 
HETATM    9  C19 UNL     1       0.132  51.788 -22.023  1.00  0.00     0.105 A 
HETATM   10  N5  UNL     1      -0.028  51.555 -20.694  1.00  0.00    -0.351 N 
ATOM     11  H5  UNL     1      -0.454  50.684 -20.377  1.00  0.00     0.166 HD
HETATM   12  H11 UNL     1       2.058  55.793 -21.848  1.00  0.00     0.187 HD
ENDROOT
BRANCH   1  13
HETATM   13  N2  UNL     1       0.134  52.091 -18.473  1.00  0.00    -0.295 N 
HETATM   14  C7  UNL     1       0.955  52.206 -17.384  1.00  0.00     0.322 C 
HETATM   15  N1  UNL     1       0.335  51.738 -16.245  1.00  0.00    -0.339 N 
HETATM   16  O2  UNL     1       2.098  52.646 -17.380  1.00  0.00    -0.247 OA
HETATM   17  H8  UNL     1      -0.672  51.765 -16.241  1.00  0.00     0.164 HD
HETATM   18  H9  UNL     1      -0.734  51.588 -18.375  1.00  0.00     0.172 HD
BRANCH  15  19
HETATM   19  C6  UNL     1       0.974  51.840 -14.950  1.00  0.00     0.163 C 
BRANCH  19  20
HETATM   20  C5  UNL     1      -0.049  51.999 -13.854  1.00  0.00    -0.038 A 
HETATM   21  C4  UNL     1      -1.351  51.514 -14.015  1.00  0.00     0.012 A 
HETATM   22  C3  UNL     1      -2.303  51.686 -13.005  1.00  0.00     0.040 A 
HETATM   23  C2  UNL     1      -1.968  52.354 -11.822  1.00  0.00     0.101 A 
HETATM   24  C21 UNL     1      -0.663  52.854 -11.653  1.00  0.00     0.102 A 
HETATM   25  C20 UNL     1       0.284  52.672 -12.669  1.00  0.00     0.048 A 
BRANCH  23  26
HETATM   26  O1  UNL     1      -2.838  52.570 -10.781  1.00  0.00    -0.353 OA
HETATM   27  C1  UNL     1      -3.762  53.642 -10.905  1.00  0.00     0.210 C 
ENDBRANCH  23  26
BRANCH  24  28
HETATM   28  O3  UNL     1      -0.412  53.503 -10.468  1.00  0.00    -0.353 OA
HETATM   29  C22 UNL     1      -0.094  54.886 -10.530  1.00  0.00     0.210 C 
ENDBRANCH  24  28
ENDBRANCH  19  20
ENDBRANCH  15  19
ENDBRANCH   1  13
BRANCH   7  30
HETATM   30  C12 UNL     1       0.778  53.061 -25.067  1.00  0.00    -0.007 A 
HETATM   31  C13 UNL     1      -0.051  53.745 -25.970  1.00  0.00     0.017 A 
HETATM   32  C14 UNL     1      -0.271  53.233 -27.251  1.00  0.00     0.043 A 
HETATM   33  C15 UNL     1       0.340  52.044 -27.631  1.00  0.00     0.116 A 
HETATM   34  F1  UNL     1       0.128  51.559 -28.861  1.00  0.00    -0.206 F 
HETATM   35  C16 UNL     1       1.174  51.359 -26.758  1.00  0.00     0.043 A 
HETATM   36  C17 UNL     1       1.397  51.869 -25.477  1.00  0.00     0.017 A 
ENDBRANCH   7  30
TORSDOF 6
ENDMDL
MODEL 3
REMARK minimizedAffinity -9.17154789
REMARK  6 active torsions:
REMARK  status: ('A' for Active; 'I' for Inactive)
REMARK    1  A    between atoms: O1_2  and  C2_3 
REMARK    2  A    between atoms: C5_6  and  C6_7 
REMARK    3  A    between atoms: C6_7  and  N1_8 
REMARK       I    between atoms: N1_8  and  C7_9 
REMARK       I    between atoms: C7_9  and  N2_11 
REMARK    4  A    between atoms: N2_11  and  C8_12 
REMARK    5  A    between atoms: C11_18  and  C12_19 
REMARK    6  A    between atoms: C21_31  and  O3_32 
ROOT
HETATM    1  C8  UNL     1      -2.267  51.133 -26.680  1.00  0.00     0.111 A 
HETATM    2  C9  UNL     1      -1.220  51.960 -27.064  1.00  0.00     0.080 A 
HETATM    3  C10 UNL     1      -0.452  52.471 -26.018  1.00  0.00     0.065 A 
HETATM    4  N3  UNL     1       0.626  53.310 -26.004  1.00  0.00    -0.299 N 
HETATM    5  N4  UNL     1       1.093  53.582 -24.776  1.00  0.00    -0.299 N 
ATOM      6  H4  UNL     1       1.872  54.191 -24.526  1.00  0.00     0.187 HD
HETATM    7  C11 UNL     1       0.304  52.873 -23.951  1.00  0.00     0.072 A 
HETATM    8  C18 UNL     1      -0.701  52.173 -24.685  1.00  0.00     0.036 A 
HETATM    9  C19 UNL     1      -1.784  51.341 -24.391  1.00  0.00     0.105 A 
HETATM   10  N5  UNL     1      -2.546  50.829 -25.391  1.00  0.00    -0.351 N 
ATOM     11  H5  UNL     1      -3.330  50.214 -25.170  1.00  0.00     0.166 HD
HETATM   12  H11 UNL     1       1.088  53.735 -26.799  1.00  0.00     0.187 HD
ENDROOT
BRANCH   1  13
HETATM   13  N2  UNL     1      -3.135  50.518 -27.582  1.00  0.00    -0.295 N 
HETATM   14  C7  UNL     1      -3.737  49.292 -27.487  1.00  0.00     0.322 C 
HETATM   15  N1  UNL     1      -4.557  49.057 -28.570  1.00  0.00    -0.339 N 
HETATM   16  O2  UNL     1      -3.584  48.477 -26.586  1.00  0.00    -0.247 OA
HETATM   17  H8  UNL     1      -4.926  49.871 -29.035  1.00  0.00     0.164 HD
HETATM   18  H9  UNL     1      -3.235  51.041 -28.437  1.00  0.00     0.172 HD
BRANCH  15  19
HETATM   19  C6  UNL     1      -5.370  47.862 -28.647  1.00  0.00     0.163 C 
BRANCH  19  20
HETATM   20  C5  UNL     1      -6.161  47.830 -29.930  1.00  0.00    -0.038 A 
HETATM   21  C4  UNL     1      -5.527  47.615 -31.157  1.00  0.00     0.012 A 
HETATM   22  C3  UNL     1      -6.263  47.611 -32.347  1.00  0.00     0.040 A 
HETATM   23  C2  UNL     1      -7.644  47.831 -32.326  1.00  0.00     0.101 A 
HETATM   24  C21 UNL     1      -8.293  48.057 -31.097  1.00  0.00     0.102 A 
HETATM   25  C20 UNL     1      -7.547  48.055 -29.911  1.00  0.00     0.048 A 
BRANCH  23  26
HETATM   26  O1  UNL     1      -8.444  47.847 -33.443  1.00  0.00    -0.353 OA
HETATM   27  C1  UNL     1      -7.933  47.255 -34.628  1.00  0.00     0.210 C 
ENDBRANCH  23  26
BRANCH  24  28
HETATM   28  O3  UNL     1      -9.648  48.271 -31.157  1.00  0.00    -0.353 OA
HETATM   29  C22 UNL     1     -10.412  47.990 -29.993  1.00  0.00     0.210 C 
ENDBRANCH  24  28
ENDBRANCH  19  20
ENDBRANCH  15  19
ENDBRANCH   1  13
BRANCH   7  30
HETATM   30  C12 UNL     1       0.526  52.895 -22.505  1.00  0.00    -0.007 A 
HETATM   31  C13 UNL     1       1.221  53.952 -21.897  1.00  0.00     0.017 A 
HETATM   32  C14 UNL     1       1.425  53.959 -20.515  1.00  0.00     0.043 A 
HETATM   33  C15 UNL     1       0.931  52.915 -19.741  1.00  0.00     0.116 A 
HETATM   34  F1  UNL     1       1.127  52.927 -18.417  1.00  0.00    -0.206 F 
HETATM   35  C16 UNL     1       0.230  51.866 -20.321  1.00  0.00     0.043 A 
HETATM   36  C17 UNL     1       0.024  51.858 -21.703  1.00  0.00     0.017 A 
ENDBRANCH   7  30
TORSDOF 6
ENDMDL
MODEL 4
REMARK minimizedAffinity -9.02468967
REMARK  6 active torsions:
REMARK  status: ('A' for Active; 'I' for Inactive)
REMARK    1  A    between atoms: O1_2  and  C2_3 
REMARK    2  A    between atoms: C5_6  and  C6_7 
REMARK    3  A    between atoms: C6_7  and  N1_8 
REMARK       I    between atoms: N1_8  and  C7_9 
REMARK       I    between atoms: C7_9  and  N2_11 
REMARK    4  A    between atoms: N2_11  and  C8_12 
REMARK    5  A    between atoms: C11_18  and  C12_19 
REMARK    6  A    between atoms: C21_31  and  O3_32 
ROOT
HETATM    1  C8  UNL     1       0.414  52.549 -19.833  1.00  0.00     0.111 A 
HETATM    2  C9  UNL     1       0.993  53.756 -20.203  1.00  0.00     0.080 A 
HETATM    3  C10 UNL     1       1.125  53.955 -21.577  1.00  0.00     0.065 A 
HETATM    4  N3  UNL     1       1.647  54.988 -22.301  1.00  0.00    -0.299 N 
HETATM    5  N4  UNL     1       1.601  54.805 -23.630  1.00  0.00    -0.299 N 
ATOM      6  H4  UNL     1       1.944  55.430 -24.359  1.00  0.00     0.187 HD
HETATM    7  C11 UNL     1       1.002  53.612 -23.784  1.00  0.00     0.072 A 
HETATM    8  C18 UNL     1       0.703  53.025 -22.516  1.00  0.00     0.036 A 
HETATM    9  C19 UNL     1       0.143  51.832 -22.053  1.00  0.00     0.105 A 
HETATM   10  N5  UNL     1       0.001  51.614 -20.720  1.00  0.00    -0.351 N 
ATOM     11  H5  UNL     1      -0.418  50.745 -20.388  1.00  0.00     0.166 HD
HETATM   12  H11 UNL     1       2.055  55.846 -21.949  1.00  0.00     0.187 HD
ENDROOT
BRANCH   1  13
HETATM   13  N2  UNL     1       0.187  52.176 -18.507  1.00  0.00    -0.295 N 
HETATM   14  C7  UNL     1       1.025  52.300 -17.431  1.00  0.00     0.322 C 
HETATM   15  N1  UNL     1       0.421  51.846 -16.279  1.00  0.00    -0.339 N 
HETATM   16  O2  UNL     1       2.169  52.736 -17.449  1.00  0.00    -0.247 OA
HETATM   17  H8  UNL     1      -0.587  51.877 -16.261  1.00  0.00     0.164 HD
HETATM   18  H9  UNL     1      -0.680  51.678 -18.391  1.00  0.00     0.172 HD
BRANCH  15  19
HETATM   19  C6  UNL     1       1.079  51.960 -14.995  1.00  0.00     0.163 C 
BRANCH  19  20
HETATM   20  C5  UNL     1       1.646  50.632 -14.560  1.00  0.00    -0.038 A 
HETATM   21  C4  UNL     1       1.001  49.436 -14.889  1.00  0.00     0.012 A 
HETATM   22  C3  UNL     1       1.518  48.209 -14.461  1.00  0.00     0.040 A 
HETATM   23  C2  UNL     1       2.685  48.161 -13.692  1.00  0.00     0.101 A 
HETATM   24  C21 UNL     1       3.339  49.360 -13.347  1.00  0.00     0.102 A 
HETATM   25  C20 UNL     1       2.814  50.583 -13.784  1.00  0.00     0.048 A 
BRANCH  23  26
HETATM   26  O1  UNL     1       3.262  47.004 -13.227  1.00  0.00    -0.353 OA
HETATM   27  C1  UNL     1       2.399  45.932 -12.876  1.00  0.00     0.210 C 
ENDBRANCH  23  26
BRANCH  24  28
HETATM   28  O3  UNL     1       4.475  49.234 -12.585  1.00  0.00    -0.353 OA
HETATM   29  C22 UNL     1       4.531  49.955 -11.363  1.00  0.00     0.210 C 
ENDBRANCH  24  28
ENDBRANCH  19  20
ENDBRANCH  15  19
ENDBRANCH   1  13
BRANCH   7  30
HETATM   30  C12 UNL     1       0.746  53.072 -25.120  1.00  0.00    -0.007 A 
HETATM   31  C13 UNL     1      -0.043  53.775 -26.044  1.00  0.00     0.017 A 
HETATM   32  C14 UNL     1      -0.277  53.246 -27.316  1.00  0.00     0.043 A 
HETATM   33  C15 UNL     1       0.279  52.022 -27.666  1.00  0.00     0.116 A 
HETATM   34  F1  UNL     1       0.054  51.521 -28.886  1.00  0.00    -0.206 F 
HETATM   35  C16 UNL     1       1.074  51.317 -26.771  1.00  0.00     0.043 A 
HETATM   36  C17 UNL     1       1.311  51.844 -25.500  1.00  0.00     0.017 A 
ENDBRANCH   7  30
TORSDOF 6
ENDMDL
MODEL 5
REMARK minimizedAffinity -8.99390793
REMARK  6 active torsions:
REMARK  status: ('A' for Active; 'I' for Inactive)
REMARK    1  A    between atoms: O1_2  and  C2_3 
REMARK    2  A    between atoms: C5_6  and  C6_7 
REMARK    3  A    between atoms: C6_7  and  N1_8 
REMARK       I    between atoms: N1_8  and  C7_9 
REMARK       I    between atoms: C7_9  and  N2_11 
REMARK    4  A    between atoms: N2_11  and  C8_12 
REMARK    5  A    between atoms: C11_18  and  C12_19 
REMARK    6  A    between atoms: C21_31  and  O3_32 
ROOT
HETATM    1  C8  UNL     1      -2.409  51.261 -26.636  1.00  0.00     0.111 A 
HETATM    2  C9  UNL     1      -1.352  52.076 -27.020  1.00  0.00     0.080 A 
HETATM    3  C10 UNL     1      -0.563  52.557 -25.975  1.00  0.00     0.065 A 
HETATM    4  N3  UNL     1       0.530  53.376 -25.961  1.00  0.00    -0.299 N 
HETATM    5  N4  UNL     1       1.016  53.620 -24.735  1.00  0.00    -0.299 N 
ATOM      6  H4  UNL     1       1.809  54.211 -24.484  1.00  0.00     0.187 HD
HETATM    7  C11 UNL     1       0.225  52.911 -23.912  1.00  0.00     0.072 A 
HETATM    8  C18 UNL     1      -0.801  52.240 -24.645  1.00  0.00     0.036 A 
HETATM    9  C19 UNL     1      -1.894  51.423 -24.350  1.00  0.00     0.105 A 
HETATM   10  N5  UNL     1      -2.678  50.940 -25.349  1.00  0.00    -0.351 N 
ATOM     11  H5  UNL     1      -3.470  50.336 -25.129  1.00  0.00     0.166 HD
HETATM   12  H11 UNL     1       0.989  53.807 -26.755  1.00  0.00     0.187 HD
ENDROOT
BRANCH   1  13
HETATM   13  N2  UNL     1      -3.299  50.676 -27.538  1.00  0.00    -0.295 N 
HETATM   14  C7  UNL     1      -3.606  49.351 -27.696  1.00  0.00     0.322 C 
HETATM   15  N1  UNL     1      -4.563  49.179 -28.673  1.00  0.00    -0.339 N 
HETATM   16  O2  UNL     1      -3.112  48.414 -27.083  1.00  0.00    -0.247 OA
HETATM   17  H8  UNL     1      -5.177  49.960 -28.840  1.00  0.00     0.164 HD
HETATM   18  H9  UNL     1      -3.674  51.342 -28.194  1.00  0.00     0.172 HD
BRANCH  15  19
HETATM   19  C6  UNL     1      -5.116  47.871 -28.955  1.00  0.00     0.163 C 
BRANCH  19  20
HETATM   20  C5  UNL     1      -6.567  47.800 -28.553  1.00  0.00    -0.038 A 
HETATM   21  C4  UNL     1      -6.931  47.543 -27.228  1.00  0.00     0.012 A 
HETATM   22  C3  UNL     1      -8.279  47.454 -26.866  1.00  0.00     0.040 A 
HETATM   23  C2  UNL     1      -9.283  47.612 -27.826  1.00  0.00     0.101 A 
HETATM   24  C21 UNL     1      -8.928  47.863 -29.166  1.00  0.00     0.102 A 
HETATM   25  C20 UNL     1      -7.575  47.955 -29.517  1.00  0.00     0.048 A 
BRANCH  23  26
HETATM   26  O1  UNL     1     -10.629  47.538 -27.562  1.00  0.00    -0.353 OA
HETATM   27  C1  UNL     1     -11.073  47.958 -26.280  1.00  0.00     0.210 C 
ENDBRANCH  23  26
BRANCH  24  28
HETATM   28  O3  UNL     1      -9.968  48.001 -30.052  1.00  0.00    -0.353 OA
HETATM   29  C22 UNL     1      -9.741  47.614 -31.400  1.00  0.00     0.210 C 
ENDBRANCH  24  28
ENDBRANCH  19  20
ENDBRANCH  15  19
ENDBRANCH   1  13
BRANCH   7  30
HETATM   30  C12 UNL     1       0.465  52.905 -22.468  1.00  0.00    -0.007 A 
HETATM   31  C13 UNL     1       1.138  53.967 -21.844  1.00  0.00     0.017 A 
HETATM   32  C14 UNL     1       1.360  53.946 -20.464  1.00  0.00     0.043 A 
HETATM   33  C15 UNL     1       0.905  52.871 -19.710  1.00  0.00     0.116 A 
HETATM   34  F1  UNL     1       1.117  52.857 -18.388  1.00  0.00    -0.206 F 
HETATM   35  C16 UNL     1       0.225  51.817 -20.306  1.00  0.00     0.043 A 
HETATM   36  C17 UNL     1       0.001  51.836 -21.685  1.00  0.00     0.017 A 
ENDBRANCH   7  30
TORSDOF 6
ENDMDL
MODEL 6
REMARK minimizedAffinity -8.77378654
REMARK  6 active torsions:
REMARK  status: ('A' for Active; 'I' for Inactive)
REMARK    1  A    between atoms: O1_2  and  C2_3 
REMARK    2  A    between atoms: C5_6  and  C6_7 
REMARK    3  A    between atoms: C6_7  and  N1_8 
REMARK       I    between atoms: N1_8  and  C7_9 
REMARK       I    between atoms: C7_9  and  N2_11 
REMARK    4  A    between atoms: N2_11  and  C8_12 
REMARK    5  A    between atoms: C11_18  and  C12_19 
REMARK    6  A    between atoms: C21_31  and  O3_32 
ROOT
HETATM    1  C8  UNL     1       0.973  53.126 -19.712  1.00  0.00     0.111 A 
HETATM    2  C9  UNL     1       1.509  54.213 -20.391  1.00  0.00     0.080 A 
HETATM    3  C10 UNL     1       1.338  54.193 -21.775  1.00  0.00     0.065 A 
HETATM    4  N3  UNL     1       1.730  55.060 -22.754  1.00  0.00    -0.299 N 
HETATM    5  N4  UNL     1       1.379  54.683 -23.993  1.00  0.00    -0.299 N 
ATOM      6  H4  UNL     1       1.578  55.163 -24.871  1.00  0.00     0.187 HD
HETATM    7  C11 UNL     1       0.707  53.533 -23.817  1.00  0.00     0.072 A 
HETATM    8  C18 UNL     1       0.673  53.169 -22.436  1.00  0.00     0.036 A 
HETATM    9  C19 UNL     1       0.178  52.109 -21.674  1.00  0.00     0.105 A 
HETATM   10  N5  UNL     1       0.329  52.105 -20.325  1.00  0.00    -0.351 N 
ATOM     11  H5  UNL     1      -0.044  51.332 -19.772  1.00  0.00     0.166 HD
HETATM   12  H11 UNL     1       2.245  55.926 -22.643  1.00  0.00     0.187 HD
ENDROOT
BRANCH   1  13
HETATM   13  N2  UNL     1       1.033  52.976 -18.326  1.00  0.00    -0.295 N 
HETATM   14  C7  UNL     1       0.715  51.877 -17.573  1.00  0.00     0.322 C 
HETATM   15  N1  UNL     1       0.943  52.113 -16.234  1.00  0.00    -0.339 N 
HETATM   16  O2  UNL     1       0.273  50.815 -17.991  1.00  0.00    -0.247 OA
HETATM   17  H8  UNL     1       1.637  52.810 -16.015  1.00  0.00     0.164 HD
HETATM   18  H9  UNL     1       1.259  53.837 -17.856  1.00  0.00     0.172 HD
BRANCH  15  19
HETATM   19  C6  UNL     1       0.766  51.066 -15.250  1.00  0.00     0.163 C 
BRANCH  19  20
HETATM   20  C5  UNL     1       0.043  51.586 -14.033  1.00  0.00    -0.038 A 
HETATM   21  C4  UNL     1       0.732  52.278 -13.032  1.00  0.00     0.012 A 
HETATM   22  C3  UNL     1       0.060  52.736 -11.894  1.00  0.00     0.040 A 
HETATM   23  C2  UNL     1      -1.309  52.502 -11.737  1.00  0.00     0.101 A 
HETATM   24  C21 UNL     1      -2.012  51.799 -12.735  1.00  0.00     0.102 A 
HETATM   25  C20 UNL     1      -1.331  51.348 -13.873  1.00  0.00     0.048 A 
BRANCH  23  26
HETATM   26  O1  UNL     1      -2.048  52.911 -10.654  1.00  0.00    -0.353 OA
HETATM   27  C1  UNL     1      -2.175  54.309 -10.434  1.00  0.00     0.210 C 
ENDBRANCH  23  26
BRANCH  24  28
HETATM   28  O3  UNL     1      -3.353  51.602 -12.508  1.00  0.00    -0.353 OA
HETATM   29  C22 UNL     1      -3.730  50.479 -11.724  1.00  0.00     0.210 C 
ENDBRANCH  24  28
ENDBRANCH  19  20
ENDBRANCH  15  19
ENDBRANCH   1  13
BRANCH   7  30
HETATM   30  C12 UNL     1       0.134  52.821 -24.960  1.00  0.00    -0.007 A 
HETATM   31  C13 UNL     1      -0.247  51.474 -24.855  1.00  0.00     0.017 A 
HETATM   32  C14 UNL     1      -0.793  50.808 -25.955  1.00  0.00     0.043 A 
HETATM   33  C15 UNL     1      -0.963  51.487 -27.156  1.00  0.00     0.116 A 
HETATM   34  F1  UNL     1      -1.488  50.846 -28.206  1.00  0.00    -0.206 F 
HETATM   35  C16 UNL     1      -0.604  52.824 -27.277  1.00  0.00     0.043 A 
HETATM   36  C17 UNL     1      -0.060  53.492 -26.178  1.00  0.00     0.017 A 
ENDBRANCH   7  30
TORSDOF 6
ENDMDL
MODEL 7
REMARK minimizedAffinity -8.6420517
REMARK  6 active torsions:
REMARK  status: ('A' for Active; 'I' for Inactive)
REMARK    1  A    between atoms: O1_2  and  C2_3 
REMARK    2  A    between atoms: C5_6  and  C6_7 
REMARK    3  A    between atoms: C6_7  and  N1_8 
REMARK       I    between atoms: N1_8  and  C7_9 
REMARK       I    between atoms: C7_9  and  N2_11 
REMARK    4  A    between atoms: N2_11  and  C8_12 
REMARK    5  A    between atoms: C11_18  and  C12_19 
REMARK    6  A    between atoms: C21_31  and  O3_32 
ROOT
HETATM    1  C8  UNL     1       0.310  52.649 -19.489  1.00  0.00     0.111 A 
HETATM    2  C9  UNL     1      -0.879  51.998 -19.789  1.00  0.00     0.080 A 
HETATM    3  C10 UNL     1      -1.134  51.823 -21.149  1.00  0.00     0.065 A 
HETATM    4  N3  UNL     1      -2.182  51.253 -21.814  1.00  0.00    -0.299 N 
HETATM    5  N4  UNL     1      -2.066  51.283 -23.150  1.00  0.00    -0.299 N 
ATOM      6  H4  UNL     1      -2.728  50.935 -23.843  1.00  0.00     0.187 HD
HETATM    7  C11 UNL     1      -0.880  51.876 -23.371  1.00  0.00     0.072 A 
HETATM    8  C18 UNL     1      -0.263  52.256 -22.140  1.00  0.00     0.036 A 
HETATM    9  C19 UNL     1       0.904  52.913 -21.746  1.00  0.00     0.105 A 
HETATM   10  N5  UNL     1       1.177  53.094 -20.428  1.00  0.00    -0.351 N 
ATOM     11  H5  UNL     1       2.037  53.567 -20.146  1.00  0.00     0.166 HD
HETATM   12  H11 UNL     1      -3.011  50.830 -21.413  1.00  0.00     0.187 HD
ENDROOT
BRANCH   1  13
HETATM   13  N2  UNL     1       0.743  52.904 -18.187  1.00  0.00    -0.295 N 
HETATM   14  C7  UNL     1       0.845  52.032 -17.136  1.00  0.00     0.322 C 
HETATM   15  N1  UNL     1       1.350  52.662 -16.019  1.00  0.00    -0.339 N 
HETATM   16  O2  UNL     1       0.529  50.849 -17.142  1.00  0.00    -0.247 OA
HETATM   17  H8  UNL     1       1.927  53.472 -16.184  1.00  0.00     0.164 HD
HETATM   18  H9  UNL     1       0.906  53.884 -18.022  1.00  0.00     0.172 HD
BRANCH  15  19
HETATM   19  C6  UNL     1       1.633  51.922 -14.807  1.00  0.00     0.163 C 
BRANCH  19  20
HETATM   20  C5  UNL     1       0.490  52.029 -13.830  1.00  0.00    -0.038 A 
HETATM   21  C4  UNL     1      -0.764  51.492 -14.133  1.00  0.00     0.012 A 
HETATM   22  C3  UNL     1      -1.827  51.616 -13.233  1.00  0.00     0.040 A 
HETATM   23  C2  UNL     1      -1.652  52.287 -12.018  1.00  0.00     0.101 A 
HETATM   24  C21 UNL     1      -0.395  52.840 -11.705  1.00  0.00     0.102 A 
HETATM   25  C20 UNL     1       0.664  52.706 -12.612  1.00  0.00     0.048 A 
BRANCH  23  26
HETATM   26  O1  UNL     1      -2.638  52.459 -11.077  1.00  0.00    -0.353 OA
HETATM   27  C1  UNL     1      -3.749  53.271 -11.428  1.00  0.00     0.210 C 
ENDBRANCH  23  26
BRANCH  24  28
HETATM   28  O3  UNL     1      -0.302  53.488 -10.498  1.00  0.00    -0.353 OA
HETATM   29  C22 UNL     1      -0.285  54.909 -10.513  1.00  0.00     0.210 C 
ENDBRANCH  24  28
ENDBRANCH  19  20
ENDBRANCH  15  19
ENDBRANCH   1  13
BRANCH   7  30
HETATM   30  C12 UNL     1      -0.384  52.067 -24.735  1.00  0.00    -0.007 A 
HETATM   31  C13 UNL     1      -0.185  53.355 -25.256  1.00  0.00     0.017 A 
HETATM   32  C14 UNL     1       0.290  53.521 -26.560  1.00  0.00     0.043 A 
HETATM   33  C15 UNL     1       0.570  52.404 -27.338  1.00  0.00     0.116 A 
HETATM   34  F1  UNL     1       1.027  52.569 -28.586  1.00  0.00    -0.206 F 
HETATM   35  C16 UNL     1       0.392  51.122 -26.837  1.00  0.00     0.043 A 
HETATM   36  C17 UNL     1      -0.080  50.953 -25.533  1.00  0.00     0.017 A 
ENDBRANCH   7  30
TORSDOF 6
ENDMDL
MODEL 8
REMARK minimizedAffinity -8.59428596
REMARK  6 active torsions:
REMARK  status: ('A' for Active; 'I' for Inactive)
REMARK    1  A    between atoms: O1_2  and  C2_3 
REMARK    2  A    between atoms: C5_6  and  C6_7 
REMARK    3  A    between atoms: C6_7  and  N1_8 
REMARK       I    between atoms: N1_8  and  C7_9 
REMARK       I    between atoms: C7_9  and  N2_11 
REMARK    4  A    between atoms: N2_11  and  C8_12 
REMARK    5  A    between atoms: C11_18  and  C12_19 
REMARK    6  A    between atoms: C21_31  and  O3_32 
ROOT
HETATM    1  C8  UNL     1       0.533  52.640 -19.479  1.00  0.00     0.111 A 
HETATM    2  C9  UNL     1       0.996  53.395 -20.548  1.00  0.00     0.080 A 
HETATM    3  C10 UNL     1       0.572  52.967 -21.806  1.00  0.00     0.065 A 
HETATM    4  N3  UNL     1       0.825  53.438 -23.062  1.00  0.00    -0.299 N 
HETATM    5  N4  UNL     1       0.230  52.740 -24.041  1.00  0.00    -0.299 N 
ATOM      6  H4  UNL     1       0.291  52.898 -25.047  1.00  0.00     0.187 HD
HETATM    7  C11 UNL     1      -0.463  51.785 -23.398  1.00  0.00     0.072 A 
HETATM    8  C18 UNL     1      -0.262  51.872 -21.987  1.00  0.00     0.036 A 
HETATM    9  C19 UNL     1      -0.669  51.163 -20.854  1.00  0.00     0.105 A 
HETATM   10  N5  UNL     1      -0.271  51.560 -19.618  1.00  0.00    -0.351 N 
ATOM     11  H5  UNL     1      -0.579  51.044 -18.793  1.00  0.00     0.166 HD
HETATM   12  H11 UNL     1       1.402  54.231 -23.320  1.00  0.00     0.187 HD
ENDROOT
BRANCH   1  13
HETATM   13  N2  UNL     1       0.839  52.920 -18.147  1.00  0.00    -0.295 N 
HETATM   14  C7  UNL     1       0.941  52.050 -17.094  1.00  0.00     0.322 C 
HETATM   15  N1  UNL     1       1.298  52.712 -15.938  1.00  0.00    -0.339 N 
HETATM   16  O2  UNL     1       0.738  50.844 -17.128  1.00  0.00    -0.247 OA
HETATM   17  H8  UNL     1       1.809  53.573 -16.056  1.00  0.00     0.164 HD
HETATM   18  H9  UNL     1       0.898  53.909 -17.966  1.00  0.00     0.172 HD
BRANCH  15  19
HETATM   19  C6  UNL     1       1.555  51.988 -14.712  1.00  0.00     0.163 C 
BRANCH  19  20
HETATM   20  C5  UNL     1       0.362  52.045 -13.791  1.00  0.00    -0.038 A 
HETATM   21  C4  UNL     1       0.361  52.882 -12.671  1.00  0.00     0.012 A 
HETATM   22  C3  UNL     1      -0.739  52.911 -11.808  1.00  0.00     0.040 A 
HETATM   23  C2  UNL     1      -1.851  52.098 -12.049  1.00  0.00     0.101 A 
HETATM   24  C21 UNL     1      -1.858  51.244 -13.169  1.00  0.00     0.102 A 
HETATM   25  C20 UNL     1      -0.753  51.226 -14.030  1.00  0.00     0.048 A 
BRANCH  23  26
HETATM   26  O1  UNL     1      -2.971  52.060 -11.255  1.00  0.00    -0.353 OA
HETATM   27  C1  UNL     1      -3.813  53.204 -11.247  1.00  0.00     0.210 C 
ENDBRANCH  23  26
BRANCH  24  28
HETATM   28  O3  UNL     1      -2.981  50.472 -13.336  1.00  0.00    -0.353 OA
HETATM   29  C22 UNL     1      -2.818  49.193 -13.931  1.00  0.00     0.210 C 
ENDBRANCH  24  28
ENDBRANCH  19  20
ENDBRANCH  15  19
ENDBRANCH   1  13
BRANCH   7  30
HETATM   30  C12 UNL     1      -1.278  50.824 -24.144  1.00  0.00    -0.007 A 
HETATM   31  C13 UNL     1      -1.205  50.749 -25.543  1.00  0.00     0.017 A 
HETATM   32  C14 UNL     1      -1.989  49.827 -26.241  1.00  0.00     0.043 A 
HETATM   33  C15 UNL     1      -2.839  48.978 -25.542  1.00  0.00     0.116 A 
HETATM   34  F1  UNL     1      -3.587  48.094 -26.215  1.00  0.00    -0.206 F 
HETATM   35  C16 UNL     1      -2.917  49.028 -24.156  1.00  0.00     0.043 A 
HETATM   36  C17 UNL     1      -2.133  49.948 -23.456  1.00  0.00     0.017 A 
ENDBRANCH   7  30
TORSDOF 6
ENDMDL
MODEL 9
REMARK minimizedAffinity -8.48220539
REMARK  6 active torsions:
REMARK  status: ('A' for Active; 'I' for Inactive)
REMARK    1  A    between atoms: O1_2  and  C2_3 
REMARK    2  A    between atoms: C5_6  and  C6_7 
REMARK    3  A    between atoms: C6_7  and  N1_8 
REMARK       I    between atoms: N1_8  and  C7_9 
REMARK       I    between atoms: C7_9  and  N2_11 
REMARK    4  A    between atoms: N2_11  and  C8_12 
REMARK    5  A    between atoms: C11_18  and  C12_19 
REMARK    6  A    between atoms: C21_31  and  O3_32 
ROOT
HETATM    1  C8  UNL     1      -3.615  49.424 -27.026  1.00  0.00     0.111 A 
HETATM    2  C9  UNL     1      -3.836  48.620 -25.916  1.00  0.00     0.080 A 
HETATM    3  C10 UNL     1      -3.139  48.989 -24.766  1.00  0.00     0.065 A 
HETATM    4  N3  UNL     1      -3.092  48.445 -23.515  1.00  0.00    -0.299 N 
HETATM    5  N4  UNL     1      -2.282  49.093 -22.665  1.00  0.00    -0.299 N 
ATOM      6  H4  UNL     1      -2.080  48.859 -21.693  1.00  0.00     0.187 HD
HETATM    7  C11 UNL     1      -1.795  50.121 -23.381  1.00  0.00     0.072 A 
HETATM    8  C18 UNL     1      -2.289  50.086 -24.721  1.00  0.00     0.036 A 
HETATM    9  C19 UNL     1      -2.116  50.831 -25.890  1.00  0.00     0.105 A 
HETATM   10  N5  UNL     1      -2.786  50.494 -27.022  1.00  0.00    -0.351 N 
ATOM     11  H5  UNL     1      -2.663  51.047 -27.871  1.00  0.00     0.166 HD
HETATM   12  H11 UNL     1      -3.586  47.626 -23.178  1.00  0.00     0.187 HD
ENDROOT
BRANCH   1  13
HETATM   13  N2  UNL     1      -4.232  49.221 -28.261  1.00  0.00    -0.295 N 
HETATM   14  C7  UNL     1      -5.237  48.347 -28.579  1.00  0.00     0.322 C 
HETATM   15  N1  UNL     1      -5.600  48.471 -29.903  1.00  0.00    -0.339 N 
HETATM   16  O2  UNL     1      -5.761  47.538 -27.824  1.00  0.00    -0.247 OA
HETATM   17  H8  UNL     1      -5.427  49.367 -30.332  1.00  0.00     0.164 HD
HETATM   18  H9  UNL     1      -3.790  49.742 -29.002  1.00  0.00     0.172 HD
BRANCH  15  19
HETATM   19  C6  UNL     1      -6.706  47.713 -30.450  1.00  0.00     0.163 C 
BRANCH  19  20
HETATM   20  C5  UNL     1      -6.240  46.377 -30.969  1.00  0.00    -0.038 A 
HETATM   21  C4  UNL     1      -5.102  46.280 -31.776  1.00  0.00     0.012 A 
HETATM   22  C3  UNL     1      -4.689  45.040 -32.275  1.00  0.00     0.040 A 
HETATM   23  C2  UNL     1      -5.413  43.881 -31.980  1.00  0.00     0.101 A 
HETATM   24  C21 UNL     1      -6.565  43.967 -31.175  1.00  0.00     0.102 A 
HETATM   25  C20 UNL     1      -6.968  45.213 -30.677  1.00  0.00     0.048 A 
BRANCH  23  26
HETATM   26  O1  UNL     1      -5.083  42.625 -32.428  1.00  0.00    -0.353 OA
HETATM   27  C1  UNL     1      -5.490  42.265 -33.740  1.00  0.00     0.210 C 
ENDBRANCH  23  26
BRANCH  24  28
HETATM   28  O3  UNL     1      -7.226  42.788 -30.934  1.00  0.00    -0.353 OA
HETATM   29  C22 UNL     1      -8.623  42.855 -30.684  1.00  0.00     0.210 C 
ENDBRANCH  24  28
ENDBRANCH  19  20
ENDBRANCH  15  19
ENDBRANCH   1  13
BRANCH   7  30
HETATM   30  C12 UNL     1      -0.878  51.086 -22.774  1.00  0.00    -0.007 A 
HETATM   31  C13 UNL     1      -0.548  51.010 -21.412  1.00  0.00     0.017 A 
HETATM   32  C14 UNL     1       0.329  51.939 -20.847  1.00  0.00     0.043 A 
HETATM   33  C15 UNL     1       0.880  52.937 -21.641  1.00  0.00     0.116 A 
HETATM   34  F1  UNL     1       1.722  53.824 -21.096  1.00  0.00    -0.206 F 
HETATM   35  C16 UNL     1       0.577  53.022 -22.994  1.00  0.00     0.043 A 
HETATM   36  C17 UNL     1      -0.299  52.094 -23.561  1.00  0.00     0.017 A 
ENDBRANCH   7  30
TORSDOF 6
ENDMDL
