MODEL 1
REMARK minimizedAffinity -10.2444925
REMARK CNNscore 0.721841514
REMARK CNNaffinity 7.7481842
REMARK  7 active torsions:
REMARK  status: ('A' for Active; 'I' for Inactive)
REMARK       I    between atoms: C1_2  and  N1_3 
REMARK    1  A    between atoms: C1_2  and  C15_21 
REMARK    2  A    between atoms: N1_3  and  C2_4 
REMARK    3  A    between atoms: C6_11  and  C7_12 
REMARK    4  A    between atoms: N4_24  and  C18_25 
REMARK    5  A    between atoms: C18_25  and  C19_26 
REMARK       I    between atoms: C19_26  and  N5_28 
REMARK    6  A    between atoms: N6_31  and  C22_32 
REMARK    7  A    between atoms: C25_35  and  C26_36 
ROOT
HETATM    1  C15 UNL     1       1.234  52.201 -15.818  1.00  0.00     0.108 C 
HETATM    2  C16 UNL     1       2.741  52.208 -15.550  1.00  0.00     0.046 C 
HETATM    3  C17 UNL     1       2.930  51.405 -14.267  1.00  0.00     0.274 C 
HETATM    4  N4  UNL     1       1.609  51.333 -13.624  1.00  0.00     0.098 N 
HETATM    5  C34 UNL     1       0.678  51.255 -14.761  1.00  0.00     0.287 C 
ENDROOT
BRANCH   4   6
HETATM    6  C18 UNL     1       1.379  52.505 -12.747  1.00  0.00     0.374 C 
BRANCH   6   7
HETATM    7  C19 UNL     1       1.696  52.233 -11.260  1.00  0.00     0.248 C 
HETATM    8  O2  UNL     1       1.833  51.098 -10.799  1.00  0.00    -0.271 OA
HETATM    9  N5  UNL     1       1.800  53.352 -10.437  1.00  0.00    -0.348 N 
HETATM   10  C20 UNL     1       2.050  53.136  -9.005  1.00  0.00     0.145 C 
HETATM   11  C33 UNL     1       1.733  54.755 -10.873  1.00  0.00     0.145 C 
HETATM   12  C21 UNL     1       1.844  54.409  -8.168  1.00  0.00     0.143 C 
HETATM   13  N6  UNL     1       2.680  55.521  -8.664  1.00  0.00    -0.378 N 
HETATM   14  C32 UNL     1       2.758  55.647 -10.141  1.00  0.00     0.143 C 
BRANCH  13  15
HETATM   15  C22 UNL     1       3.850  55.889  -7.990  1.00  0.00     0.030 A 
HETATM   16  C23 UNL     1       3.972  57.055  -7.226  1.00  0.00     0.030 A 
HETATM   17  C24 UNL     1       5.164  57.382  -6.560  1.00  0.00     0.017 A 
HETATM   18  C25 UNL     1       6.300  56.559  -6.624  1.00  0.00     0.008 A 
HETATM   19  C30 UNL     1       6.183  55.397  -7.399  1.00  0.00     0.017 A 
HETATM   20  C31 UNL     1       4.991  55.074  -8.066  1.00  0.00     0.030 A 
BRANCH  18  21
HETATM   21  C26 UNL     1       7.547  56.900  -5.911  1.00  0.00     0.115 A 
HETATM   22  N7  UNL     1       7.612  58.093  -5.283  1.00  0.00    -0.352 N 
HETATM   23  C27 UNL     1       8.765  58.380  -4.651  1.00  0.00     0.091 A 
ATOM     24  H7  UNL     1       6.827  58.744  -5.287  1.00  0.00     0.166 HD
HETATM   25  C28 UNL     1       9.844  57.532  -4.617  1.00  0.00     0.034 A 
HETATM   26  C29 UNL     1       9.682  56.342  -5.284  1.00  0.00     0.091 A 
HETATM   27  N8  UNL     1       8.555  56.002  -5.935  1.00  0.00    -0.352 N 
ATOM     28  H8  UNL     1       8.466  55.110  -6.423  1.00  0.00     0.166 HD
ENDBRANCH  18  21
ENDBRANCH  13  15
ENDBRANCH   6   7
ENDBRANCH   4   6
BRANCH   1  29
HETATM   29  C1  UNL     1       0.937  51.949 -17.296  1.00  0.00     0.228 C 
HETATM   30  O1  UNL     1       0.449  50.865 -17.613  1.00  0.00    -0.273 OA
HETATM   31  N1  UNL     1       1.246  52.963 -18.177  1.00  0.00    -0.327 N 
HETATM   32  H1  UNL     1       1.754  53.762 -17.825  1.00  0.00     0.169 HD
BRANCH  31  33
HETATM   33  C2  UNL     1       1.005  53.001 -19.571  1.00  0.00     0.035 A 
HETATM   34  C3  UNL     1       1.446  54.025 -20.412  1.00  0.00     0.032 A 
HETATM   35  C4  UNL     1       1.179  54.016 -21.789  1.00  0.00     0.034 A 
HETATM   36  C5  UNL     1       0.458  52.933 -22.294  1.00  0.00     0.060 A 
HETATM   37  N2  UNL     1       0.032  52.633 -23.557  1.00  0.00    -0.299 N 
HETATM   38  C13 UNL     1       0.014  51.883 -21.502  1.00  0.00     0.023 A 
HETATM   39  N3  UNL     1      -0.659  51.489 -23.651  1.00  0.00    -0.299 N 
HETATM   40  H4  UNL     1       0.172  53.179 -24.400  1.00  0.00     0.187 HD
HETATM   41  C6  UNL     1      -0.659  50.997 -22.401  1.00  0.00     0.070 A 
ATOM     42  H3  UNL     1      -1.088  51.083 -24.483  1.00  0.00     0.187 HD
HETATM   43  C14 UNL     1       0.287  51.922 -20.116  1.00  0.00     0.045 A 
BRANCH  41  44
HETATM   44  C7  UNL     1      -1.306  49.720 -22.100  1.00  0.00    -0.007 A 
HETATM   45  C8  UNL     1      -0.851  48.913 -21.047  1.00  0.00     0.017 A 
HETATM   46  C9  UNL     1      -1.484  47.699 -20.767  1.00  0.00     0.043 A 
HETATM   47  C10 UNL     1      -2.567  47.295 -21.537  1.00  0.00     0.116 A 
HETATM   48  F1  UNL     1      -3.174  46.134 -21.262  1.00  0.00    -0.206 F 
HETATM   49  C11 UNL     1      -3.025  48.074 -22.592  1.00  0.00     0.043 A 
HETATM   50  C12 UNL     1      -2.391  49.285 -22.876  1.00  0.00     0.017 A 
ENDBRANCH  41  44
ENDBRANCH  31  33
ENDBRANCH   1  29
TORSDOF 7
ENDMDL
MODEL 2
REMARK minimizedAffinity -9.50009155
REMARK CNNscore 0.41589272
REMARK CNNaffinity 6.3807869
REMARK  7 active torsions:
REMARK  status: ('A' for Active; 'I' for Inactive)
REMARK       I    between atoms: C1_2  and  N1_3 
REMARK    1  A    between atoms: C1_2  and  C15_21 
REMARK    2  A    between atoms: N1_3  and  C2_4 
REMARK    3  A    between atoms: C6_11  and  C7_12 
REMARK    4  A    between atoms: N4_24  and  C18_25 
REMARK    5  A    between atoms: C18_25  and  C19_26 
REMARK       I    between atoms: C19_26  and  N5_28 
REMARK    6  A    between atoms: N6_31  and  C22_32 
REMARK    7  A    between atoms: C25_35  and  C26_36 
ROOT
HETATM    1  C15 UNL     1      -5.255  50.303 -23.531  1.00  0.00     0.108 C 
HETATM    2  C16 UNL     1      -5.699  49.497 -22.308  1.00  0.00     0.046 C 
HETATM    3  C17 UNL     1      -5.784  48.050 -22.784  1.00  0.00     0.274 C 
HETATM    4  N4  UNL     1      -5.821  48.097 -24.253  1.00  0.00     0.098 N 
HETATM    5  C34 UNL     1      -4.956  49.240 -24.582  1.00  0.00     0.287 C 
ENDROOT
BRANCH   4   6
HETATM    6  C18 UNL     1      -7.211  48.244 -24.747  1.00  0.00     0.374 C 
BRANCH   6   7
HETATM    7  C19 UNL     1      -7.997  46.914 -24.778  1.00  0.00     0.248 C 
HETATM    8  O2  UNL     1      -7.694  45.939 -24.089  1.00  0.00    -0.271 OA
HETATM    9  N5  UNL     1      -9.076  46.856 -25.657  1.00  0.00    -0.348 N 
HETATM   10  C20 UNL     1      -9.821  45.593 -25.756  1.00  0.00     0.145 C 
HETATM   11  C33 UNL     1      -9.586  47.967 -26.474  1.00  0.00     0.145 C 
HETATM   12  C21 UNL     1     -10.777  45.560 -26.958  1.00  0.00     0.143 C 
HETATM   13  N6  UNL     1     -11.718  46.698 -26.928  1.00  0.00    -0.378 N 
HETATM   14  C32 UNL     1     -11.128  48.000 -26.526  1.00  0.00     0.143 C 
BRANCH  13  15
HETATM   15  C22 UNL     1     -13.045  46.516 -26.525  1.00  0.00     0.030 A 
HETATM   16  C23 UNL     1     -14.042  45.985 -27.351  1.00  0.00     0.030 A 
HETATM   17  C24 UNL     1     -15.361  45.813 -26.903  1.00  0.00     0.017 A 
HETATM   18  C25 UNL     1     -15.755  46.165 -25.601  1.00  0.00     0.008 A 
HETATM   19  C30 UNL     1     -14.760  46.708 -24.776  1.00  0.00     0.017 A 
HETATM   20  C31 UNL     1     -13.443  46.881 -25.228  1.00  0.00     0.030 A 
BRANCH  18  21
HETATM   21  C26 UNL     1     -17.140  45.970 -25.128  1.00  0.00     0.115 A 
HETATM   22  N7  UNL     1     -17.643  44.717 -25.142  1.00  0.00    -0.352 N 
HETATM   23  C27 UNL     1     -18.911  44.573 -24.714  1.00  0.00     0.091 A 
ATOM     24  H7  UNL     1     -17.090  43.921 -25.459  1.00  0.00     0.166 HD
HETATM   25  C28 UNL     1     -19.689  45.615 -24.276  1.00  0.00     0.034 A 
HETATM   26  C29 UNL     1     -19.089  46.851 -24.299  1.00  0.00     0.091 A 
HETATM   27  N8  UNL     1     -17.827  47.057 -24.717  1.00  0.00    -0.352 N 
ATOM     28  H8  UNL     1     -17.410  47.988 -24.723  1.00  0.00     0.166 HD
ENDBRANCH  18  21
ENDBRANCH  13  15
ENDBRANCH   6   7
ENDBRANCH   4   6
BRANCH   1  29
HETATM   29  C1  UNL     1      -4.183  51.328 -23.158  1.00  0.00     0.228 C 
HETATM   30  O1  UNL     1      -4.552  52.430 -22.755  1.00  0.00    -0.273 OA
HETATM   31  N1  UNL     1      -2.869  50.941 -23.310  1.00  0.00    -0.327 N 
HETATM   32  H1  UNL     1      -2.682  50.058 -23.763  1.00  0.00     0.169 HD
BRANCH  31  33
HETATM   33  C2  UNL     1      -1.708  51.674 -22.971  1.00  0.00     0.035 A 
HETATM   34  C3  UNL     1      -0.994  52.468 -23.872  1.00  0.00     0.032 A 
HETATM   35  C4  UNL     1       0.154  53.175 -23.485  1.00  0.00     0.034 A 
HETATM   36  C5  UNL     1       0.555  53.063 -22.153  1.00  0.00     0.060 A 
HETATM   37  N2  UNL     1       1.610  53.602 -21.473  1.00  0.00    -0.299 N 
HETATM   38  C13 UNL     1      -0.131  52.302 -21.216  1.00  0.00     0.023 A 
HETATM   39  N3  UNL     1       1.676  53.247 -20.182  1.00  0.00    -0.299 N 
HETATM   40  H4  UNL     1       2.331  54.213 -21.839  1.00  0.00     0.187 HD
HETATM   41  C6  UNL     1       0.598  52.468 -19.996  1.00  0.00     0.070 A 
ATOM     42  H3  UNL     1       2.384  53.510 -19.496  1.00  0.00     0.187 HD
HETATM   43  C14 UNL     1      -1.278  51.591 -21.635  1.00  0.00     0.045 A 
BRANCH  41  44
HETATM   44  C7  UNL     1       0.305  51.898 -18.682  1.00  0.00    -0.007 A 
HETATM   45  C8  UNL     1       0.991  52.335 -17.539  1.00  0.00     0.017 A 
HETATM   46  C9  UNL     1       0.695  51.787 -16.288  1.00  0.00     0.043 A 
HETATM   47  C10 UNL     1      -0.282  50.805 -16.182  1.00  0.00     0.116 A 
HETATM   48  F1  UNL     1      -0.566  50.285 -14.981  1.00  0.00    -0.206 F 
HETATM   49  C11 UNL     1      -0.963  50.350 -17.303  1.00  0.00     0.043 A 
HETATM   50  C12 UNL     1      -0.666  50.893 -18.554  1.00  0.00     0.017 A 
ENDBRANCH  41  44
ENDBRANCH  31  33
ENDBRANCH   1  29
TORSDOF 7
ENDMDL
MODEL 3
REMARK minimizedAffinity -10.4703188
REMARK CNNscore 0.393211305
REMARK CNNaffinity 6.83828592
REMARK  7 active torsions:
REMARK  status: ('A' for Active; 'I' for Inactive)
REMARK       I    between atoms: C1_2  and  N1_3 
REMARK    1  A    between atoms: C1_2  and  C15_21 
REMARK    2  A    between atoms: N1_3  and  C2_4 
REMARK    3  A    between atoms: C6_11  and  C7_12 
REMARK    4  A    between atoms: N4_24  and  C18_25 
REMARK    5  A    between atoms: C18_25  and  C19_26 
REMARK       I    between atoms: C19_26  and  N5_28 
REMARK    6  A    between atoms: N6_31  and  C22_32 
REMARK    7  A    between atoms: C25_35  and  C26_36 
ROOT
HETATM    1  C15 UNL     1      -5.736  47.605 -28.736  1.00  0.00     0.108 C 
HETATM    2  C16 UNL     1      -5.700  48.434 -30.022  1.00  0.00     0.046 C 
HETATM    3  C17 UNL     1      -7.160  48.665 -30.397  1.00  0.00     0.274 C 
HETATM    4  N4  UNL     1      -7.945  47.678 -29.641  1.00  0.00     0.098 N 
HETATM    5  C34 UNL     1      -7.214  47.560 -28.370  1.00  0.00     0.287 C 
ENDROOT
BRANCH   4   6
HETATM    6  C18 UNL     1      -8.054  46.401 -30.384  1.00  0.00     0.374 C 
BRANCH   6   7
HETATM    7  C19 UNL     1      -8.800  45.296 -29.604  1.00  0.00     0.248 C 
HETATM    8  O2  UNL     1      -8.221  44.433 -28.943  1.00  0.00    -0.271 OA
HETATM    9  N5  UNL     1     -10.189  45.304 -29.701  1.00  0.00    -0.348 N 
HETATM   10  C20 UNL     1     -10.937  44.241 -29.015  1.00  0.00     0.145 C 
HETATM   11  C33 UNL     1     -11.002  46.317 -30.391  1.00  0.00     0.145 C 
HETATM   12  C21 UNL     1     -12.412  44.183 -29.441  1.00  0.00     0.143 C 
HETATM   13  N6  UNL     1     -13.083  45.482 -29.236  1.00  0.00    -0.378 N 
HETATM   14  C32 UNL     1     -12.283  46.676 -29.609  1.00  0.00     0.143 C 
BRANCH  13  15
HETATM   15  C22 UNL     1     -13.941  45.678 -28.149  1.00  0.00     0.030 A 
HETATM   16  C23 UNL     1     -13.617  46.458 -27.033  1.00  0.00     0.030 A 
HETATM   17  C24 UNL     1     -14.512  46.633 -25.966  1.00  0.00     0.017 A 
HETATM   18  C25 UNL     1     -15.782  46.035 -25.958  1.00  0.00     0.008 A 
HETATM   19  C30 UNL     1     -16.105  45.243 -27.068  1.00  0.00     0.017 A 
HETATM   20  C31 UNL     1     -15.207  45.068 -28.133  1.00  0.00     0.030 A 
BRANCH  18  21
HETATM   21  C26 UNL     1     -16.727  46.232 -24.840  1.00  0.00     0.115 A 
HETATM   22  N7  UNL     1     -16.261  46.075 -23.582  1.00  0.00    -0.352 N 
HETATM   23  C27 UNL     1     -17.148  46.251 -22.585  1.00  0.00     0.091 A 
ATOM     24  H7  UNL     1     -15.287  45.836 -23.397  1.00  0.00     0.166 HD
HETATM   25  C28 UNL     1     -18.466  46.577 -22.788  1.00  0.00     0.034 A 
HETATM   26  C29 UNL     1     -18.844  46.715 -24.101  1.00  0.00     0.091 A 
HETATM   27  N8  UNL     1     -18.004  46.550 -25.139  1.00  0.00    -0.352 N 
ATOM     28  H8  UNL     1     -18.317  46.659 -26.104  1.00  0.00     0.166 HD
ENDBRANCH  18  21
ENDBRANCH  13  15
ENDBRANCH   6   7
ENDBRANCH   4   6
BRANCH   1  29
HETATM   29  C1  UNL     1      -4.715  48.119 -27.719  1.00  0.00     0.228 C 
HETATM   30  O1  UNL     1      -3.548  48.248 -28.085  1.00  0.00    -0.273 OA
HETATM   31  N1  UNL     1      -5.180  48.396 -26.452  1.00  0.00    -0.327 N 
HETATM   32  H1  UNL     1      -6.131  48.139 -26.227  1.00  0.00     0.169 HD
BRANCH  31  33
HETATM   33  C2  UNL     1      -4.458  48.943 -25.365  1.00  0.00     0.035 A 
HETATM   34  C3  UNL     1      -4.877  48.873 -24.035  1.00  0.00     0.032 A 
HETATM   35  C4  UNL     1      -4.122  49.434 -22.993  1.00  0.00     0.034 A 
HETATM   36  C5  UNL     1      -2.923  50.059 -23.337  1.00  0.00     0.060 A 
HETATM   37  N2  UNL     1      -1.982  50.699 -22.580  1.00  0.00    -0.299 N 
HETATM   38  C13 UNL     1      -2.456  50.138 -24.642  1.00  0.00     0.023 A 
HETATM   39  N3  UNL     1      -0.953  51.196 -23.281  1.00  0.00    -0.299 N 
HETATM   40  H4  UNL     1      -1.991  50.841 -21.577  1.00  0.00     0.187 HD
HETATM   41  C6  UNL     1      -1.211  50.838 -24.550  1.00  0.00     0.070 A 
ATOM     42  H3  UNL     1      -0.154  51.725 -22.931  1.00  0.00     0.187 HD
HETATM   43  C14 UNL     1      -3.240  49.575 -25.673  1.00  0.00     0.045 A 
BRANCH  41  44
HETATM   44  C7  UNL     1      -0.285  51.183 -25.628  1.00  0.00    -0.007 A 
HETATM   45  C8  UNL     1       1.092  51.297 -25.385  1.00  0.00     0.017 A 
HETATM   46  C9  UNL     1       1.966  51.621 -26.425  1.00  0.00     0.043 A 
HETATM   47  C10 UNL     1       1.465  51.830 -27.704  1.00  0.00     0.116 A 
HETATM   48  F1  UNL     1       2.306  52.134 -28.700  1.00  0.00    -0.206 F 
HETATM   49  C11 UNL     1       0.103  51.734 -27.963  1.00  0.00     0.043 A 
HETATM   50  C12 UNL     1      -0.772  51.416 -26.923  1.00  0.00     0.017 A 
ENDBRANCH  41  44
ENDBRANCH  31  33
ENDBRANCH   1  29
TORSDOF 7
ENDMDL
MODEL 4
REMARK minimizedAffinity -9.18553448
REMARK CNNscore 0.309721798
REMARK CNNaffinity 6.86515045
REMARK  7 active torsions:
REMARK  status: ('A' for Active; 'I' for Inactive)
REMARK       I    between atoms: C1_2  and  N1_3 
REMARK    1  A    between atoms: C1_2  and  C15_21 
REMARK    2  A    between atoms: N1_3  and  C2_4 
REMARK    3  A    between atoms: C6_11  and  C7_12 
REMARK    4  A    between atoms: N4_24  and  C18_25 
REMARK    5  A    between atoms: C18_25  and  C19_26 
REMARK       I    between atoms: C19_26  and  N5_28 
REMARK    6  A    between atoms: N6_31  and  C22_32 
REMARK    7  A    between atoms: C25_35  and  C26_36 
ROOT
HETATM    1  C15 UNL     1      -3.350  49.527 -19.276  1.00  0.00     0.108 C 
HETATM    2  C16 UNL     1      -2.582  48.626 -18.306  1.00  0.00     0.046 C 
HETATM    3  C17 UNL     1      -2.652  47.227 -18.909  1.00  0.00     0.274 C 
HETATM    4  N4  UNL     1      -3.742  47.253 -19.895  1.00  0.00     0.098 N 
HETATM    5  C34 UNL     1      -3.667  48.613 -20.453  1.00  0.00     0.287 C 
ENDROOT
BRANCH   4   6
HETATM    6  C18 UNL     1      -5.045  46.944 -19.259  1.00  0.00     0.374 C 
BRANCH   6   7
HETATM    7  C19 UNL     1      -6.016  46.180 -20.186  1.00  0.00     0.248 C 
HETATM    8  O2  UNL     1      -5.738  45.098 -20.706  1.00  0.00    -0.271 OA
HETATM    9  N5  UNL     1      -7.242  46.793 -20.434  1.00  0.00    -0.348 N 
HETATM   10  C20 UNL     1      -8.177  46.125 -21.351  1.00  0.00     0.145 C 
HETATM   11  C33 UNL     1      -7.725  48.039 -19.820  1.00  0.00     0.145 C 
HETATM   12  C21 UNL     1      -9.344  47.031 -21.773  1.00  0.00     0.143 C 
HETATM   13  N6  UNL     1     -10.074  47.550 -20.599  1.00  0.00    -0.378 N 
HETATM   14  C32 UNL     1      -9.224  47.973 -19.458  1.00  0.00     0.143 C 
BRANCH  13  15
HETATM   15  C22 UNL     1     -11.309  47.006 -20.229  1.00  0.00     0.030 A 
HETATM   16  C23 UNL     1     -12.514  47.716 -20.267  1.00  0.00     0.030 A 
HETATM   17  C24 UNL     1     -13.732  47.127 -19.893  1.00  0.00     0.017 A 
HETATM   18  C25 UNL     1     -13.810  45.794 -19.460  1.00  0.00     0.008 A 
HETATM   19  C30 UNL     1     -12.603  45.084 -19.410  1.00  0.00     0.017 A 
HETATM   20  C31 UNL     1     -11.385  45.676 -19.782  1.00  0.00     0.030 A 
BRANCH  18  21
HETATM   21  C26 UNL     1     -15.096  45.174 -19.081  1.00  0.00     0.115 A 
HETATM   22  N7  UNL     1     -15.060  44.056 -18.324  1.00  0.00    -0.352 N 
HETATM   23  C27 UNL     1     -16.246  43.508 -18.002  1.00  0.00     0.091 A 
ATOM     24  H7  UNL     1     -14.179  43.648 -18.012  1.00  0.00     0.166 HD
HETATM   25  C28 UNL     1     -17.455  44.024 -18.398  1.00  0.00     0.034 A 
HETATM   26  C29 UNL     1     -17.388  45.163 -19.164  1.00  0.00     0.091 A 
HETATM   27  N8  UNL     1     -16.232  45.754 -19.519  1.00  0.00    -0.352 N 
ATOM     28  H8  UNL     1     -16.216  46.599 -20.090  1.00  0.00     0.166 HD
ENDBRANCH  18  21
ENDBRANCH  13  15
ENDBRANCH   6   7
ENDBRANCH   4   6
BRANCH   1  29
HETATM   29  C1  UNL     1      -2.609  50.843 -19.513  1.00  0.00     0.228 C 
HETATM   30  O1  UNL     1      -3.002  51.844 -18.915  1.00  0.00    -0.273 OA
HETATM   31  N1  UNL     1      -1.549  50.814 -20.393  1.00  0.00    -0.327 N 
HETATM   32  H1  UNL     1      -1.390  49.966 -20.919  1.00  0.00     0.169 HD
BRANCH  31  33
HETATM   33  C2  UNL     1      -0.670  51.872 -20.724  1.00  0.00     0.035 A 
HETATM   34  C3  UNL     1      -0.070  52.711 -19.783  1.00  0.00     0.032 A 
HETATM   35  C4  UNL     1       0.796  53.748 -20.164  1.00  0.00     0.034 A 
HETATM   36  C5  UNL     1       1.044  53.906 -21.528  1.00  0.00     0.060 A 
HETATM   37  N2  UNL     1       1.811  54.803 -22.215  1.00  0.00    -0.299 N 
HETATM   38  C13 UNL     1       0.485  53.085 -22.500  1.00  0.00     0.023 A 
HETATM   39  N3  UNL     1       1.788  54.646 -23.546  1.00  0.00    -0.299 N 
HETATM   40  H4  UNL     1       2.366  55.559 -21.832  1.00  0.00     0.187 HD
HETATM   41  C6  UNL     1       0.999  53.576 -23.741  1.00  0.00     0.070 A 
ATOM     42  H3  UNL     1       2.264  55.210 -24.251  1.00  0.00     0.187 HD
HETATM   43  C14 UNL     1      -0.391  52.056 -22.090  1.00  0.00     0.045 A 
BRANCH  41  44
HETATM   44  C7  UNL     1       0.748  53.069 -25.089  1.00  0.00    -0.007 A 
HETATM   45  C8  UNL     1       1.316  51.862 -25.522  1.00  0.00     0.017 A 
HETATM   46  C9  UNL     1       1.061  51.386 -26.811  1.00  0.00     0.043 A 
HETATM   47  C10 UNL     1       0.241  52.115 -27.663  1.00  0.00     0.116 A 
HETATM   48  F1  UNL     1      -0.005  51.653 -28.895  1.00  0.00    -0.206 F 
HETATM   49  C11 UNL     1      -0.321  53.319 -27.258  1.00  0.00     0.043 A 
HETATM   50  C12 UNL     1      -0.063  53.798 -25.972  1.00  0.00     0.017 A 
ENDBRANCH  41  44
ENDBRANCH  31  33
ENDBRANCH   1  29
TORSDOF 7
ENDMDL
MODEL 5
REMARK minimizedAffinity -10.5733681
REMARK CNNscore 0.2973046
REMARK CNNaffinity 6.88793755
REMARK  7 active torsions:
REMARK  status: ('A' for Active; 'I' for Inactive)
REMARK       I    between atoms: C1_2  and  N1_3 
REMARK    1  A    between atoms: C1_2  and  C15_21 
REMARK    2  A    between atoms: N1_3  and  C2_4 
REMARK    3  A    between atoms: C6_11  and  C7_12 
REMARK    4  A    between atoms: N4_24  and  C18_25 
REMARK    5  A    between atoms: C18_25  and  C19_26 
REMARK       I    between atoms: C19_26  and  N5_28 
REMARK    6  A    between atoms: N6_31  and  C22_32 
REMARK    7  A    between atoms: C25_35  and  C26_36 
ROOT
HETATM    1  C15 UNL     1      -4.623  50.365 -23.949  1.00  0.00     0.108 C 
HETATM    2  C16 UNL     1      -5.874  50.204 -23.081  1.00  0.00     0.046 C 
HETATM    3  C17 UNL     1      -6.127  48.701 -23.007  1.00  0.00     0.274 C 
HETATM    4  N4  UNL     1      -5.354  48.095 -24.102  1.00  0.00     0.098 N 
HETATM    5  C34 UNL     1      -4.148  48.935 -24.176  1.00  0.00     0.287 C 
ENDROOT
BRANCH   4   6
HETATM    6  C18 UNL     1      -6.139  48.072 -25.359  1.00  0.00     0.374 C 
BRANCH   6   7
HETATM    7  C19 UNL     1      -5.270  48.193 -26.630  1.00  0.00     0.248 C 
HETATM    8  O2  UNL     1      -4.131  48.664 -26.623  1.00  0.00    -0.271 OA
HETATM    9  N5  UNL     1      -5.850  47.757 -27.818  1.00  0.00    -0.348 N 
HETATM   10  C20 UNL     1      -5.077  47.900 -29.060  1.00  0.00     0.145 C 
HETATM   11  C33 UNL     1      -7.164  47.108 -27.952  1.00  0.00     0.145 C 
HETATM   12  C21 UNL     1      -5.928  47.669 -30.319  1.00  0.00     0.143 C 
HETATM   13  N6  UNL     1      -6.589  46.349 -30.287  1.00  0.00    -0.378 N 
HETATM   14  C32 UNL     1      -7.147  45.950 -28.971  1.00  0.00     0.143 C 
BRANCH  13  15
HETATM   15  C22 UNL     1      -6.098  45.287 -31.054  1.00  0.00     0.030 A 
HETATM   16  C23 UNL     1      -6.664  44.007 -31.061  1.00  0.00     0.030 A 
HETATM   17  C24 UNL     1      -6.141  42.971 -31.852  1.00  0.00     0.017 A 
HETATM   18  C25 UNL     1      -5.021  43.161 -32.678  1.00  0.00     0.008 A 
HETATM   19  C30 UNL     1      -4.445  44.438 -32.663  1.00  0.00     0.017 A 
HETATM   20  C31 UNL     1      -4.969  45.472 -31.869  1.00  0.00     0.030 A 
BRANCH  18  21
HETATM   21  C26 UNL     1      -4.482  42.073 -33.518  1.00  0.00     0.115 A 
HETATM   22  N7  UNL     1      -4.781  42.083 -34.835  1.00  0.00    -0.352 N 
HETATM   23  C27 UNL     1      -4.284  41.073 -35.574  1.00  0.00     0.091 A 
ATOM     24  H7  UNL     1      -5.354  42.818 -35.249  1.00  0.00     0.166 HD
HETATM   25  C28 UNL     1      -3.507  40.066 -35.059  1.00  0.00     0.034 A 
HETATM   26  C29 UNL     1      -3.257  40.143 -33.710  1.00  0.00     0.091 A 
HETATM   27  N8  UNL     1      -3.728  41.126 -32.921  1.00  0.00    -0.352 N 
ATOM     28  H8  UNL     1      -3.526  41.155 -31.922  1.00  0.00     0.166 HD
ENDBRANCH  18  21
ENDBRANCH  13  15
ENDBRANCH   6   7
ENDBRANCH   4   6
BRANCH   1  29
HETATM   29  C1  UNL     1      -3.667  51.399 -23.354  1.00  0.00     0.228 C 
HETATM   30  O1  UNL     1      -4.148  52.430 -22.886  1.00  0.00    -0.273 OA
HETATM   31  N1  UNL     1      -2.322  51.102 -23.392  1.00  0.00    -0.327 N 
HETATM   32  H1  UNL     1      -2.030  50.284 -23.907  1.00  0.00     0.169 HD
BRANCH  31  33
HETATM   33  C2  UNL     1      -1.254  51.855 -22.850  1.00  0.00     0.035 A 
HETATM   34  C3  UNL     1      -0.443  52.710 -23.598  1.00  0.00     0.032 A 
HETATM   35  C4  UNL     1       0.606  53.434 -23.011  1.00  0.00     0.034 A 
HETATM   36  C5  UNL     1       0.803  53.275 -21.639  1.00  0.00     0.060 A 
HETATM   37  N2  UNL     1       1.722  53.816 -20.784  1.00  0.00    -0.299 N 
HETATM   38  C13 UNL     1       0.012  52.452 -20.850  1.00  0.00     0.023 A 
HETATM   39  N3  UNL     1       1.603  53.405 -19.513  1.00  0.00    -0.299 N 
HETATM   40  H4  UNL     1       2.466  54.465 -21.010  1.00  0.00     0.187 HD
HETATM   41  C6  UNL     1       0.539  52.585 -19.526  1.00  0.00     0.070 A 
ATOM     42  H3  UNL     1       2.188  53.659 -18.717  1.00  0.00     0.187 HD
HETATM   43  C14 UNL     1      -1.030  51.725 -21.468  1.00  0.00     0.045 A 
BRANCH  41  44
HETATM   44  C7  UNL     1       0.072  51.948 -18.296  1.00  0.00    -0.007 A 
HETATM   45  C8  UNL     1      -1.227  51.426 -18.204  1.00  0.00     0.017 A 
HETATM   46  C9  UNL     1      -1.658  50.814 -17.025  1.00  0.00     0.043 A 
HETATM   47  C10 UNL     1      -0.792  50.724 -15.941  1.00  0.00     0.116 A 
HETATM   48  F1  UNL     1      -1.207  50.131 -14.815  1.00  0.00    -0.206 F 
HETATM   49  C11 UNL     1       0.493  51.245 -16.008  1.00  0.00     0.043 A 
HETATM   50  C12 UNL     1       0.923  51.862 -17.184  1.00  0.00     0.017 A 
ENDBRANCH  41  44
ENDBRANCH  31  33
ENDBRANCH   1  29
TORSDOF 7
ENDMDL
MODEL 6
REMARK minimizedAffinity -10.4151974
REMARK CNNscore 0.276483476
REMARK CNNaffinity 6.7074008
REMARK  7 active torsions:
REMARK  status: ('A' for Active; 'I' for Inactive)
REMARK       I    between atoms: C1_2  and  N1_3 
REMARK    1  A    between atoms: C1_2  and  C15_21 
REMARK    2  A    between atoms: N1_3  and  C2_4 
REMARK    3  A    between atoms: C6_11  and  C7_12 
REMARK    4  A    between atoms: N4_24  and  C18_25 
REMARK    5  A    between atoms: C18_25  and  C19_26 
REMARK       I    between atoms: C19_26  and  N5_28 
REMARK    6  A    between atoms: N6_31  and  C22_32 
REMARK    7  A    between atoms: C25_35  and  C26_36 
ROOT
HETATM    1  C15 UNL     1      -5.586  47.661 -28.504  1.00  0.00     0.108 C 
HETATM    2  C16 UNL     1      -5.434  48.059 -29.974  1.00  0.00     0.046 C 
HETATM    3  C17 UNL     1      -6.856  48.157 -30.517  1.00  0.00     0.274 C 
HETATM    4  N4  UNL     1      -7.716  47.441 -29.563  1.00  0.00     0.098 N 
HETATM    5  C34 UNL     1      -7.089  47.719 -28.261  1.00  0.00     0.287 C 
ENDROOT
BRANCH   4   6
HETATM    6  C18 UNL     1      -7.790  45.998 -29.890  1.00  0.00     0.374 C 
BRANCH   6   7
HETATM    7  C19 UNL     1      -9.154  45.568 -30.473  1.00  0.00     0.248 C 
HETATM    8  O2  UNL     1     -10.186  45.517 -29.801  1.00  0.00    -0.271 OA
HETATM    9  N5  UNL     1      -9.164  45.208 -31.818  1.00  0.00    -0.348 N 
HETATM   10  C20 UNL     1     -10.430  44.744 -32.402  1.00  0.00     0.145 C 
HETATM   11  C33 UNL     1      -8.025  45.297 -32.745  1.00  0.00     0.145 C 
HETATM   12  C21 UNL     1     -10.247  44.101 -33.785  1.00  0.00     0.143 C 
HETATM   13  N6  UNL     1      -9.568  45.020 -34.721  1.00  0.00    -0.378 N 
HETATM   14  C32 UNL     1      -8.442  45.797 -34.144  1.00  0.00     0.143 C 
BRANCH  13  15
HETATM   15  C22 UNL     1     -10.294  45.698 -35.705  1.00  0.00     0.030 A 
HETATM   16  C23 UNL     1      -9.715  46.561 -36.643  1.00  0.00     0.030 A 
HETATM   17  C24 UNL     1     -10.482  47.217 -37.619  1.00  0.00     0.017 A 
HETATM   18  C25 UNL     1     -11.872  47.045 -37.709  1.00  0.00     0.008 A 
HETATM   19  C30 UNL     1     -12.456  46.191 -36.764  1.00  0.00     0.017 A 
HETATM   20  C31 UNL     1     -11.688  45.538 -35.787  1.00  0.00     0.030 A 
BRANCH  18  21
HETATM   21  C26 UNL     1     -12.674  47.725 -38.746  1.00  0.00     0.115 A 
HETATM   22  N7  UNL     1     -12.869  49.056 -38.623  1.00  0.00    -0.352 N 
HETATM   23  C27 UNL     1     -13.612  49.646 -39.577  1.00  0.00     0.091 A 
ATOM     24  H7  UNL     1     -12.474  49.586 -37.847  1.00  0.00     0.166 HD
HETATM   25  C28 UNL     1     -14.161  48.972 -40.640  1.00  0.00     0.034 A 
HETATM   26  C29 UNL     1     -13.906  47.623 -40.678  1.00  0.00     0.091 A 
HETATM   27  N8  UNL     1     -13.172  46.978 -39.753  1.00  0.00    -0.352 N 
ATOM     28  H8  UNL     1     -13.002  45.973 -39.809  1.00  0.00     0.166 HD
ENDBRANCH  18  21
ENDBRANCH  13  15
ENDBRANCH   6   7
ENDBRANCH   4   6
BRANCH   1  29
HETATM   29  C1  UNL     1      -4.639  48.466 -27.614  1.00  0.00     0.228 C 
HETATM   30  O1  UNL     1      -3.798  49.180 -28.159  1.00  0.00    -0.273 OA
HETATM   31  N1  UNL     1      -4.791  48.325 -26.251  1.00  0.00    -0.327 N 
HETATM   32  H1  UNL     1      -5.432  47.620 -25.914  1.00  0.00     0.169 HD
BRANCH  31  33
HETATM   33  C2  UNL     1      -4.093  49.008 -25.228  1.00  0.00     0.035 A 
HETATM   34  C3  UNL     1      -4.521  49.073 -23.900  1.00  0.00     0.032 A 
HETATM   35  C4  UNL     1      -3.791  49.766 -22.922  1.00  0.00     0.034 A 
HETATM   36  C5  UNL     1      -2.607  50.383 -23.326  1.00  0.00     0.060 A 
HETATM   37  N2  UNL     1      -1.690  51.128 -22.639  1.00  0.00    -0.299 N 
HETATM   38  C13 UNL     1      -2.130  50.331 -24.629  1.00  0.00     0.023 A 
HETATM   39  N3  UNL     1      -0.669  51.574 -23.385  1.00  0.00    -0.299 N 
HETATM   40  H4  UNL     1      -1.711  51.379 -21.658  1.00  0.00     0.187 HD
HETATM   41  C6  UNL     1      -0.907  51.072 -24.608  1.00  0.00     0.070 A 
ATOM     42  H3  UNL     1       0.112  52.161 -23.091  1.00  0.00     0.187 HD
HETATM   43  C14 UNL     1      -2.890  49.637 -25.597  1.00  0.00     0.045 A 
BRANCH  41  44
HETATM   44  C7  UNL     1       0.019  51.323 -25.712  1.00  0.00    -0.007 A 
HETATM   45  C8  UNL     1       1.405  51.349 -25.498  1.00  0.00     0.017 A 
HETATM   46  C9  UNL     1       2.278  51.582 -26.563  1.00  0.00     0.043 A 
HETATM   47  C10 UNL     1       1.766  51.790 -27.838  1.00  0.00     0.116 A 
HETATM   48  F1  UNL     1       2.606  52.008 -28.858  1.00  0.00    -0.206 F 
HETATM   49  C11 UNL     1       0.396  51.780 -28.069  1.00  0.00     0.043 A 
HETATM   50  C12 UNL     1      -0.477  51.552 -27.004  1.00  0.00     0.017 A 
ENDBRANCH  41  44
ENDBRANCH  31  33
ENDBRANCH   1  29
TORSDOF 7
ENDMDL
MODEL 7
REMARK minimizedAffinity -10.2363358
REMARK CNNscore 0.251357287
REMARK CNNaffinity 6.47989893
REMARK  7 active torsions:
REMARK  status: ('A' for Active; 'I' for Inactive)
REMARK       I    between atoms: C1_2  and  N1_3 
REMARK    1  A    between atoms: C1_2  and  C15_21 
REMARK    2  A    between atoms: N1_3  and  C2_4 
REMARK    3  A    between atoms: C6_11  and  C7_12 
REMARK    4  A    between atoms: N4_24  and  C18_25 
REMARK    5  A    between atoms: C18_25  and  C19_26 
REMARK       I    between atoms: C19_26  and  N5_28 
REMARK    6  A    between atoms: N6_31  and  C22_32 
REMARK    7  A    between atoms: C25_35  and  C26_36 
ROOT
HETATM    1  C15 UNL     1      -5.895  47.498 -28.991  1.00  0.00     0.108 C 
HETATM    2  C16 UNL     1      -5.174  46.928 -30.215  1.00  0.00     0.046 C 
HETATM    3  C17 UNL     1      -5.992  47.385 -31.418  1.00  0.00     0.274 C 
HETATM    4  N4  UNL     1      -7.304  47.797 -30.896  1.00  0.00     0.098 N 
HETATM    5  C34 UNL     1      -6.983  48.383 -29.585  1.00  0.00     0.287 C 
ENDROOT
BRANCH   4   6
HETATM    6  C18 UNL     1      -8.233  46.644 -30.820  1.00  0.00     0.374 C 
BRANCH   6   7
HETATM    7  C19 UNL     1      -9.694  47.008 -31.165  1.00  0.00     0.248 C 
HETATM    8  O2  UNL     1     -10.117  47.066 -32.320  1.00  0.00    -0.271 OA
HETATM    9  N5  UNL     1     -10.528  47.297 -30.088  1.00  0.00    -0.348 N 
HETATM   10  C20 UNL     1     -11.913  47.697 -30.372  1.00  0.00     0.145 C 
HETATM   11  C33 UNL     1     -10.171  47.192 -28.665  1.00  0.00     0.145 C 
HETATM   12  C21 UNL     1     -12.630  48.274 -29.142  1.00  0.00     0.143 C 
HETATM   13  N6  UNL     1     -12.603  47.326 -28.009  1.00  0.00    -0.378 N 
HETATM   14  C32 UNL     1     -11.317  46.610 -27.812  1.00  0.00     0.143 C 
BRANCH  13  15
HETATM   15  C22 UNL     1     -13.738  46.579 -27.677  1.00  0.00     0.030 A 
HETATM   16  C23 UNL     1     -14.329  46.586 -26.409  1.00  0.00     0.030 A 
HETATM   17  C24 UNL     1     -15.474  45.825 -26.122  1.00  0.00     0.017 A 
HETATM   18  C25 UNL     1     -16.088  45.014 -27.089  1.00  0.00     0.008 A 
HETATM   19  C30 UNL     1     -15.490  44.996 -28.357  1.00  0.00     0.017 A 
HETATM   20  C31 UNL     1     -14.344  45.756 -28.641  1.00  0.00     0.030 A 
BRANCH  18  21
HETATM   21  C26 UNL     1     -17.300  44.225 -26.787  1.00  0.00     0.115 A 
HETATM   22  N7  UNL     1     -17.139  42.942 -26.398  1.00  0.00    -0.352 N 
HETATM   23  C27 UNL     1     -18.261  42.246 -26.139  1.00  0.00     0.091 A 
ATOM     24  H7  UNL     1     -16.214  42.522 -26.304  1.00  0.00     0.166 HD
HETATM   25  C28 UNL     1     -19.524  42.771 -26.250  1.00  0.00     0.034 A 
HETATM   26  C29 UNL     1     -19.585  44.084 -26.652  1.00  0.00     0.091 A 
HETATM   27  N8  UNL     1     -18.498  44.829 -26.926  1.00  0.00    -0.352 N 
ATOM     28  H8  UNL     1     -18.577  45.802 -27.223  1.00  0.00     0.166 HD
ENDBRANCH  18  21
ENDBRANCH  13  15
ENDBRANCH   6   7
ENDBRANCH   4   6
BRANCH   1  29
HETATM   29  C1  UNL     1      -4.900  48.085 -27.988  1.00  0.00     0.228 C 
HETATM   30  O1  UNL     1      -3.817  48.483 -28.413  1.00  0.00    -0.273 OA
HETATM   31  N1  UNL     1      -5.291  48.118 -26.667  1.00  0.00    -0.327 N 
HETATM   32  H1  UNL     1      -6.152  47.655 -26.413  1.00  0.00     0.169 HD
BRANCH  31  33
HETATM   33  C2  UNL     1      -4.588  48.670 -25.570  1.00  0.00     0.035 A 
HETATM   34  C3  UNL     1      -5.003  48.561 -24.242  1.00  0.00     0.032 A 
HETATM   35  C4  UNL     1      -4.268  49.128 -23.189  1.00  0.00     0.034 A 
HETATM   36  C5  UNL     1      -3.093  49.802 -23.521  1.00  0.00     0.060 A 
HETATM   37  N2  UNL     1      -2.174  50.461 -22.753  1.00  0.00    -0.299 N 
HETATM   38  C13 UNL     1      -2.629  49.922 -24.824  1.00  0.00     0.023 A 
HETATM   39  N3  UNL     1      -1.163  51.007 -23.445  1.00  0.00    -0.299 N 
HETATM   40  H4  UNL     1      -2.187  50.584 -21.747  1.00  0.00     0.187 HD
HETATM   41  C6  UNL     1      -1.410  50.664 -24.720  1.00  0.00     0.070 A 
ATOM     42  H3  UNL     1      -0.384  51.558 -23.084  1.00  0.00     0.187 HD
HETATM   43  C14 UNL     1      -3.393  49.351 -25.866  1.00  0.00     0.045 A 
BRANCH  41  44
HETATM   44  C7  UNL     1      -0.497  51.062 -25.790  1.00  0.00    -0.007 A 
HETATM   45  C8  UNL     1      -0.985  51.430 -27.053  1.00  0.00     0.017 A 
HETATM   46  C9  UNL     1      -0.101  51.815 -28.064  1.00  0.00     0.043 A 
HETATM   47  C10 UNL     1       1.265  51.830 -27.814  1.00  0.00     0.116 A 
HETATM   48  F1  UNL     1       2.109  52.205 -28.783  1.00  0.00    -0.206 F 
HETATM   49  C11 UNL     1       1.769  51.457 -26.574  1.00  0.00     0.043 A 
HETATM   50  C12 UNL     1       0.888  51.067 -25.564  1.00  0.00     0.017 A 
ENDBRANCH  41  44
ENDBRANCH  31  33
ENDBRANCH   1  29
TORSDOF 7
ENDMDL
MODEL 8
REMARK minimizedAffinity -10.0588989
REMARK CNNscore 0.233843237
REMARK CNNaffinity 7.06304502
REMARK  7 active torsions:
REMARK  status: ('A' for Active; 'I' for Inactive)
REMARK       I    between atoms: C1_2  and  N1_3 
REMARK    1  A    between atoms: C1_2  and  C15_21 
REMARK    2  A    between atoms: N1_3  and  C2_4 
REMARK    3  A    between atoms: C6_11  and  C7_12 
REMARK    4  A    between atoms: N4_24  and  C18_25 
REMARK    5  A    between atoms: C18_25  and  C19_26 
REMARK       I    between atoms: C19_26  and  N5_28 
REMARK    6  A    between atoms: N6_31  and  C22_32 
REMARK    7  A    between atoms: C25_35  and  C26_36 
ROOT
HETATM    1  C15 UNL     1       0.452  51.452 -16.521  1.00  0.00     0.108 C 
HETATM    2  C16 UNL     1       1.426  51.592 -15.348  1.00  0.00     0.046 C 
HETATM    3  C17 UNL     1       1.491  50.209 -14.708  1.00  0.00     0.274 C 
HETATM    4  N4  UNL     1       0.319  49.468 -15.197  1.00  0.00     0.098 N 
HETATM    5  C34 UNL     1       0.154  49.959 -16.575  1.00  0.00     0.287 C 
ENDROOT
BRANCH   4   6
HETATM    6  C18 UNL     1      -0.862  49.709 -14.336  1.00  0.00     0.374 C 
BRANCH   6   7
HETATM    7  C19 UNL     1      -0.549  49.626 -12.825  1.00  0.00     0.248 C 
HETATM    8  O2  UNL     1      -0.214  48.581 -12.265  1.00  0.00    -0.271 OA
HETATM    9  N5  UNL     1      -0.687  50.808 -12.101  1.00  0.00    -0.348 N 
HETATM   10  C20 UNL     1      -0.448  50.764 -10.652  1.00  0.00     0.145 C 
HETATM   11  C33 UNL     1      -1.004  52.131 -12.659  1.00  0.00     0.145 C 
HETATM   12  C21 UNL     1      -0.920  52.037  -9.933  1.00  0.00     0.143 C 
HETATM   13  N6  UNL     1      -0.294  53.244 -10.510  1.00  0.00    -0.378 N 
HETATM   14  C32 UNL     1      -0.193  53.261 -11.991  1.00  0.00     0.143 C 
BRANCH  13  15
HETATM   15  C22 UNL     1       0.760  53.885  -9.851  1.00  0.00     0.030 A 
HETATM   16  C23 UNL     1       2.057  53.981 -10.369  1.00  0.00     0.030 A 
HETATM   17  C24 UNL     1       3.085  54.640  -9.676  1.00  0.00     0.017 A 
HETATM   18  C25 UNL     1       2.870  55.238  -8.424  1.00  0.00     0.008 A 
HETATM   19  C30 UNL     1       1.576  55.133  -7.897  1.00  0.00     0.017 A 
HETATM   20  C31 UNL     1       0.550  54.471  -8.592  1.00  0.00     0.030 A 
BRANCH  18  21
HETATM   21  C26 UNL     1       3.950  55.942  -7.703  1.00  0.00     0.115 A 
HETATM   22  N7  UNL     1       3.605  56.951  -6.875  1.00  0.00    -0.352 N 
HETATM   23  C27 UNL     1       4.611  57.580  -6.240  1.00  0.00     0.091 A 
ATOM     24  H7  UNL     1       2.632  57.223  -6.738  1.00  0.00     0.166 HD
HETATM   25  C28 UNL     1       5.934  57.246  -6.393  1.00  0.00     0.034 A 
HETATM   26  C29 UNL     1       6.184  56.206  -7.256  1.00  0.00     0.091 A 
HETATM   27  N8  UNL     1       5.221  55.542  -7.920  1.00  0.00    -0.352 N 
ATOM     28  H8  UNL     1       5.439  54.774  -8.555  1.00  0.00     0.166 HD
ENDBRANCH  18  21
ENDBRANCH  13  15
ENDBRANCH   6   7
ENDBRANCH   4   6
BRANCH   1  29
HETATM   29  C1  UNL     1       0.980  52.168 -17.765  1.00  0.00     0.228 C 
HETATM   30  O1  UNL     1       2.091  52.692 -17.704  1.00  0.00    -0.273 OA
HETATM   31  N1  UNL     1       0.160  52.182 -18.873  1.00  0.00    -0.327 N 
HETATM   32  H1  UNL     1      -0.780  51.826 -18.774  1.00  0.00     0.169 HD
BRANCH  31  33
HETATM   33  C2  UNL     1       0.446  52.712 -20.153  1.00  0.00     0.035 A 
HETATM   34  C3  UNL     1       1.287  53.804 -20.376  1.00  0.00     0.032 A 
HETATM   35  C4  UNL     1       1.536  54.292 -21.668  1.00  0.00     0.034 A 
HETATM   36  C5  UNL     1       0.916  53.635 -22.731  1.00  0.00     0.060 A 
HETATM   37  N2  UNL     1       0.941  53.860 -24.078  1.00  0.00    -0.299 N 
HETATM   38  C13 UNL     1       0.087  52.534 -22.562  1.00  0.00     0.023 A 
HETATM   39  N3  UNL     1       0.191  53.011 -24.796  1.00  0.00    -0.299 N 
HETATM   40  H4  UNL     1       1.444  54.589 -24.572  1.00  0.00     0.187 HD
HETATM   41  C6  UNL     1      -0.322  52.169 -23.883  1.00  0.00     0.070 A 
ATOM     42  H3  UNL     1       0.045  53.005 -25.805  1.00  0.00     0.187 HD
HETATM   43  C14 UNL     1      -0.157  52.070 -21.250  1.00  0.00     0.045 A 
BRANCH  41  44
HETATM   44  C7  UNL     1      -1.190  51.065 -24.290  1.00  0.00    -0.007 A 
HETATM   45  C8  UNL     1      -1.861  50.286 -23.335  1.00  0.00     0.017 A 
HETATM   46  C9  UNL     1      -2.693  49.239 -23.739  1.00  0.00     0.043 A 
HETATM   47  C10 UNL     1      -2.853  48.971 -25.093  1.00  0.00     0.116 A 
HETATM   48  F1  UNL     1      -3.655  47.970 -25.476  1.00  0.00    -0.206 F 
HETATM   49  C11 UNL     1      -2.188  49.723 -26.054  1.00  0.00     0.043 A 
HETATM   50  C12 UNL     1      -1.352  50.766 -25.651  1.00  0.00     0.017 A 
ENDBRANCH  41  44
ENDBRANCH  31  33
ENDBRANCH   1  29
TORSDOF 7
ENDMDL
MODEL 9
REMARK minimizedAffinity -9.66808128
REMARK CNNscore 0.214739516
REMARK CNNaffinity 6.34787369
REMARK  7 active torsions:
REMARK  status: ('A' for Active; 'I' for Inactive)
REMARK       I    between atoms: C1_2  and  N1_3 
REMARK    1  A    between atoms: C1_2  and  C15_21 
REMARK    2  A    between atoms: N1_3  and  C2_4 
REMARK    3  A    between atoms: C6_11  and  C7_12 
REMARK    4  A    between atoms: N4_24  and  C18_25 
REMARK    5  A    between atoms: C18_25  and  C19_26 
REMARK       I    between atoms: C19_26  and  N5_28 
REMARK    6  A    between atoms: N6_31  and  C22_32 
REMARK    7  A    between atoms: C25_35  and  C26_36 
ROOT
HETATM    1  C15 UNL     1      -5.730  48.666 -22.459  1.00  0.00     0.108 C 
HETATM    2  C16 UNL     1      -6.766  49.268 -21.506  1.00  0.00     0.046 C 
HETATM    3  C17 UNL     1      -7.767  48.149 -21.236  1.00  0.00     0.274 C 
HETATM    4  N4  UNL     1      -7.565  47.146 -22.292  1.00  0.00     0.098 N 
HETATM    5  C34 UNL     1      -6.115  47.195 -22.539  1.00  0.00     0.287 C 
ENDROOT
BRANCH   4   6
HETATM    6  C18 UNL     1      -8.381  47.461 -23.489  1.00  0.00     0.374 C 
BRANCH   6   7
HETATM    7  C19 UNL     1      -8.817  46.209 -24.283  1.00  0.00     0.248 C 
HETATM    8  O2  UNL     1      -8.443  45.070 -24.000  1.00  0.00    -0.271 OA
HETATM    9  N5  UNL     1      -9.653  46.432 -25.374  1.00  0.00    -0.348 N 
HETATM   10  C20 UNL     1     -10.051  45.275 -26.188  1.00  0.00     0.145 C 
HETATM   11  C33 UNL     1     -10.230  47.725 -25.772  1.00  0.00     0.145 C 
HETATM   12  C21 UNL     1     -10.712  45.681 -27.515  1.00  0.00     0.143 C 
HETATM   13  N6  UNL     1     -11.875  46.563 -27.289  1.00  0.00    -0.378 N 
HETATM   14  C32 UNL     1     -11.695  47.597 -26.240  1.00  0.00     0.143 C 
BRANCH  13  15
HETATM   15  C22 UNL     1     -13.178  46.063 -27.390  1.00  0.00     0.030 A 
HETATM   16  C23 UNL     1     -14.184  46.321 -26.452  1.00  0.00     0.030 A 
HETATM   17  C24 UNL     1     -15.482  45.804 -26.596  1.00  0.00     0.017 A 
HETATM   18  C25 UNL     1     -15.842  44.999 -27.689  1.00  0.00     0.008 A 
HETATM   19  C30 UNL     1     -14.833  44.730 -28.623  1.00  0.00     0.017 A 
HETATM   20  C31 UNL     1     -13.536  45.246 -28.475  1.00  0.00     0.030 A 
BRANCH  18  21
HETATM   21  C26 UNL     1     -17.212  44.468 -27.845  1.00  0.00     0.115 A 
HETATM   22  N7  UNL     1     -17.552  43.936 -29.038  1.00  0.00    -0.352 N 
HETATM   23  C27 UNL     1     -18.809  43.470 -29.154  1.00  0.00     0.091 A 
ATOM     24  H7  UNL     1     -16.890  43.890 -29.813  1.00  0.00     0.166 HD
HETATM   25  C28 UNL     1     -19.731  43.509 -28.137  1.00  0.00     0.034 A 
HETATM   26  C29 UNL     1     -19.291  44.068 -26.962  1.00  0.00     0.091 A 
HETATM   27  N8  UNL     1     -18.047  44.553 -26.789  1.00  0.00    -0.352 N 
ATOM     28  H8  UNL     1     -17.751  44.963 -25.903  1.00  0.00     0.166 HD
ENDBRANCH  18  21
ENDBRANCH  13  15
ENDBRANCH   6   7
ENDBRANCH   4   6
BRANCH   1  29
HETATM   29  C1  UNL     1      -4.310  49.061 -22.051  1.00  0.00     0.228 C 
HETATM   30  O1  UNL     1      -3.469  48.169 -21.948  1.00  0.00    -0.273 OA
HETATM   31  N1  UNL     1      -4.075  50.398 -21.819  1.00  0.00    -0.327 N 
HETATM   32  H1  UNL     1      -4.866  51.027 -21.815  1.00  0.00     0.169 HD
BRANCH  31  33
HETATM   33  C2  UNL     1      -2.843  51.018 -21.502  1.00  0.00     0.035 A 
HETATM   34  C3  UNL     1      -2.373  51.199 -20.199  1.00  0.00     0.032 A 
HETATM   35  C4  UNL     1      -1.143  51.821 -19.938  1.00  0.00     0.034 A 
HETATM   36  C5  UNL     1      -0.396  52.248 -21.037  1.00  0.00     0.060 A 
HETATM   37  N2  UNL     1       0.810  52.884 -21.125  1.00  0.00    -0.299 N 
HETATM   38  C13 UNL     1      -0.812  52.074 -22.350  1.00  0.00     0.023 A 
HETATM   39  N3  UNL     1       1.206  53.149 -22.379  1.00  0.00    -0.299 N 
HETATM   40  H4  UNL     1       1.410  53.176 -20.362  1.00  0.00     0.187 HD
HETATM   41  C6  UNL     1       0.233  52.635 -23.150  1.00  0.00     0.070 A 
ATOM     42  H3  UNL     1       2.053  53.632 -22.678  1.00  0.00     0.187 HD
HETATM   43  C14 UNL     1      -2.060  51.454 -22.585  1.00  0.00     0.045 A 
BRANCH  41  44
HETATM   44  C7  UNL     1       0.320  52.706 -24.608  1.00  0.00    -0.007 A 
HETATM   45  C8  UNL     1       0.717  51.591 -25.361  1.00  0.00     0.017 A 
HETATM   46  C9  UNL     1       0.788  51.671 -26.754  1.00  0.00     0.043 A 
HETATM   47  C10 UNL     1       0.464  52.863 -27.391  1.00  0.00     0.116 A 
HETATM   48  F1  UNL     1       0.527  52.934 -28.726  1.00  0.00    -0.206 F 
HETATM   49  C11 UNL     1       0.080  53.982 -26.662  1.00  0.00     0.043 A 
HETATM   50  C12 UNL     1       0.013  53.904 -25.270  1.00  0.00     0.017 A 
ENDBRANCH  41  44
ENDBRANCH  31  33
ENDBRANCH   1  29
TORSDOF 7
ENDMDL
