MODEL 1
REMARK minimizedAffinity -9.64011478
REMARK CNNscore 0.587259769
REMARK CNNaffinity 7.25738335
REMARK  7 active torsions:
REMARK  status: ('A' for Active; 'I' for Inactive)
REMARK    1  A    between atoms: C2_2  and  C3_3 
REMARK       I    between atoms: C3_3  and  N1_5 
REMARK    2  A    between atoms: N1_5  and  C4_6 
REMARK    3  A    between atoms: C8_13  and  C9_14 
REMARK    4  A    between atoms: N4_25  and  C19_26 
REMARK    5  A    between atoms: C19_26  and  C20_27 
REMARK       I    between atoms: C20_27  and  N5_29 
REMARK    6  A    between atoms: N6_32  and  C23_33 
REMARK    7  A    between atoms: C26_36  and  C27_37 
ROOT
HETATM    1  C1  UNL     1      -2.779  48.958 -17.513  1.00  0.00     0.027 C 
HETATM    2  C2  UNL     1      -2.419  49.026 -19.006  1.00  0.00     0.065 C 
HETATM    3  C17 UNL     1      -1.942  47.641 -19.492  1.00  0.00     0.051 C 
HETATM    4  C18 UNL     1      -2.723  47.390 -20.775  1.00  0.00     0.274 C 
HETATM    5  N4  UNL     1      -4.011  48.079 -20.593  1.00  0.00     0.098 N 
HETATM    6  C35 UNL     1      -3.645  49.319 -19.891  1.00  0.00     0.291 C 
ENDROOT
BRANCH   2   7
HETATM    7  C3  UNL     1      -1.346  50.120 -19.204  1.00  0.00     0.232 C 
HETATM    8  O1  UNL     1      -0.538  50.392 -18.322  1.00  0.00    -0.272 OA
HETATM    9  N1  UNL     1      -1.423  50.752 -20.438  1.00  0.00    -0.326 N 
HETATM   10  H4  UNL     1      -2.097  50.392 -21.100  1.00  0.00     0.169 HD
BRANCH   9  11
HETATM   11  C4  UNL     1      -0.629  51.820 -20.913  1.00  0.00     0.035 A 
HETATM   12  C5  UNL     1      -0.121  52.705 -19.952  1.00  0.00     0.032 A 
HETATM   13  C6  UNL     1       0.679  53.798 -20.304  1.00  0.00     0.034 A 
HETATM   14  C7  UNL     1       0.955  53.971 -21.660  1.00  0.00     0.060 A 
HETATM   15  N2  UNL     1       1.694  54.910 -22.322  1.00  0.00    -0.299 N 
HETATM   16  C15 UNL     1       0.476  53.121 -22.650  1.00  0.00     0.023 A 
HETATM   17  N3  UNL     1       1.752  54.737 -23.648  1.00  0.00    -0.299 N 
HETATM   18  H7  UNL     1       2.192  55.696 -21.921  1.00  0.00     0.187 HD
HETATM   19  C8  UNL     1       0.997  53.646 -23.877  1.00  0.00     0.070 A 
ATOM     20  H3  UNL     1       2.255  55.303 -24.331  1.00  0.00     0.187 HD
HETATM   21  C16 UNL     1      -0.323  52.021 -22.265  1.00  0.00     0.045 A 
BRANCH  19  22
HETATM   22  C9  UNL     1       0.815  53.143 -25.241  1.00  0.00    -0.007 A 
HETATM   23  C10 UNL     1       1.368  51.919 -25.649  1.00  0.00     0.017 A 
HETATM   24  C11 UNL     1       1.188  51.460 -26.956  1.00  0.00     0.043 A 
HETATM   25  C12 UNL     1       0.449  52.221 -27.856  1.00  0.00     0.116 A 
HETATM   26  F1  UNL     1       0.278  51.780 -29.108  1.00  0.00    -0.206 F 
HETATM   27  C13 UNL     1      -0.118  53.429 -27.472  1.00  0.00     0.043 A 
HETATM   28  C14 UNL     1       0.061  53.888 -26.165  1.00  0.00     0.017 A 
ENDBRANCH  19  22
ENDBRANCH   9  11
ENDBRANCH   2   7
BRANCH   5  29
HETATM   29  C19 UNL     1      -4.977  47.267 -19.823  1.00  0.00     0.374 C 
BRANCH  29  30
HETATM   30  C20 UNL     1      -5.467  46.059 -20.637  1.00  0.00     0.248 C 
HETATM   31  O2  UNL     1      -4.853  44.989 -20.571  1.00  0.00    -0.271 OA
HETATM   32  N5  UNL     1      -6.628  46.196 -21.390  1.00  0.00    -0.348 N 
HETATM   33  C21 UNL     1      -7.012  45.085 -22.269  1.00  0.00     0.140 C 
HETATM   34  C34 UNL     1      -7.209  47.490 -21.770  1.00  0.00     0.140 C 
HETATM   35  C22 UNL     1      -8.533  45.004 -22.483  1.00  0.00     0.115 C 
HETATM   36  N6  UNL     1      -9.073  46.307 -22.935  1.00  0.00    -0.280 NA
HETATM   37  C33 UNL     1      -8.730  47.412 -22.006  1.00  0.00     0.115 C 
BRANCH  36  38
HETATM   38  C23 UNL     1     -10.416  46.343 -23.350  1.00  0.00     0.010 A 
HETATM   39  C24 UNL     1     -11.437  46.320 -22.387  1.00  0.00     0.024 A 
HETATM   40  C25 UNL     1     -12.793  46.337 -22.744  1.00  0.00     0.017 A 
HETATM   41  C26 UNL     1     -13.198  46.388 -24.087  1.00  0.00     0.008 A 
HETATM   42  C31 UNL     1     -12.175  46.436 -25.048  1.00  0.00     0.017 A 
HETATM   43  C32 UNL     1     -10.817  46.420 -24.688  1.00  0.00     0.024 A 
BRANCH  41  44
HETATM   44  C27 UNL     1     -14.624  46.393 -24.469  1.00  0.00     0.115 A 
HETATM   45  N7  UNL     1     -15.429  47.315 -23.899  1.00  0.00    -0.352 N 
HETATM   46  C28 UNL     1     -16.722  47.300 -24.270  1.00  0.00     0.091 A 
ATOM     47  H7  UNL     1     -15.074  47.990 -23.221  1.00  0.00     0.166 HD
HETATM   48  C29 UNL     1     -17.241  46.412 -25.182  1.00  0.00     0.034 A 
HETATM   49  C30 UNL     1     -16.344  45.515 -25.707  1.00  0.00     0.091 A 
HETATM   50  N8  UNL     1     -15.040  45.482 -25.373  1.00  0.00    -0.352 N 
ATOM     51  H8  UNL     1     -14.399  44.803 -25.783  1.00  0.00     0.166 HD
ENDBRANCH  41  44
ENDBRANCH  36  38
ENDBRANCH  29  30
ENDBRANCH   5  29
TORSDOF 7
ENDMDL
MODEL 2
REMARK minimizedAffinity -9.12576008
REMARK CNNscore 0.415138721
REMARK CNNaffinity 6.92778397
REMARK  7 active torsions:
REMARK  status: ('A' for Active; 'I' for Inactive)
REMARK    1  A    between atoms: C2_2  and  C3_3 
REMARK       I    between atoms: C3_3  and  N1_5 
REMARK    2  A    between atoms: N1_5  and  C4_6 
REMARK    3  A    between atoms: C8_13  and  C9_14 
REMARK    4  A    between atoms: N4_25  and  C19_26 
REMARK    5  A    between atoms: C19_26  and  C20_27 
REMARK       I    between atoms: C20_27  and  N5_29 
REMARK    6  A    between atoms: N6_32  and  C23_33 
REMARK    7  A    between atoms: C26_36  and  C27_37 
ROOT
HETATM    1  C1  UNL     1      -2.187  47.435 -18.796  1.00  0.00     0.027 C 
HETATM    2  C2  UNL     1      -2.755  48.409 -19.841  1.00  0.00     0.065 C 
HETATM    3  C17 UNL     1      -3.512  47.620 -20.930  1.00  0.00     0.051 C 
HETATM    4  C18 UNL     1      -4.843  48.346 -21.080  1.00  0.00     0.274 C 
HETATM    5  N4  UNL     1      -5.144  48.894 -19.747  1.00  0.00     0.098 N 
HETATM    6  C35 UNL     1      -3.832  49.338 -19.250  1.00  0.00     0.291 C 
ENDROOT
BRANCH   2   7
HETATM    7  C3  UNL     1      -1.591  49.243 -20.420  1.00  0.00     0.232 C 
HETATM    8  O1  UNL     1      -0.564  48.712 -20.830  1.00  0.00    -0.272 OA
HETATM    9  N1  UNL     1      -1.826  50.611 -20.393  1.00  0.00    -0.326 N 
HETATM   10  H4  UNL     1      -2.739  50.917 -20.085  1.00  0.00     0.169 HD
BRANCH   9  11
HETATM   11  C4  UNL     1      -0.952  51.646 -20.797  1.00  0.00     0.035 A 
HETATM   12  C5  UNL     1      -0.424  52.458 -19.786  1.00  0.00     0.032 A 
HETATM   13  C6  UNL     1       0.454  53.512 -20.066  1.00  0.00     0.034 A 
HETATM   14  C7  UNL     1       0.785  53.721 -21.405  1.00  0.00     0.060 A 
HETATM   15  N2  UNL     1       1.602  54.637 -22.004  1.00  0.00    -0.299 N 
HETATM   16  C15 UNL     1       0.288  52.942 -22.444  1.00  0.00     0.023 A 
HETATM   17  N3  UNL     1       1.694  54.513 -23.333  1.00  0.00    -0.299 N 
HETATM   18  H7  UNL     1       2.133  55.374 -21.556  1.00  0.00     0.187 HD
HETATM   19  C8  UNL     1       0.882  53.482 -23.631  1.00  0.00     0.070 A 
ATOM     20  H3  UNL     1       2.253  55.074 -23.976  1.00  0.00     0.187 HD
HETATM   21  C16 UNL     1      -0.589  51.880 -22.130  1.00  0.00     0.045 A 
BRANCH  19  22
HETATM   22  C9  UNL     1       0.716  53.046 -25.020  1.00  0.00    -0.007 A 
HETATM   23  C10 UNL     1       0.033  53.837 -25.957  1.00  0.00     0.017 A 
HETATM   24  C11 UNL     1      -0.119  53.400 -27.276  1.00  0.00     0.043 A 
HETATM   25  C12 UNL     1       0.416  52.176 -27.661  1.00  0.00     0.116 A 
HETATM   26  F1  UNL     1       0.268  51.758 -28.924  1.00  0.00    -0.206 F 
HETATM   27  C13 UNL     1       1.106  51.382 -26.754  1.00  0.00     0.043 A 
HETATM   28  C14 UNL     1       1.260  51.819 -25.436  1.00  0.00     0.017 A 
ENDBRANCH  19  22
ENDBRANCH   9  11
ENDBRANCH   2   7
BRANCH   5  29
HETATM   29  C19 UNL     1      -5.767  47.892 -18.857  1.00  0.00     0.374 C 
BRANCH  29  30
HETATM   30  C20 UNL     1      -7.261  48.182 -18.645  1.00  0.00     0.248 C 
HETATM   31  O2  UNL     1      -7.614  48.924 -17.722  1.00  0.00    -0.271 OA
HETATM   32  N5  UNL     1      -8.175  47.636 -19.540  1.00  0.00    -0.348 N 
HETATM   33  C21 UNL     1      -9.604  47.804 -19.251  1.00  0.00     0.140 C 
HETATM   34  C34 UNL     1      -7.872  46.511 -20.434  1.00  0.00     0.140 C 
HETATM   35  C22 UNL     1     -10.462  47.823 -20.527  1.00  0.00     0.115 C 
HETATM   36  N6  UNL     1     -10.182  46.638 -21.370  1.00  0.00    -0.280 NA
HETATM   37  C33 UNL     1      -8.742  46.512 -21.705  1.00  0.00     0.115 C 
BRANCH  36  38
HETATM   38  C23 UNL     1     -11.020  46.418 -22.478  1.00  0.00     0.010 A 
HETATM   39  C24 UNL     1     -12.395  46.674 -22.365  1.00  0.00     0.024 A 
HETATM   40  C25 UNL     1     -13.279  46.458 -23.433  1.00  0.00     0.017 A 
HETATM   41  C26 UNL     1     -12.828  45.982 -24.674  1.00  0.00     0.008 A 
HETATM   42  C31 UNL     1     -11.448  45.750 -24.793  1.00  0.00     0.017 A 
HETATM   43  C32 UNL     1     -10.565  45.969 -23.722  1.00  0.00     0.024 A 
BRANCH  41  44
HETATM   44  C27 UNL     1     -13.756  45.739 -25.797  1.00  0.00     0.115 A 
HETATM   45  N7  UNL     1     -13.465  46.300 -26.990  1.00  0.00    -0.352 N 
HETATM   46  C28 UNL     1     -14.325  46.058 -27.996  1.00  0.00     0.091 A 
ATOM     47  H7  UNL     1     -12.635  46.879 -27.122  1.00  0.00     0.166 HD
HETATM   48  C29 UNL     1     -15.452  45.283 -27.864  1.00  0.00     0.034 A 
HETATM   49  C30 UNL     1     -15.660  44.755 -26.613  1.00  0.00     0.091 A 
HETATM   50  N8  UNL     1     -14.836  44.963 -25.569  1.00  0.00    -0.352 N 
ATOM     51  H8  UNL     1     -15.019  44.555 -24.652  1.00  0.00     0.166 HD
ENDBRANCH  41  44
ENDBRANCH  36  38
ENDBRANCH  29  30
ENDBRANCH   5  29
TORSDOF 7
ENDMDL
MODEL 3
REMARK minimizedAffinity -10.1824169
REMARK CNNscore 0.405461848
REMARK CNNaffinity 6.9863739
REMARK  7 active torsions:
REMARK  status: ('A' for Active; 'I' for Inactive)
REMARK    1  A    between atoms: C2_2  and  C3_3 
REMARK       I    between atoms: C3_3  and  N1_5 
REMARK    2  A    between atoms: N1_5  and  C4_6 
REMARK    3  A    between atoms: C8_13  and  C9_14 
REMARK    4  A    between atoms: N4_25  and  C19_26 
REMARK    5  A    between atoms: C19_26  and  C20_27 
REMARK       I    between atoms: C20_27  and  N5_29 
REMARK    6  A    between atoms: N6_32  and  C23_33 
REMARK    7  A    between atoms: C26_36  and  C27_37 
ROOT
HETATM    1  C1  UNL     1      -3.417  48.893 -17.959  1.00  0.00     0.027 C 
HETATM    2  C2  UNL     1      -3.685  49.499 -19.346  1.00  0.00     0.065 C 
HETATM    3  C17 UNL     1      -3.347  48.464 -20.441  1.00  0.00     0.051 C 
HETATM    4  C18 UNL     1      -4.554  48.474 -21.370  1.00  0.00     0.274 C 
HETATM    5  N4  UNL     1      -5.708  48.791 -20.512  1.00  0.00     0.098 N 
HETATM    6  C35 UNL     1      -5.179  49.796 -19.576  1.00  0.00     0.291 C 
ENDROOT
BRANCH   2   7
HETATM    7  C3  UNL     1      -2.856  50.795 -19.486  1.00  0.00     0.232 C 
HETATM    8  O1  UNL     1      -3.106  51.791 -18.816  1.00  0.00    -0.272 OA
HETATM    9  N1  UNL     1      -1.855  50.708 -20.444  1.00  0.00    -0.326 N 
HETATM   10  H4  UNL     1      -1.713  49.809 -20.885  1.00  0.00     0.169 HD
BRANCH   9  11
HETATM   11  C4  UNL     1      -0.958  51.722 -20.851  1.00  0.00     0.035 A 
HETATM   12  C5  UNL     1      -0.414  52.525 -19.840  1.00  0.00     0.032 A 
HETATM   13  C6  UNL     1       0.487  53.560 -20.123  1.00  0.00     0.034 A 
HETATM   14  C7  UNL     1       0.824  53.758 -21.462  1.00  0.00     0.060 A 
HETATM   15  N2  UNL     1       1.661  54.655 -22.061  1.00  0.00    -0.299 N 
HETATM   16  C15 UNL     1       0.312  52.987 -22.499  1.00  0.00     0.023 A 
HETATM   17  N3  UNL     1       1.752  54.525 -23.390  1.00  0.00    -0.299 N 
HETATM   18  H7  UNL     1       2.208  55.381 -21.615  1.00  0.00     0.187 HD
HETATM   19  C8  UNL     1       0.919  53.511 -23.687  1.00  0.00     0.070 A 
ATOM     20  H3  UNL     1       2.325  55.072 -24.034  1.00  0.00     0.187 HD
HETATM   21  C16 UNL     1      -0.589  51.945 -22.183  1.00  0.00     0.045 A 
BRANCH  19  22
HETATM   22  C9  UNL     1       0.745  53.075 -25.075  1.00  0.00    -0.007 A 
HETATM   23  C10 UNL     1       1.306  51.876 -25.540  1.00  0.00     0.017 A 
HETATM   24  C11 UNL     1       1.132  51.481 -26.869  1.00  0.00     0.043 A 
HETATM   25  C12 UNL     1       0.393  52.280 -27.733  1.00  0.00     0.116 A 
HETATM   26  F1  UNL     1       0.228  51.901 -29.006  1.00  0.00    -0.206 F 
HETATM   27  C13 UNL     1      -0.183  53.465 -27.292  1.00  0.00     0.043 A 
HETATM   28  C14 UNL     1      -0.011  53.860 -25.963  1.00  0.00     0.017 A 
ENDBRANCH  19  22
ENDBRANCH   9  11
ENDBRANCH   2   7
BRANCH   5  29
HETATM   29  C19 UNL     1      -6.231  47.599 -19.812  1.00  0.00     0.374 C 
BRANCH  29  30
HETATM   30  C20 UNL     1      -7.470  47.942 -18.970  1.00  0.00     0.248 C 
HETATM   31  O2  UNL     1      -7.345  48.643 -17.959  1.00  0.00    -0.271 OA
HETATM   32  N5  UNL     1      -8.711  47.491 -19.404  1.00  0.00    -0.348 N 
HETATM   33  C21 UNL     1      -9.866  47.705 -18.524  1.00  0.00     0.140 C 
HETATM   34  C34 UNL     1      -8.893  46.409 -20.380  1.00  0.00     0.140 C 
HETATM   35  C22 UNL     1     -11.184  47.837 -19.306  1.00  0.00     0.115 C 
HETATM   36  N6  UNL     1     -11.368  46.693 -20.228  1.00  0.00    -0.280 NA
HETATM   37  C33 UNL     1     -10.221  46.524 -21.153  1.00  0.00     0.115 C 
BRANCH  36  38
HETATM   38  C23 UNL     1     -12.611  46.577 -20.876  1.00  0.00     0.010 A 
HETATM   39  C24 UNL     1     -13.441  47.703 -20.983  1.00  0.00     0.024 A 
HETATM   40  C25 UNL     1     -14.697  47.641 -21.605  1.00  0.00     0.017 A 
HETATM   41  C26 UNL     1     -15.183  46.447 -22.160  1.00  0.00     0.008 A 
HETATM   42  C31 UNL     1     -14.340  45.327 -22.074  1.00  0.00     0.017 A 
HETATM   43  C32 UNL     1     -13.082  45.392 -21.452  1.00  0.00     0.024 A 
BRANCH  41  44
HETATM   44  C27 UNL     1     -16.510  46.373 -22.803  1.00  0.00     0.115 A 
HETATM   45  N7  UNL     1     -17.516  45.794 -22.114  1.00  0.00    -0.352 N 
HETATM   46  C28 UNL     1     -18.715  45.745 -22.723  1.00  0.00     0.091 A 
ATOM     47  H7  UNL     1     -17.374  45.414 -21.178  1.00  0.00     0.166 HD
HETATM   48  C29 UNL     1     -18.951  46.248 -23.979  1.00  0.00     0.034 A 
HETATM   49  C30 UNL     1     -17.866  46.818 -24.599  1.00  0.00     0.091 A 
HETATM   50  N8  UNL     1     -16.644  46.895 -24.040  1.00  0.00    -0.352 N 
ATOM     51  H8  UNL     1     -15.858  47.327 -24.527  1.00  0.00     0.166 HD
ENDBRANCH  41  44
ENDBRANCH  36  38
ENDBRANCH  29  30
ENDBRANCH   5  29
TORSDOF 7
ENDMDL
MODEL 4
REMARK minimizedAffinity -10.3084917
REMARK CNNscore 0.389077276
REMARK CNNaffinity 7.08592415
REMARK  7 active torsions:
REMARK  status: ('A' for Active; 'I' for Inactive)
REMARK    1  A    between atoms: C2_2  and  C3_3 
REMARK       I    between atoms: C3_3  and  N1_5 
REMARK    2  A    between atoms: N1_5  and  C4_6 
REMARK    3  A    between atoms: C8_13  and  C9_14 
REMARK    4  A    between atoms: N4_25  and  C19_26 
REMARK    5  A    between atoms: C19_26  and  C20_27 
REMARK       I    between atoms: C20_27  and  N5_29 
REMARK    6  A    between atoms: N6_32  and  C23_33 
REMARK    7  A    between atoms: C26_36  and  C27_37 
ROOT
HETATM    1  C1  UNL     1      -2.253  48.714 -17.260  1.00  0.00     0.027 C 
HETATM    2  C2  UNL     1      -2.378  49.122 -18.736  1.00  0.00     0.065 C 
HETATM    3  C17 UNL     1      -2.394  47.862 -19.626  1.00  0.00     0.051 C 
HETATM    4  C18 UNL     1      -3.576  48.065 -20.566  1.00  0.00     0.274 C 
HETATM    5  N4  UNL     1      -4.557  48.851 -19.800  1.00  0.00     0.098 N 
HETATM    6  C35 UNL     1      -3.726  49.801 -19.044  1.00  0.00     0.291 C 
ENDROOT
BRANCH   2   7
HETATM    7  C3  UNL     1      -1.211  50.073 -19.084  1.00  0.00     0.232 C 
HETATM    8  O1  UNL     1      -0.162  50.060 -18.449  1.00  0.00    -0.272 OA
HETATM    9  N1  UNL     1      -1.493  50.929 -20.141  1.00  0.00    -0.326 N 
HETATM   10  H4  UNL     1      -2.373  50.797 -20.620  1.00  0.00     0.169 HD
BRANCH   9  11
HETATM   11  C4  UNL     1      -0.668  51.946 -20.672  1.00  0.00     0.035 A 
HETATM   12  C5  UNL     1      -0.100  52.841 -19.757  1.00  0.00     0.032 A 
HETATM   13  C6  UNL     1       0.736  53.887 -20.167  1.00  0.00     0.034 A 
HETATM   14  C7  UNL     1       0.984  54.000 -21.535  1.00  0.00     0.060 A 
HETATM   15  N2  UNL     1       1.744  54.884 -22.247  1.00  0.00    -0.299 N 
HETATM   16  C15 UNL     1       0.446  53.136 -22.481  1.00  0.00     0.023 A 
HETATM   17  N3  UNL     1       1.761  54.661 -23.567  1.00  0.00    -0.299 N 
HETATM   18  H7  UNL     1       2.284  55.661 -21.888  1.00  0.00     0.187 HD
HETATM   19  C8  UNL     1       0.957  53.596 -23.739  1.00  0.00     0.070 A 
ATOM     20  H3  UNL     1       2.270  55.182 -24.282  1.00  0.00     0.187 HD
HETATM   21  C16 UNL     1      -0.388  52.086 -22.038  1.00  0.00     0.045 A 
BRANCH  19  22
HETATM   22  C9  UNL     1       0.720  53.053 -25.079  1.00  0.00    -0.007 A 
HETATM   23  C10 UNL     1       1.085  51.739 -25.410  1.00  0.00     0.017 A 
HETATM   24  C11 UNL     1       0.855  51.243 -26.696  1.00  0.00     0.043 A 
HETATM   25  C12 UNL     1       0.255  52.057 -27.650  1.00  0.00     0.116 A 
HETATM   26  F1  UNL     1       0.036  51.580 -28.882  1.00  0.00    -0.206 F 
HETATM   27  C13 UNL     1      -0.126  53.356 -27.342  1.00  0.00     0.043 A 
HETATM   28  C14 UNL     1       0.102  53.853 -26.057  1.00  0.00     0.017 A 
ENDBRANCH  19  22
ENDBRANCH   9  11
ENDBRANCH   2   7
BRANCH   5  29
HETATM   29  C19 UNL     1      -5.382  48.005 -18.913  1.00  0.00     0.374 C 
BRANCH  29  30
HETATM   30  C20 UNL     1      -6.042  46.854 -19.690  1.00  0.00     0.248 C 
HETATM   31  O2  UNL     1      -5.379  45.850 -19.972  1.00  0.00    -0.271 OA
HETATM   32  N5  UNL     1      -7.391  46.960 -20.010  1.00  0.00    -0.348 N 
HETATM   33  C21 UNL     1      -7.977  45.925 -20.869  1.00  0.00     0.140 C 
HETATM   34  C34 UNL     1      -8.137  48.225 -20.001  1.00  0.00     0.140 C 
HETATM   35  C22 UNL     1      -9.477  45.718 -20.599  1.00  0.00     0.115 C 
HETATM   36  N6  UNL     1     -10.208  47.003 -20.669  1.00  0.00    -0.280 NA
HETATM   37  C33 UNL     1      -9.644  48.024 -19.752  1.00  0.00     0.115 C 
BRANCH  36  38
HETATM   38  C23 UNL     1     -11.613  46.952 -20.628  1.00  0.00     0.010 A 
HETATM   39  C24 UNL     1     -12.328  48.034 -20.093  1.00  0.00     0.024 A 
HETATM   40  C25 UNL     1     -13.728  48.030 -20.011  1.00  0.00     0.017 A 
HETATM   41  C26 UNL     1     -14.487  46.943 -20.472  1.00  0.00     0.008 A 
HETATM   42  C31 UNL     1     -13.772  45.872 -21.031  1.00  0.00     0.017 A 
HETATM   43  C32 UNL     1     -12.369  45.879 -21.112  1.00  0.00     0.024 A 
BRANCH  41  44
HETATM   44  C27 UNL     1     -15.960  46.928 -20.378  1.00  0.00     0.115 A 
HETATM   45  N7  UNL     1     -16.527  47.399 -19.246  1.00  0.00    -0.352 N 
HETATM   46  C28 UNL     1     -17.871  47.377 -19.190  1.00  0.00     0.091 A 
ATOM     47  H7  UNL     1     -15.964  47.753 -18.473  1.00  0.00     0.166 HD
HETATM   48  C29 UNL     1     -18.667  46.913 -20.208  1.00  0.00     0.034 A 
HETATM   49  C30 UNL     1     -17.999  46.457 -21.318  1.00  0.00     0.091 A 
HETATM   50  N8  UNL     1     -16.657  46.453 -21.431  1.00  0.00    -0.352 N 
ATOM     51  H8  UNL     1     -16.191  46.108 -22.270  1.00  0.00     0.166 HD
ENDBRANCH  41  44
ENDBRANCH  36  38
ENDBRANCH  29  30
ENDBRANCH   5  29
TORSDOF 7
ENDMDL
MODEL 5
REMARK minimizedAffinity -10.5567284
REMARK CNNscore 0.298106819
REMARK CNNaffinity 7.1777215
REMARK  7 active torsions:
REMARK  status: ('A' for Active; 'I' for Inactive)
REMARK    1  A    between atoms: C2_2  and  C3_3 
REMARK       I    between atoms: C3_3  and  N1_5 
REMARK    2  A    between atoms: N1_5  and  C4_6 
REMARK    3  A    between atoms: C8_13  and  C9_14 
REMARK    4  A    between atoms: N4_25  and  C19_26 
REMARK    5  A    between atoms: C19_26  and  C20_27 
REMARK       I    between atoms: C20_27  and  N5_29 
REMARK    6  A    between atoms: N6_32  and  C23_33 
REMARK    7  A    between atoms: C26_36  and  C27_37 
ROOT
HETATM    1  C1  UNL     1      -1.666  47.694 -20.238  1.00  0.00     0.027 C 
HETATM    2  C2  UNL     1      -2.224  48.952 -19.554  1.00  0.00     0.065 C 
HETATM    3  C17 UNL     1      -3.742  48.792 -19.327  1.00  0.00     0.051 C 
HETATM    4  C18 UNL     1      -3.961  49.191 -17.873  1.00  0.00     0.274 C 
HETATM    5  N4  UNL     1      -2.725  48.810 -17.170  1.00  0.00     0.098 N 
HETATM    6  C35 UNL     1      -1.662  49.143 -18.132  1.00  0.00     0.291 C 
ENDROOT
BRANCH   2   7
HETATM    7  C3  UNL     1      -1.886  50.179 -20.430  1.00  0.00     0.232 C 
HETATM    8  O1  UNL     1      -2.609  50.522 -21.359  1.00  0.00    -0.272 OA
HETATM    9  N1  UNL     1      -0.698  50.802 -20.072  1.00  0.00    -0.326 N 
HETATM   10  H4  UNL     1      -0.226  50.457 -19.247  1.00  0.00     0.169 HD
BRANCH   9  11
HETATM   11  C4  UNL     1      -0.082  51.911 -20.695  1.00  0.00     0.035 A 
HETATM   12  C5  UNL     1       0.420  52.911 -19.852  1.00  0.00     0.032 A 
HETATM   13  C6  UNL     1       1.052  54.054 -20.356  1.00  0.00     0.034 A 
HETATM   14  C7  UNL     1       1.164  54.156 -21.742  1.00  0.00     0.060 A 
HETATM   15  N2  UNL     1       1.720  55.117 -22.537  1.00  0.00    -0.299 N 
HETATM   16  C15 UNL     1       0.684  53.191 -22.619  1.00  0.00     0.023 A 
HETATM   17  N3  UNL     1       1.660  54.855 -23.848  1.00  0.00    -0.299 N 
HETATM   18  H7  UNL     1       2.166  55.978 -22.243  1.00  0.00     0.187 HD
HETATM   19  C8  UNL     1       1.014  53.678 -23.927  1.00  0.00     0.070 A 
ATOM     20  H3  UNL     1       2.023  55.421 -24.616  1.00  0.00     0.187 HD
HETATM   21  C16 UNL     1       0.058  52.044 -22.082  1.00  0.00     0.045 A 
BRANCH  19  22
HETATM   22  C9  UNL     1       0.750  53.061 -25.229  1.00  0.00    -0.007 A 
HETATM   23  C10 UNL     1       1.264  51.797 -25.557  1.00  0.00     0.017 A 
HETATM   24  C11 UNL     1       1.005  51.229 -26.807  1.00  0.00     0.043 A 
HETATM   25  C12 UNL     1       0.226  51.920 -27.728  1.00  0.00     0.116 A 
HETATM   26  F1  UNL     1      -0.021  51.375 -28.926  1.00  0.00    -0.206 F 
HETATM   27  C13 UNL     1      -0.305  53.167 -27.421  1.00  0.00     0.043 A 
HETATM   28  C14 UNL     1      -0.047  53.735 -26.172  1.00  0.00     0.017 A 
ENDBRANCH  19  22
ENDBRANCH   9  11
ENDBRANCH   2   7
BRANCH   5  29
HETATM   29  C19 UNL     1      -2.710  47.380 -16.798  1.00  0.00     0.374 C 
BRANCH  29  30
HETATM   30  C20 UNL     1      -2.466  47.196 -15.291  1.00  0.00     0.248 C 
HETATM   31  O2  UNL     1      -2.610  46.079 -14.782  1.00  0.00    -0.271 OA
HETATM   32  N5  UNL     1      -2.037  48.293 -14.552  1.00  0.00    -0.348 N 
HETATM   33  C21 UNL     1      -1.939  48.144 -13.095  1.00  0.00     0.140 C 
HETATM   34  C34 UNL     1      -2.160  49.684 -15.005  1.00  0.00     0.140 C 
HETATM   35  C22 UNL     1      -0.864  49.056 -12.482  1.00  0.00     0.115 C 
HETATM   36  N6  UNL     1      -1.062  50.462 -12.904  1.00  0.00    -0.280 NA
HETATM   37  C33 UNL     1      -1.098  50.609 -14.379  1.00  0.00     0.115 C 
BRANCH  36  38
HETATM   38  C23 UNL     1      -0.270  51.443 -12.279  1.00  0.00     0.010 A 
HETATM   39  C24 UNL     1      -0.853  52.662 -11.901  1.00  0.00     0.024 A 
HETATM   40  C25 UNL     1      -0.108  53.682 -11.291  1.00  0.00     0.017 A 
HETATM   41  C26 UNL     1       1.260  53.528 -11.018  1.00  0.00     0.008 A 
HETATM   42  C31 UNL     1       1.836  52.298 -11.373  1.00  0.00     0.017 A 
HETATM   43  C32 UNL     1       1.087  51.278 -11.984  1.00  0.00     0.024 A 
BRANCH  41  44
HETATM   44  C27 UNL     1       2.053  54.603 -10.387  1.00  0.00     0.115 A 
HETATM   45  N7  UNL     1       2.052  54.682  -9.039  1.00  0.00    -0.352 N 
HETATM   46  C28 UNL     1       2.787  55.667  -8.492  1.00  0.00     0.091 A 
ATOM     47  H7  UNL     1       1.521  54.027  -8.465  1.00  0.00     0.166 HD
HETATM   48  C29 UNL     1       3.519  56.567  -9.227  1.00  0.00     0.034 A 
HETATM   49  C30 UNL     1       3.457  56.404 -10.589  1.00  0.00     0.091 A 
HETATM   50  N8  UNL     1       2.740  55.439 -11.193  1.00  0.00    -0.352 N 
ATOM     51  H8  UNL     1       2.716  55.344 -12.208  1.00  0.00     0.166 HD
ENDBRANCH  41  44
ENDBRANCH  36  38
ENDBRANCH  29  30
ENDBRANCH   5  29
TORSDOF 7
ENDMDL
MODEL 6
REMARK minimizedAffinity -9.63379669
REMARK CNNscore 0.268068582
REMARK CNNaffinity 6.72054052
REMARK  7 active torsions:
REMARK  status: ('A' for Active; 'I' for Inactive)
REMARK    1  A    between atoms: C2_2  and  C3_3 
REMARK       I    between atoms: C3_3  and  N1_5 
REMARK    2  A    between atoms: N1_5  and  C4_6 
REMARK    3  A    between atoms: C8_13  and  C9_14 
REMARK    4  A    between atoms: N4_25  and  C19_26 
REMARK    5  A    between atoms: C19_26  and  C20_27 
REMARK       I    between atoms: C20_27  and  N5_29 
REMARK    6  A    between atoms: N6_32  and  C23_33 
REMARK    7  A    between atoms: C26_36  and  C27_37 
ROOT
HETATM    1  C1  UNL     1      -3.121  46.866 -18.784  1.00  0.00     0.027 C 
HETATM    2  C2  UNL     1      -3.301  47.767 -20.017  1.00  0.00     0.065 C 
HETATM    3  C17 UNL     1      -3.554  46.897 -21.266  1.00  0.00     0.051 C 
HETATM    4  C18 UNL     1      -4.765  47.529 -21.941  1.00  0.00     0.274 C 
HETATM    5  N4  UNL     1      -5.570  48.099 -20.848  1.00  0.00     0.098 N 
HETATM    6  C35 UNL     1      -4.564  48.643 -19.922  1.00  0.00     0.291 C 
ENDROOT
BRANCH   2   7
HETATM    7  C3  UNL     1      -2.045  48.656 -20.164  1.00  0.00     0.232 C 
HETATM    8  O1  UNL     1      -0.922  48.222 -19.931  1.00  0.00    -0.272 OA
HETATM    9  N1  UNL     1      -2.334  49.959 -20.545  1.00  0.00    -0.326 N 
HETATM   10  H4  UNL     1      -3.298  50.174 -20.765  1.00  0.00     0.169 HD
BRANCH   9  11
HETATM   11  C4  UNL     1      -1.428  51.029 -20.719  1.00  0.00     0.035 A 
HETATM   12  C5  UNL     1      -0.976  51.669 -19.557  1.00  0.00     0.032 A 
HETATM   13  C6  UNL     1      -0.075  52.739 -19.604  1.00  0.00     0.034 A 
HETATM   14  C7  UNL     1       0.360  53.145 -20.866  1.00  0.00     0.060 A 
HETATM   15  N2  UNL     1       1.224  54.129 -21.252  1.00  0.00    -0.299 N 
HETATM   16  C15 UNL     1      -0.057  52.542 -22.047  1.00  0.00     0.023 A 
HETATM   17  N3  UNL     1       1.419  54.208 -22.574  1.00  0.00    -0.299 N 
HETATM   18  H7  UNL     1       1.723  54.780 -20.657  1.00  0.00     0.187 HD
HETATM   19  C8  UNL     1       0.629  53.248 -23.088  1.00  0.00     0.070 A 
ATOM     20  H3  UNL     1       2.029  54.851 -23.079  1.00  0.00     0.187 HD
HETATM   21  C16 UNL     1      -0.961  51.459 -21.967  1.00  0.00     0.045 A 
BRANCH  19  22
HETATM   22  C9  UNL     1       0.569  53.032 -24.536  1.00  0.00    -0.007 A 
HETATM   23  C10 UNL     1       0.124  54.038 -25.407  1.00  0.00     0.017 A 
HETATM   24  C11 UNL     1       0.070  53.810 -26.785  1.00  0.00     0.043 A 
HETATM   25  C12 UNL     1       0.466  52.579 -27.294  1.00  0.00     0.116 A 
HETATM   26  F1  UNL     1       0.413  52.361 -28.614  1.00  0.00    -0.206 F 
HETATM   27  C13 UNL     1       0.922  51.572 -26.453  1.00  0.00     0.043 A 
HETATM   28  C14 UNL     1       0.978  51.800 -25.076  1.00  0.00     0.017 A 
ENDBRANCH  19  22
ENDBRANCH   9  11
ENDBRANCH   2   7
BRANCH   5  29
HETATM   29  C19 UNL     1      -6.433  47.088 -20.202  1.00  0.00     0.374 C 
BRANCH  29  30
HETATM   30  C20 UNL     1      -7.334  46.382 -21.228  1.00  0.00     0.248 C 
HETATM   31  O2  UNL     1      -6.830  45.616 -22.056  1.00  0.00    -0.271 OA
HETATM   32  N5  UNL     1      -8.707  46.591 -21.157  1.00  0.00    -0.348 N 
HETATM   33  C21 UNL     1      -9.543  46.025 -22.222  1.00  0.00     0.140 C 
HETATM   34  C34 UNL     1      -9.328  47.710 -20.437  1.00  0.00     0.140 C 
HETATM   35  C22 UNL     1     -10.964  45.692 -21.737  1.00  0.00     0.115 C 
HETATM   36  N6  UNL     1     -11.586  46.864 -21.080  1.00  0.00    -0.280 NA
HETATM   37  C33 UNL     1     -10.760  47.391 -19.966  1.00  0.00     0.115 C 
BRANCH  36  38
HETATM   38  C23 UNL     1     -12.951  46.773 -20.749  1.00  0.00     0.010 A 
HETATM   39  C24 UNL     1     -13.329  46.158 -19.546  1.00  0.00     0.024 A 
HETATM   40  C25 UNL     1     -14.675  46.025 -19.173  1.00  0.00     0.017 A 
HETATM   41  C26 UNL     1     -15.712  46.511 -19.984  1.00  0.00     0.008 A 
HETATM   42  C31 UNL     1     -15.331  47.148 -21.176  1.00  0.00     0.017 A 
HETATM   43  C32 UNL     1     -13.982  47.281 -21.546  1.00  0.00     0.024 A 
BRANCH  41  44
HETATM   44  C27 UNL     1     -17.131  46.362 -19.603  1.00  0.00     0.115 A 
HETATM   45  N7  UNL     1     -17.564  45.136 -19.239  1.00  0.00    -0.352 N 
HETATM   46  C28 UNL     1     -18.859  45.031 -18.892  1.00  0.00     0.091 A 
ATOM     47  H7  UNL     1     -16.939  44.330 -19.227  1.00  0.00     0.166 HD
HETATM   48  C29 UNL     1     -19.734  46.091 -18.890  1.00  0.00     0.034 A 
HETATM   49  C30 UNL     1     -19.200  47.296 -19.274  1.00  0.00     0.091 A 
HETATM   50  N8  UNL     1     -17.913  47.461 -19.632  1.00  0.00    -0.352 N 
ATOM     51  H8  UNL     1     -17.547  48.372 -19.911  1.00  0.00     0.166 HD
ENDBRANCH  41  44
ENDBRANCH  36  38
ENDBRANCH  29  30
ENDBRANCH   5  29
TORSDOF 7
ENDMDL
MODEL 7
REMARK minimizedAffinity -9.93311119
REMARK CNNscore 0.25266853
REMARK CNNaffinity 6.51635027
REMARK  7 active torsions:
REMARK  status: ('A' for Active; 'I' for Inactive)
REMARK    1  A    between atoms: C2_2  and  C3_3 
REMARK       I    between atoms: C3_3  and  N1_5 
REMARK    2  A    between atoms: N1_5  and  C4_6 
REMARK    3  A    between atoms: C8_13  and  C9_14 
REMARK    4  A    between atoms: N4_25  and  C19_26 
REMARK    5  A    between atoms: C19_26  and  C20_27 
REMARK       I    between atoms: C20_27  and  N5_29 
REMARK    6  A    between atoms: N6_32  and  C23_33 
REMARK    7  A    between atoms: C26_36  and  C27_37 
ROOT
HETATM    1  C1  UNL     1      -3.568  48.718 -24.357  1.00  0.00     0.027 C 
HETATM    2  C2  UNL     1      -4.487  49.388 -23.322  1.00  0.00     0.065 C 
HETATM    3  C17 UNL     1      -5.747  49.938 -24.023  1.00  0.00     0.051 C 
HETATM    4  C18 UNL     1      -6.910  49.445 -23.171  1.00  0.00     0.274 C 
HETATM    5  N4  UNL     1      -6.469  48.157 -22.611  1.00  0.00     0.098 N 
HETATM    6  C35 UNL     1      -5.048  48.382 -22.300  1.00  0.00     0.291 C 
ENDROOT
BRANCH   2   7
HETATM    7  C3  UNL     1      -3.687  50.494 -22.598  1.00  0.00     0.232 C 
HETATM    8  O1  UNL     1      -4.248  51.382 -21.967  1.00  0.00    -0.272 OA
HETATM    9  N1  UNL     1      -2.313  50.381 -22.768  1.00  0.00    -0.326 N 
HETATM   10  H4  UNL     1      -1.973  49.567 -23.262  1.00  0.00     0.169 HD
BRANCH   9  11
HETATM   11  C4  UNL     1      -1.309  51.250 -22.284  1.00  0.00     0.035 A 
HETATM   12  C5  UNL     1      -0.732  52.128 -23.211  1.00  0.00     0.032 A 
HETATM   13  C6  UNL     1       0.270  53.035 -22.846  1.00  0.00     0.034 A 
HETATM   14  C7  UNL     1       0.671  53.032 -21.510  1.00  0.00     0.060 A 
HETATM   15  N2  UNL     1       1.597  53.780 -20.841  1.00  0.00    -0.299 N 
HETATM   16  C15 UNL     1       0.129  52.182 -20.553  1.00  0.00     0.023 A 
HETATM   17  N3  UNL     1       1.692  53.505 -19.535  1.00  0.00    -0.299 N 
HETATM   18  H7  UNL     1       2.195  54.504 -21.221  1.00  0.00     0.187 HD
HETATM   19  C8  UNL     1       0.806  52.514 -19.334  1.00  0.00     0.070 A 
ATOM     20  H3  UNL     1       2.300  53.949 -18.845  1.00  0.00     0.187 HD
HETATM   21  C16 UNL     1      -0.886  51.283 -20.948  1.00  0.00     0.045 A 
BRANCH  19  22
HETATM   22  C9  UNL     1       0.628  51.935 -18.000  1.00  0.00    -0.007 A 
HETATM   23  C10 UNL     1      -0.154  50.787 -17.799  1.00  0.00     0.017 A 
HETATM   24  C11 UNL     1      -0.315  50.254 -16.518  1.00  0.00     0.043 A 
HETATM   25  C12 UNL     1       0.311  50.864 -15.436  1.00  0.00     0.116 A 
HETATM   26  F1  UNL     1       0.156  50.352 -14.208  1.00  0.00    -0.206 F 
HETATM   27  C13 UNL     1       1.101  51.993 -15.612  1.00  0.00     0.043 A 
HETATM   28  C14 UNL     1       1.263  52.525 -16.893  1.00  0.00     0.017 A 
ENDBRANCH  19  22
ENDBRANCH   9  11
ENDBRANCH   2   7
BRANCH   5  29
HETATM   29  C19 UNL     1      -6.661  47.039 -23.558  1.00  0.00     0.374 C 
BRANCH  29  30
HETATM   30  C20 UNL     1      -7.363  47.507 -24.843  1.00  0.00     0.248 C 
HETATM   31  O2  UNL     1      -6.684  47.887 -25.804  1.00  0.00    -0.271 OA
HETATM   32  N5  UNL     1      -8.750  47.440 -24.902  1.00  0.00    -0.348 N 
HETATM   33  C21 UNL     1      -9.417  48.016 -26.075  1.00  0.00     0.140 C 
HETATM   34  C34 UNL     1      -9.614  47.319 -23.721  1.00  0.00     0.140 C 
HETATM   35  C22 UNL     1     -10.750  47.319 -26.394  1.00  0.00     0.115 C 
HETATM   36  N6  UNL     1     -11.624  47.279 -25.200  1.00  0.00    -0.280 NA
HETATM   37  C33 UNL     1     -10.961  46.639 -24.037  1.00  0.00     0.115 C 
BRANCH  36  38
HETATM   38  C23 UNL     1     -12.948  46.839 -25.380  1.00  0.00     0.010 A 
HETATM   39  C24 UNL     1     -13.334  46.301 -26.617  1.00  0.00     0.024 A 
HETATM   40  C25 UNL     1     -14.644  45.862 -26.858  1.00  0.00     0.017 A 
HETATM   41  C26 UNL     1     -15.635  45.930 -25.866  1.00  0.00     0.008 A 
HETATM   42  C31 UNL     1     -15.240  46.445 -24.621  1.00  0.00     0.017 A 
HETATM   43  C32 UNL     1     -13.927  46.884 -24.382  1.00  0.00     0.024 A 
BRANCH  41  44
HETATM   44  C27 UNL     1     -17.019  45.482 -26.118  1.00  0.00     0.115 A 
HETATM   45  N7  UNL     1     -17.961  45.790 -25.201  1.00  0.00    -0.352 N 
HETATM   46  C28 UNL     1     -19.214  45.373 -25.459  1.00  0.00     0.091 A 
ATOM     47  H7  UNL     1     -17.734  46.313 -24.355  1.00  0.00     0.166 HD
HETATM   48  C29 UNL     1     -19.564  44.670 -26.586  1.00  0.00     0.034 A 
HETATM   49  C30 UNL     1     -18.537  44.406 -27.459  1.00  0.00     0.091 A 
HETATM   50  N8  UNL     1     -17.266  44.797 -27.254  1.00  0.00    -0.352 N 
ATOM     51  H8  UNL     1     -16.526  44.586 -27.924  1.00  0.00     0.166 HD
ENDBRANCH  41  44
ENDBRANCH  36  38
ENDBRANCH  29  30
ENDBRANCH   5  29
TORSDOF 7
ENDMDL
MODEL 8
REMARK minimizedAffinity -10.064146
REMARK CNNscore 0.250926673
REMARK CNNaffinity 6.97096872
REMARK  7 active torsions:
REMARK  status: ('A' for Active; 'I' for Inactive)
REMARK    1  A    between atoms: C2_2  and  C3_3 
REMARK       I    between atoms: C3_3  and  N1_5 
REMARK    2  A    between atoms: N1_5  and  C4_6 
REMARK    3  A    between atoms: C8_13  and  C9_14 
REMARK    4  A    between atoms: N4_25  and  C19_26 
REMARK    5  A    between atoms: C19_26  and  C20_27 
REMARK       I    between atoms: C20_27  and  N5_29 
REMARK    6  A    between atoms: N6_32  and  C23_33 
REMARK    7  A    between atoms: C26_36  and  C27_37 
ROOT
HETATM    1  C1  UNL     1       1.078  51.855 -16.471  1.00  0.00     0.027 C 
HETATM    2  C2  UNL     1       0.052  50.844 -17.009  1.00  0.00     0.065 C 
HETATM    3  C17 UNL     1       0.447  49.418 -16.574  1.00  0.00     0.051 C 
HETATM    4  C18 UNL     1      -0.833  48.816 -16.010  1.00  0.00     0.274 C 
HETATM    5  N4  UNL     1      -1.579  49.946 -15.433  1.00  0.00     0.098 N 
HETATM    6  C35 UNL     1      -1.344  51.040 -16.388  1.00  0.00     0.291 C 
ENDROOT
BRANCH   2   7
HETATM    7  C3  UNL     1      -0.023  50.991 -18.546  1.00  0.00     0.232 C 
HETATM    8  O1  UNL     1      -0.408  50.071 -19.259  1.00  0.00    -0.272 OA
HETATM    9  N1  UNL     1       0.411  52.228 -19.004  1.00  0.00    -0.326 N 
HETATM   10  H4  UNL     1       0.646  52.922 -18.307  1.00  0.00     0.169 HD
BRANCH   9  11
HETATM   11  C4  UNL     1       0.516  52.664 -20.344  1.00  0.00     0.035 A 
HETATM   12  C5  UNL     1       1.357  53.758 -20.587  1.00  0.00     0.032 A 
HETATM   13  C6  UNL     1       1.542  54.276 -21.875  1.00  0.00     0.034 A 
HETATM   14  C7  UNL     1       0.850  53.653 -22.914  1.00  0.00     0.060 A 
HETATM   15  N2  UNL     1       0.817  53.901 -24.256  1.00  0.00    -0.299 N 
HETATM   16  C15 UNL     1       0.006  52.565 -22.723  1.00  0.00     0.023 A 
HETATM   17  N3  UNL     1       0.042  53.063 -24.955  1.00  0.00    -0.299 N 
HETATM   18  H7  UNL     1       1.309  54.628 -24.760  1.00  0.00     0.187 HD
HETATM   19  C8  UNL     1      -0.480  52.237 -24.031  1.00  0.00     0.070 A 
ATOM     20  H3  UNL     1      -0.116  53.052 -25.963  1.00  0.00     0.187 HD
HETATM   21  C16 UNL     1      -0.154  52.058 -21.414  1.00  0.00     0.045 A 
BRANCH  19  22
HETATM   22  C9  UNL     1      -1.401  51.168 -24.425  1.00  0.00    -0.007 A 
HETATM   23  C10 UNL     1      -1.990  51.145 -25.699  1.00  0.00     0.017 A 
HETATM   24  C11 UNL     1      -2.871  50.119 -26.054  1.00  0.00     0.043 A 
HETATM   25  C12 UNL     1      -3.159  49.114 -25.138  1.00  0.00     0.116 A 
HETATM   26  F1  UNL     1      -4.003  48.132 -25.480  1.00  0.00    -0.206 F 
HETATM   27  C13 UNL     1      -2.578  49.109 -23.877  1.00  0.00     0.043 A 
HETATM   28  C14 UNL     1      -1.697  50.133 -23.522  1.00  0.00     0.017 A 
ENDBRANCH  19  22
ENDBRANCH   9  11
ENDBRANCH   2   7
BRANCH   5  29
HETATM   29  C19 UNL     1      -1.116  50.287 -14.072  1.00  0.00     0.374 C 
BRANCH  29  30
HETATM   30  C20 UNL     1      -2.228  50.964 -13.254  1.00  0.00     0.248 C 
HETATM   31  O2  UNL     1      -3.407  50.658 -13.459  1.00  0.00    -0.271 OA
HETATM   32  N5  UNL     1      -1.863  51.871 -12.265  1.00  0.00    -0.348 N 
HETATM   33  C21 UNL     1      -2.932  52.613 -11.586  1.00  0.00     0.140 C 
HETATM   34  C34 UNL     1      -0.545  52.514 -12.190  1.00  0.00     0.140 C 
HETATM   35  C22 UNL     1      -2.552  53.004 -10.148  1.00  0.00     0.115 C 
HETATM   36  N6  UNL     1      -1.253  53.713 -10.119  1.00  0.00    -0.280 NA
HETATM   37  C33 UNL     1      -0.167  52.927 -10.755  1.00  0.00     0.115 C 
BRANCH  36  38
HETATM   38  C23 UNL     1      -0.860  54.297  -8.901  1.00  0.00     0.010 A 
HETATM   39  C24 UNL     1      -0.939  53.545  -7.719  1.00  0.00     0.024 A 
HETATM   40  C25 UNL     1      -0.576  54.081  -6.474  1.00  0.00     0.017 A 
HETATM   41  C26 UNL     1      -0.105  55.397  -6.351  1.00  0.00     0.008 A 
HETATM   42  C31 UNL     1      -0.002  56.140  -7.539  1.00  0.00     0.017 A 
HETATM   43  C32 UNL     1      -0.366  55.600  -8.784  1.00  0.00     0.024 A 
BRANCH  41  44
HETATM   44  C27 UNL     1       0.266  55.971  -5.042  1.00  0.00     0.115 A 
HETATM   45  N7  UNL     1       0.824  55.151  -4.127  1.00  0.00    -0.352 N 
HETATM   46  C28 UNL     1       1.157  55.702  -2.946  1.00  0.00     0.091 A 
ATOM     47  H7  UNL     1       0.986  54.163  -4.321  1.00  0.00     0.166 HD
HETATM   48  C29 UNL     1       0.960  57.028  -2.643  1.00  0.00     0.034 A 
HETATM   49  C30 UNL     1       0.388  57.781  -3.638  1.00  0.00     0.091 A 
HETATM   50  N8  UNL     1       0.034  57.285  -4.839  1.00  0.00    -0.352 N 
ATOM     51  H8  UNL     1      -0.388  57.872  -5.558  1.00  0.00     0.166 HD
ENDBRANCH  41  44
ENDBRANCH  36  38
ENDBRANCH  29  30
ENDBRANCH   5  29
TORSDOF 7
ENDMDL
MODEL 9
REMARK minimizedAffinity -10.0715342
REMARK CNNscore 0.242819026
REMARK CNNaffinity 7.08722305
REMARK  7 active torsions:
REMARK  status: ('A' for Active; 'I' for Inactive)
REMARK    1  A    between atoms: C2_2  and  C3_3 
REMARK       I    between atoms: C3_3  and  N1_5 
REMARK    2  A    between atoms: N1_5  and  C4_6 
REMARK    3  A    between atoms: C8_13  and  C9_14 
REMARK    4  A    between atoms: N4_25  and  C19_26 
REMARK    5  A    between atoms: C19_26  and  C20_27 
REMARK       I    between atoms: C20_27  and  N5_29 
REMARK    6  A    between atoms: N6_32  and  C23_33 
REMARK    7  A    between atoms: C26_36  and  C27_37 
ROOT
HETATM    1  C1  UNL     1      -2.158  47.388 -19.511  1.00  0.00     0.027 C 
HETATM    2  C2  UNL     1      -2.661  48.831 -19.349  1.00  0.00     0.065 C 
HETATM    3  C17 UNL     1      -3.817  49.094 -20.336  1.00  0.00     0.051 C 
HETATM    4  C18 UNL     1      -4.908  49.740 -19.492  1.00  0.00     0.274 C 
HETATM    5  N4  UNL     1      -4.757  49.165 -18.145  1.00  0.00     0.098 N 
HETATM    6  C35 UNL     1      -3.298  49.076 -17.968  1.00  0.00     0.291 C 
ENDROOT
BRANCH   2   7
HETATM    7  C3  UNL     1      -1.471  49.794 -19.565  1.00  0.00     0.232 C 
HETATM    8  O1  UNL     1      -0.464  49.734 -18.870  1.00  0.00    -0.272 OA
HETATM    9  N1  UNL     1      -1.687  50.716 -20.581  1.00  0.00    -0.326 N 
HETATM   10  H4  UNL     1      -2.537  50.621 -21.119  1.00  0.00     0.169 HD
BRANCH   9  11
HETATM   11  C4  UNL     1      -0.828  51.759 -20.997  1.00  0.00     0.035 A 
HETATM   12  C5  UNL     1      -0.304  52.583 -19.993  1.00  0.00     0.032 A 
HETATM   13  C6  UNL     1       0.559  53.646 -20.285  1.00  0.00     0.034 A 
HETATM   14  C7  UNL     1       0.880  53.851 -21.627  1.00  0.00     0.060 A 
HETATM   15  N2  UNL     1       1.683  54.773 -22.236  1.00  0.00    -0.299 N 
HETATM   16  C15 UNL     1       0.387  53.059 -22.658  1.00  0.00     0.023 A 
HETATM   17  N3  UNL     1       1.769  54.642 -23.565  1.00  0.00    -0.299 N 
HETATM   18  H7  UNL     1       2.208  55.519 -21.795  1.00  0.00     0.187 HD
HETATM   19  C8  UNL     1       0.968  53.599 -23.852  1.00  0.00     0.070 A 
ATOM     20  H3  UNL     1       2.318  55.205 -24.215  1.00  0.00     0.187 HD
HETATM   21  C16 UNL     1      -0.475  51.989 -22.333  1.00  0.00     0.045 A 
BRANCH  19  22
HETATM   22  C9  UNL     1       0.799  53.152 -25.237  1.00  0.00    -0.007 A 
HETATM   23  C10 UNL     1       0.049  53.898 -26.159  1.00  0.00     0.017 A 
HETATM   24  C11 UNL     1      -0.104  53.452 -27.474  1.00  0.00     0.043 A 
HETATM   25  C12 UNL     1       0.497  52.263 -27.871  1.00  0.00     0.116 A 
HETATM   26  F1  UNL     1       0.348  51.836 -29.132  1.00  0.00    -0.206 F 
HETATM   27  C13 UNL     1       1.255  51.514 -26.980  1.00  0.00     0.043 A 
HETATM   28  C14 UNL     1       1.409  51.960 -25.665  1.00  0.00     0.017 A 
ENDBRANCH  19  22
ENDBRANCH   9  11
ENDBRANCH   2   7
BRANCH   5  29
HETATM   29  C19 UNL     1      -5.413  47.846 -18.023  1.00  0.00     0.374 C 
BRANCH  29  30
HETATM   30  C20 UNL     1      -6.838  47.874 -18.599  1.00  0.00     0.248 C 
HETATM   31  O2  UNL     1      -7.754  48.372 -17.936  1.00  0.00    -0.271 OA
HETATM   32  N5  UNL     1      -7.042  47.379 -19.882  1.00  0.00    -0.348 N 
HETATM   33  C21 UNL     1      -8.423  47.284 -20.370  1.00  0.00     0.140 C 
HETATM   34  C34 UNL     1      -6.097  46.497 -20.579  1.00  0.00     0.140 C 
HETATM   35  C22 UNL     1      -8.516  47.417 -21.899  1.00  0.00     0.115 C 
HETATM   36  N6  UNL     1      -7.603  46.463 -22.569  1.00  0.00    -0.280 NA
HETATM   37  C33 UNL     1      -6.199  46.611 -22.113  1.00  0.00     0.115 C 
BRANCH  36  38
HETATM   38  C23 UNL     1      -7.710  46.337 -23.966  1.00  0.00     0.010 A 
HETATM   39  C24 UNL     1      -7.174  47.336 -24.792  1.00  0.00     0.024 A 
HETATM   40  C25 UNL     1      -7.266  47.269 -26.191  1.00  0.00     0.017 A 
HETATM   41  C26 UNL     1      -7.893  46.191 -26.834  1.00  0.00     0.008 A 
HETATM   42  C31 UNL     1      -8.406  45.180 -26.007  1.00  0.00     0.017 A 
HETATM   43  C32 UNL     1      -8.312  45.248 -24.607  1.00  0.00     0.024 A 
BRANCH  41  44
HETATM   44  C27 UNL     1      -8.004  46.122 -28.305  1.00  0.00     0.115 A 
HETATM   45  N7  UNL     1      -6.882  46.299 -29.034  1.00  0.00    -0.352 N 
HETATM   46  C28 UNL     1      -7.012  46.226 -30.371  1.00  0.00     0.091 A 
ATOM     47  H7  UNL     1      -5.980  46.480 -28.593  1.00  0.00     0.166 HD
HETATM   48  C29 UNL     1      -8.205  45.982 -31.006  1.00  0.00     0.034 A 
HETATM   49  C30 UNL     1      -9.289  45.814 -30.180  1.00  0.00     0.091 A 
HETATM   50  N8  UNL     1      -9.220  45.877 -28.837  1.00  0.00    -0.352 N 
ATOM     51  H8  UNL     1     -10.044  45.746 -28.251  1.00  0.00     0.166 HD
ENDBRANCH  41  44
ENDBRANCH  36  38
ENDBRANCH  29  30
ENDBRANCH   5  29
TORSDOF 7
ENDMDL
