MODEL 1
REMARK minimizedAffinity -8.5048666
REMARK  6 active torsions:
REMARK  status: ('A' for Active; 'I' for Inactive)
REMARK    1  A    between atoms: O1_2  and  C2_3 
REMARK    2  A    between atoms: C2_3  and  C3_4 
REMARK    3  A    between atoms: C3_4  and  N1_5 
REMARK    4  A    between atoms: C3_4  and  C14_25 
REMARK       I    between atoms: N1_5  and  C4_6 
REMARK       I    between atoms: C4_6  and  N2_8 
REMARK    5  A    between atoms: N2_8  and  C5_9 
REMARK    6  A    between atoms: C8_15  and  C9_16 
ROOT
HETATM    1  C5  UNL     1      -3.115  48.684 -24.597  1.00  0.00     0.111 A 
HETATM    2  C6  UNL     1      -4.475  48.444 -24.400  1.00  0.00     0.080 A 
HETATM    3  C7  UNL     1      -5.227  48.256 -25.560  1.00  0.00     0.065 A 
HETATM    4  N3  UNL     1      -6.558  48.008 -25.767  1.00  0.00    -0.300 N 
HETATM    5  N4  UNL     1      -6.901  47.896 -27.061  1.00  0.00    -0.303 N 
ATOM      6  H4  UNL     1      -7.827  47.738 -27.457  1.00  0.00     0.186 HD
HETATM    7  C8  UNL     1      -5.741  48.039 -27.703  1.00  0.00     0.050 A 
HETATM    8  C12 UNL     1      -4.661  48.296 -26.828  1.00  0.00     0.032 A 
HETATM    9  C13 UNL     1      -3.297  48.554 -26.934  1.00  0.00     0.105 A 
HETATM   10  N5  UNL     1      -2.553  48.748 -25.816  1.00  0.00    -0.351 N 
ATOM     11  H5  UNL     1      -1.556  48.945 -25.902  1.00  0.00     0.166 HD
HETATM   12  H10 UNL     1      -7.289  47.910 -25.071  1.00  0.00     0.187 HD
ENDROOT
BRANCH   1  13
HETATM   13  N2  UNL     1      -2.338  48.880 -23.448  1.00  0.00    -0.295 N 
HETATM   14  C4  UNL     1      -2.433  49.951 -22.589  1.00  0.00     0.322 C 
HETATM   15  N1  UNL     1      -1.571  49.779 -21.517  1.00  0.00    -0.332 N 
HETATM   16  O2  UNL     1      -3.139  50.943 -22.702  1.00  0.00    -0.247 OA
HETATM   17  H7  UNL     1      -1.518  48.820 -21.205  1.00  0.00     0.165 HD
HETATM   18  H8  UNL     1      -1.563  48.257 -23.300  1.00  0.00     0.172 HD
BRANCH  15  19
HETATM   19  C3  UNL     1      -1.552  50.767 -20.435  1.00  0.00     0.143 C 
BRANCH  19  20
HETATM   20  C2  UNL     1      -2.949  51.369 -20.138  1.00  0.00     0.197 C 
BRANCH  20  21
HETATM   21  O1  UNL     1      -3.059  51.776 -18.766  1.00  0.00    -0.394 OA
HETATM   22  C1  UNL     1      -2.810  50.717 -17.851  1.00  0.00     0.201 C 
ENDBRANCH  20  21
ENDBRANCH  19  20
BRANCH  19  23
HETATM   23  C14 UNL     1      -0.539  51.853 -20.786  1.00  0.00    -0.033 A 
HETATM   24  C15 UNL     1      -0.007  52.702 -19.798  1.00  0.00     0.012 A 
HETATM   25  C16 UNL     1       0.913  53.694 -20.140  1.00  0.00     0.043 A 
HETATM   26  C17 UNL     1       1.303  53.841 -21.465  1.00  0.00     0.116 A 
HETATM   27  F3  UNL     1       2.184  54.796 -21.791  1.00  0.00    -0.206 F 
HETATM   28  C18 UNL     1       0.792  53.015 -22.457  1.00  0.00     0.043 A 
HETATM   29  C19 UNL     1      -0.127  52.021 -22.119  1.00  0.00     0.012 A 
ENDBRANCH  19  23
ENDBRANCH  15  19
ENDBRANCH   1  13
BRANCH   7  30
HETATM   30  C9  UNL     1      -5.644  47.976 -29.247  1.00  0.00     0.116 A 
HETATM   31  C10 UNL     1      -6.152  46.759 -29.993  1.00  0.00     0.096 A 
HETATM   32  C11 UNL     1      -6.886  48.046 -30.055  1.00  0.00     0.253 A 
HETATM   33  F1  UNL     1      -8.142  48.123 -29.498  1.00  0.00    -0.206 F 
HETATM   34  F2  UNL     1      -6.921  48.738 -31.245  1.00  0.00    -0.206 F 
ENDBRANCH   7  30
TORSDOF 6
ENDMDL
MODEL 2
REMARK minimizedAffinity -8.45734596
REMARK  6 active torsions:
REMARK  status: ('A' for Active; 'I' for Inactive)
REMARK    1  A    between atoms: O1_2  and  C2_3 
REMARK    2  A    between atoms: C2_3  and  C3_4 
REMARK    3  A    between atoms: C3_4  and  N1_5 
REMARK    4  A    between atoms: C3_4  and  C14_25 
REMARK       I    between atoms: N1_5  and  C4_6 
REMARK       I    between atoms: C4_6  and  N2_8 
REMARK    5  A    between atoms: N2_8  and  C5_9 
REMARK    6  A    between atoms: C8_15  and  C9_16 
ROOT
HETATM    1  C5  UNL     1      -0.564  51.656 -20.245  1.00  0.00     0.111 A 
HETATM    2  C6  UNL     1      -0.733  50.596 -19.354  1.00  0.00     0.080 A 
HETATM    3  C7  UNL     1      -0.044  50.709 -18.145  1.00  0.00     0.065 A 
HETATM    4  N3  UNL     1       0.040  49.890 -17.051  1.00  0.00    -0.300 N 
HETATM    5  N4  UNL     1       0.830  50.361 -16.072  1.00  0.00    -0.303 N 
ATOM      6  H4  UNL     1       1.063  49.921 -15.183  1.00  0.00     0.186 HD
HETATM    7  C8  UNL     1       1.235  51.543 -16.542  1.00  0.00     0.050 A 
HETATM    8  C12 UNL     1       0.750  51.808 -17.842  1.00  0.00     0.032 A 
HETATM    9  C13 UNL     1       0.873  52.816 -18.794  1.00  0.00     0.105 A 
HETATM   10  N5  UNL     1       0.217  52.717 -19.978  1.00  0.00    -0.351 N 
ATOM     11  H5  UNL     1       0.319  53.456 -20.674  1.00  0.00     0.166 HD
HETATM   12  H10 UNL     1      -0.411  48.993 -16.909  1.00  0.00     0.187 HD
ENDROOT
BRANCH   1  13
HETATM   13  N2  UNL     1      -1.242  51.565 -21.467  1.00  0.00    -0.295 N 
HETATM   14  C4  UNL     1      -0.659  51.620 -22.713  1.00  0.00     0.322 C 
HETATM   15  N1  UNL     1      -1.615  51.416 -23.695  1.00  0.00    -0.332 N 
HETATM   16  O2  UNL     1       0.516  51.830 -22.983  1.00  0.00    -0.247 OA
HETATM   17  H7  UNL     1      -2.305  50.725 -23.435  1.00  0.00     0.165 HD
HETATM   18  H8  UNL     1      -2.247  51.585 -21.444  1.00  0.00     0.172 HD
BRANCH  15  19
HETATM   19  C3  UNL     1      -1.211  51.362 -25.102  1.00  0.00     0.143 C 
BRANCH  19  20
HETATM   20  C2  UNL     1      -1.164  52.758 -25.774  1.00  0.00     0.197 C 
BRANCH  20  21
HETATM   21  O1  UNL     1       0.127  53.021 -26.341  1.00  0.00    -0.394 OA
HETATM   22  C1  UNL     1       0.096  53.147 -27.757  1.00  0.00     0.201 C 
ENDBRANCH  20  21
ENDBRANCH  19  20
BRANCH  19  23
HETATM   23  C14 UNL     1      -2.152  50.417 -25.843  1.00  0.00    -0.033 A 
HETATM   24  C15 UNL     1      -2.559  50.678 -27.164  1.00  0.00     0.012 A 
HETATM   25  C16 UNL     1      -3.425  49.805 -27.822  1.00  0.00     0.043 A 
HETATM   26  C17 UNL     1      -3.886  48.670 -27.165  1.00  0.00     0.116 A 
HETATM   27  F3  UNL     1      -4.720  47.835 -27.798  1.00  0.00    -0.206 F 
HETATM   28  C18 UNL     1      -3.498  48.391 -25.862  1.00  0.00     0.043 A 
HETATM   29  C19 UNL     1      -2.630  49.261 -25.201  1.00  0.00     0.012 A 
ENDBRANCH  19  23
ENDBRANCH  15  19
ENDBRANCH   1  13
BRANCH   7  30
HETATM   30  C9  UNL     1       2.179  52.467 -15.735  1.00  0.00     0.116 A 
HETATM   31  C10 UNL     1       3.303  51.874 -14.909  1.00  0.00     0.096 A 
HETATM   32  C11 UNL     1       3.593  52.610 -16.162  1.00  0.00     0.253 A 
HETATM   33  F1  UNL     1       4.130  51.924 -17.229  1.00  0.00    -0.206 F 
HETATM   34  F2  UNL     1       4.237  53.825 -16.089  1.00  0.00    -0.206 F 
ENDBRANCH   7  30
TORSDOF 6
ENDMDL
MODEL 3
REMARK minimizedAffinity -8.38722706
REMARK  6 active torsions:
REMARK  status: ('A' for Active; 'I' for Inactive)
REMARK    1  A    between atoms: O1_2  and  C2_3 
REMARK    2  A    between atoms: C2_3  and  C3_4 
REMARK    3  A    between atoms: C3_4  and  N1_5 
REMARK    4  A    between atoms: C3_4  and  C14_25 
REMARK       I    between atoms: N1_5  and  C4_6 
REMARK       I    between atoms: C4_6  and  N2_8 
REMARK    5  A    between atoms: N2_8  and  C5_9 
REMARK    6  A    between atoms: C8_15  and  C9_16 
ROOT
HETATM    1  C5  UNL     1      -2.762  50.943 -27.119  1.00  0.00     0.111 A 
HETATM    2  C6  UNL     1      -2.151  52.164 -27.403  1.00  0.00     0.080 A 
HETATM    3  C7  UNL     1      -1.220  52.606 -26.462  1.00  0.00     0.065 A 
HETATM    4  N3  UNL     1      -0.440  53.729 -26.393  1.00  0.00    -0.300 N 
HETATM    5  N4  UNL     1       0.337  53.791 -25.299  1.00  0.00    -0.303 N 
ATOM      6  H4  UNL     1       0.977  54.534 -25.021  1.00  0.00     0.186 HD
HETATM    7  C8  UNL     1       0.072  52.648 -24.665  1.00  0.00     0.050 A 
HETATM    8  C12 UNL     1      -0.913  51.876 -25.321  1.00  0.00     0.032 A 
HETATM    9  C13 UNL     1      -1.578  50.671 -25.109  1.00  0.00     0.105 A 
HETATM   10  N5  UNL     1      -2.494  50.232 -26.010  1.00  0.00    -0.351 N 
ATOM     11  H5  UNL     1      -2.984  49.354 -25.843  1.00  0.00     0.166 HD
HETATM   12  H10 UNL     1      -0.392  54.495 -27.055  1.00  0.00     0.187 HD
ENDROOT
BRANCH   1  13
HETATM   13  N2  UNL     1      -3.704  50.479 -28.046  1.00  0.00    -0.295 N 
HETATM   14  C4  UNL     1      -4.033  49.160 -28.264  1.00  0.00     0.322 C 
HETATM   15  N1  UNL     1      -5.059  49.073 -29.192  1.00  0.00    -0.332 N 
HETATM   16  O2  UNL     1      -3.526  48.168 -27.760  1.00  0.00    -0.247 OA
HETATM   17  H7  UNL     1      -5.745  49.807 -29.090  1.00  0.00     0.165 HD
HETATM   18  H8  UNL     1      -4.085  51.147 -28.694  1.00  0.00     0.172 HD
BRANCH  15  19
HETATM   19  C3  UNL     1      -5.623  47.764 -29.530  1.00  0.00     0.143 C 
BRANCH  19  20
HETATM   20  C2  UNL     1      -5.106  47.211 -30.883  1.00  0.00     0.197 C 
BRANCH  20  21
HETATM   21  O1  UNL     1      -4.602  48.264 -31.718  1.00  0.00    -0.394 OA
HETATM   22  C1  UNL     1      -4.350  47.841 -33.051  1.00  0.00     0.201 C 
ENDBRANCH  20  21
ENDBRANCH  19  20
BRANCH  19  23
HETATM   23  C14 UNL     1      -7.145  47.872 -29.515  1.00  0.00    -0.033 A 
HETATM   24  C15 UNL     1      -7.844  48.495 -30.564  1.00  0.00     0.012 A 
HETATM   25  C16 UNL     1      -9.235  48.590 -30.529  1.00  0.00     0.043 A 
HETATM   26  C17 UNL     1      -9.931  48.063 -29.447  1.00  0.00     0.116 A 
HETATM   27  F3  UNL     1     -11.267  48.158 -29.414  1.00  0.00    -0.206 F 
HETATM   28  C18 UNL     1      -9.264  47.442 -28.400  1.00  0.00     0.043 A 
HETATM   29  C19 UNL     1      -7.872  47.345 -28.433  1.00  0.00     0.012 A 
ENDBRANCH  19  23
ENDBRANCH  15  19
ENDBRANCH   1  13
BRANCH   7  30
HETATM   30  C9  UNL     1       0.755  52.274 -23.327  1.00  0.00     0.116 A 
HETATM   31  C10 UNL     1       0.859  53.296 -22.213  1.00  0.00     0.096 A 
HETATM   32  C11 UNL     1      -0.072  52.148 -22.101  1.00  0.00     0.253 A 
HETATM   33  F1  UNL     1      -1.427  52.389 -22.080  1.00  0.00    -0.206 F 
HETATM   34  F2  UNL     1       0.186  51.168 -21.168  1.00  0.00    -0.206 F 
ENDBRANCH   7  30
TORSDOF 6
ENDMDL
MODEL 4
REMARK minimizedAffinity -8.38419628
REMARK  6 active torsions:
REMARK  status: ('A' for Active; 'I' for Inactive)
REMARK    1  A    between atoms: O1_2  and  C2_3 
REMARK    2  A    between atoms: C2_3  and  C3_4 
REMARK    3  A    between atoms: C3_4  and  N1_5 
REMARK    4  A    between atoms: C3_4  and  C14_25 
REMARK       I    between atoms: N1_5  and  C4_6 
REMARK       I    between atoms: C4_6  and  N2_8 
REMARK    5  A    between atoms: N2_8  and  C5_9 
REMARK    6  A    between atoms: C8_15  and  C9_16 
ROOT
HETATM    1  C5  UNL     1       0.693  52.838 -20.076  1.00  0.00     0.111 A 
HETATM    2  C6  UNL     1       1.252  53.946 -20.712  1.00  0.00     0.080 A 
HETATM    3  C7  UNL     1       1.153  53.957 -22.104  1.00  0.00     0.065 A 
HETATM    4  N3  UNL     1       1.575  54.850 -23.052  1.00  0.00    -0.300 N 
HETATM    5  N4  UNL     1       1.289  54.487 -24.313  1.00  0.00    -0.303 N 
ATOM      6  H4  UNL     1       1.522  54.973 -25.179  1.00  0.00     0.186 HD
HETATM    7  C8  UNL     1       0.625  53.339 -24.163  1.00  0.00     0.050 A 
HETATM    8  C12 UNL     1       0.531  52.937 -22.812  1.00  0.00     0.032 A 
HETATM    9  C13 UNL     1       0.010  51.860 -22.099  1.00  0.00     0.105 A 
HETATM   10  N5  UNL     1       0.107  51.830 -20.746  1.00  0.00    -0.351 N 
ATOM     11  H5  UNL     1      -0.270  51.034 -20.231  1.00  0.00     0.166 HD
HETATM   12  H10 UNL     1       2.070  55.723 -22.909  1.00  0.00     0.187 HD
ENDROOT
BRANCH   1  13
HETATM   13  N2  UNL     1       0.783  52.801 -18.679  1.00  0.00    -0.295 N 
HETATM   14  C4  UNL     1       0.352  51.770 -17.874  1.00  0.00     0.322 C 
HETATM   15  N1  UNL     1       0.672  52.035 -16.552  1.00  0.00    -0.332 N 
HETATM   16  O2  UNL     1      -0.241  50.755 -18.209  1.00  0.00    -0.247 OA
HETATM   17  H7  UNL     1       1.572  52.483 -16.447  1.00  0.00     0.165 HD
HETATM   18  H8  UNL     1       1.070  53.643 -18.210  1.00  0.00     0.172 HD
BRANCH  15  19
HETATM   19  C3  UNL     1       0.372  51.039 -15.520  1.00  0.00     0.143 C 
BRANCH  19  20
HETATM   20  C2  UNL     1      -0.705  51.516 -14.511  1.00  0.00     0.197 C 
BRANCH  20  21
HETATM   21  O1  UNL     1      -0.217  52.596 -13.702  1.00  0.00    -0.394 OA
HETATM   22  C1  UNL     1      -0.595  52.480 -12.336  1.00  0.00     0.201 C 
ENDBRANCH  20  21
ENDBRANCH  19  20
BRANCH  19  23
HETATM   23  C14 UNL     1       1.671  50.663 -14.814  1.00  0.00    -0.033 A 
HETATM   24  C15 UNL     1       1.739  49.552 -13.953  1.00  0.00     0.012 A 
HETATM   25  C16 UNL     1       2.934  49.228 -13.311  1.00  0.00     0.043 A 
HETATM   26  C17 UNL     1       4.063  50.010 -13.527  1.00  0.00     0.116 A 
HETATM   27  F3  UNL     1       5.209  49.698 -12.907  1.00  0.00    -0.206 F 
HETATM   28  C18 UNL     1       4.021  51.110 -14.373  1.00  0.00     0.043 A 
HETATM   29  C19 UNL     1       2.827  51.436 -15.017  1.00  0.00     0.012 A 
ENDBRANCH  19  23
ENDBRANCH  15  19
ENDBRANCH   1  13
BRANCH   7  30
HETATM   30  C9  UNL     1       0.082  52.541 -25.373  1.00  0.00     0.116 A 
HETATM   31  C10 UNL     1       0.564  52.858 -26.774  1.00  0.00     0.096 A 
HETATM   32  C11 UNL     1       0.986  51.610 -26.094  1.00  0.00     0.253 A 
HETATM   33  F1  UNL     1       2.313  51.447 -25.765  1.00  0.00    -0.206 F 
HETATM   34  F2  UNL     1       0.529  50.403 -26.571  1.00  0.00    -0.206 F 
ENDBRANCH   7  30
TORSDOF 6
ENDMDL
MODEL 5
REMARK minimizedAffinity -8.36278439
REMARK  6 active torsions:
REMARK  status: ('A' for Active; 'I' for Inactive)
REMARK    1  A    between atoms: O1_2  and  C2_3 
REMARK    2  A    between atoms: C2_3  and  C3_4 
REMARK    3  A    between atoms: C3_4  and  N1_5 
REMARK    4  A    between atoms: C3_4  and  C14_25 
REMARK       I    between atoms: N1_5  and  C4_6 
REMARK       I    between atoms: C4_6  and  N2_8 
REMARK    5  A    between atoms: N2_8  and  C5_9 
REMARK    6  A    between atoms: C8_15  and  C9_16 
ROOT
HETATM    1  C5  UNL     1       0.814  52.881 -19.705  1.00  0.00     0.111 A 
HETATM    2  C6  UNL     1       1.423  53.970 -20.328  1.00  0.00     0.080 A 
HETATM    3  C7  UNL     1       1.281  54.027 -21.715  1.00  0.00     0.065 A 
HETATM    4  N3  UNL     1       1.730  54.919 -22.653  1.00  0.00    -0.300 N 
HETATM    5  N4  UNL     1       1.382  54.612 -23.913  1.00  0.00    -0.303 N 
ATOM      6  H4  UNL     1       1.619  55.107 -24.772  1.00  0.00     0.186 HD
HETATM    7  C8  UNL     1       0.652  53.504 -23.773  1.00  0.00     0.050 A 
HETATM    8  C12 UNL     1       0.574  53.069 -22.430  1.00  0.00     0.032 A 
HETATM    9  C13 UNL     1       0.007  52.008 -21.730  1.00  0.00     0.105 A 
HETATM   10  N5  UNL     1       0.144  51.933 -20.382  1.00  0.00    -0.351 N 
ATOM     11  H5  UNL     1      -0.266  51.147 -19.877  1.00  0.00     0.166 HD
HETATM   12  H10 UNL     1       2.284  55.754 -22.502  1.00  0.00     0.187 HD
ENDROOT
BRANCH   1  13
HETATM   13  N2  UNL     1       0.945  52.799 -18.313  1.00  0.00    -0.295 N 
HETATM   14  C4  UNL     1       0.543  51.739 -17.531  1.00  0.00     0.322 C 
HETATM   15  N1  UNL     1       0.901  51.961 -16.210  1.00  0.00    -0.332 N 
HETATM   16  O2  UNL     1      -0.056  50.733 -17.882  1.00  0.00    -0.247 OA
HETATM   17  H7  UNL     1       1.801  52.410 -16.116  1.00  0.00     0.165 HD
HETATM   18  H8  UNL     1       1.243  53.626 -17.825  1.00  0.00     0.172 HD
BRANCH  15  19
HETATM   19  C3  UNL     1       0.634  50.930 -15.204  1.00  0.00     0.143 C 
BRANCH  19  20
HETATM   20  C2  UNL     1       0.494  49.511 -15.810  1.00  0.00     0.197 C 
BRANCH  20  21
HETATM   21  O1  UNL     1       0.731  48.497 -14.823  1.00  0.00    -0.394 OA
HETATM   22  C1  UNL     1       1.920  48.717 -14.077  1.00  0.00     0.201 C 
ENDBRANCH  20  21
ENDBRANCH  19  20
BRANCH  19  23
HETATM   23  C14 UNL     1      -0.612  51.328 -14.418  1.00  0.00    -0.033 A 
HETATM   24  C15 UNL     1      -1.899  50.972 -14.861  1.00  0.00     0.012 A 
HETATM   25  C16 UNL     1      -3.027  51.351 -14.132  1.00  0.00     0.043 A 
HETATM   26  C17 UNL     1      -2.873  52.085 -12.962  1.00  0.00     0.116 A 
HETATM   27  F3  UNL     1      -3.958  52.450 -12.266  1.00  0.00    -0.206 F 
HETATM   28  C18 UNL     1      -1.613  52.447 -12.504  1.00  0.00     0.043 A 
HETATM   29  C19 UNL     1      -0.483  52.068 -13.230  1.00  0.00     0.012 A 
ENDBRANCH  19  23
ENDBRANCH  15  19
ENDBRANCH   1  13
BRANCH   7  30
HETATM   30  C9  UNL     1       0.021  52.777 -24.985  1.00  0.00     0.116 A 
HETATM   31  C10 UNL     1       0.276  53.279 -26.391  1.00  0.00     0.096 A 
HETATM   32  C11 UNL     1       0.897  52.020 -25.913  1.00  0.00     0.253 A 
HETATM   33  F1  UNL     1       2.265  51.962 -25.776  1.00  0.00    -0.206 F 
HETATM   34  F2  UNL     1       0.488  50.824 -26.459  1.00  0.00    -0.206 F 
ENDBRANCH   7  30
TORSDOF 6
ENDMDL
MODEL 6
REMARK minimizedAffinity -8.27917004
REMARK  6 active torsions:
REMARK  status: ('A' for Active; 'I' for Inactive)
REMARK    1  A    between atoms: O1_2  and  C2_3 
REMARK    2  A    between atoms: C2_3  and  C3_4 
REMARK    3  A    between atoms: C3_4  and  N1_5 
REMARK    4  A    between atoms: C3_4  and  C14_25 
REMARK       I    between atoms: N1_5  and  C4_6 
REMARK       I    between atoms: C4_6  and  N2_8 
REMARK    5  A    between atoms: N2_8  and  C5_9 
REMARK    6  A    between atoms: C8_15  and  C9_16 
ROOT
HETATM    1  C5  UNL     1      -0.024  52.558 -20.249  1.00  0.00     0.111 A 
HETATM    2  C6  UNL     1      -0.463  51.379 -19.645  1.00  0.00     0.080 A 
HETATM    3  C7  UNL     1       0.039  51.135 -18.366  1.00  0.00     0.065 A 
HETATM    4  N3  UNL     1      -0.153  50.109 -17.480  1.00  0.00    -0.300 N 
HETATM    5  N4  UNL     1       0.530  50.241 -16.331  1.00  0.00    -0.303 N 
ATOM      6  H4  UNL     1       0.565  49.598 -15.539  1.00  0.00     0.186 HD
HETATM    7  C8  UNL     1       1.151  51.413 -16.471  1.00  0.00     0.050 A 
HETATM    8  C12 UNL     1       0.911  52.009 -17.730  1.00  0.00     0.032 A 
HETATM    9  C13 UNL     1       1.308  53.157 -18.411  1.00  0.00     0.105 A 
HETATM   10  N5  UNL     1       0.837  53.405 -19.659  1.00  0.00    -0.351 N 
ATOM     11  H5  UNL     1       1.139  54.243 -20.154  1.00  0.00     0.166 HD
HETATM   12  H10 UNL     1      -0.731  49.285 -17.598  1.00  0.00     0.187 HD
ENDROOT
BRANCH   1  13
HETATM   13  N2  UNL     1      -0.510  52.824 -21.535  1.00  0.00    -0.295 N 
HETATM   14  C4  UNL     1      -0.733  51.887 -22.519  1.00  0.00     0.322 C 
HETATM   15  N1  UNL     1      -1.291  52.492 -23.634  1.00  0.00    -0.332 N 
HETATM   16  O2  UNL     1      -0.486  50.690 -22.483  1.00  0.00    -0.247 OA
HETATM   17  H7  UNL     1      -1.953  53.218 -23.398  1.00  0.00     0.165 HD
HETATM   18  H8  UNL     1      -0.586  53.788 -21.812  1.00  0.00     0.172 HD
BRANCH  15  19
HETATM   19  C3  UNL     1      -1.680  51.673 -24.785  1.00  0.00     0.143 C 
BRANCH  19  20
HETATM   20  C2  UNL     1      -2.056  50.220 -24.397  1.00  0.00     0.197 C 
BRANCH  20  21
HETATM   21  O1  UNL     1      -2.406  49.446 -25.554  1.00  0.00    -0.394 OA
HETATM   22  C1  UNL     1      -3.473  48.538 -25.312  1.00  0.00     0.201 C 
ENDBRANCH  20  21
ENDBRANCH  19  20
BRANCH  19  23
HETATM   23  C14 UNL     1      -0.549  51.704 -25.808  1.00  0.00    -0.033 A 
HETATM   24  C15 UNL     1       0.794  51.560 -25.417  1.00  0.00     0.012 A 
HETATM   25  C16 UNL     1       1.815  51.598 -26.367  1.00  0.00     0.043 A 
HETATM   26  C17 UNL     1       1.498  51.779 -27.708  1.00  0.00     0.116 A 
HETATM   27  F3  UNL     1       2.480  51.818 -28.618  1.00  0.00    -0.206 F 
HETATM   28  C18 UNL     1       0.180  51.922 -28.119  1.00  0.00     0.043 A 
HETATM   29  C19 UNL     1      -0.843  51.883 -27.171  1.00  0.00     0.012 A 
ENDBRANCH  19  23
ENDBRANCH  15  19
ENDBRANCH   1  13
BRANCH   7  30
HETATM   30  C9  UNL     1       2.070  51.993 -15.369  1.00  0.00     0.116 A 
HETATM   31  C10 UNL     1       3.165  51.139 -14.762  1.00  0.00     0.096 A 
HETATM   32  C11 UNL     1       3.497  52.256 -15.678  1.00  0.00     0.253 A 
HETATM   33  F1  UNL     1       4.067  51.970 -16.898  1.00  0.00    -0.206 F 
HETATM   34  F2  UNL     1       4.140  53.364 -15.173  1.00  0.00    -0.206 F 
ENDBRANCH   7  30
TORSDOF 6
ENDMDL
MODEL 7
REMARK minimizedAffinity -8.26657772
REMARK  6 active torsions:
REMARK  status: ('A' for Active; 'I' for Inactive)
REMARK    1  A    between atoms: O1_2  and  C2_3 
REMARK    2  A    between atoms: C2_3  and  C3_4 
REMARK    3  A    between atoms: C3_4  and  N1_5 
REMARK    4  A    between atoms: C3_4  and  C14_25 
REMARK       I    between atoms: N1_5  and  C4_6 
REMARK       I    between atoms: C4_6  and  N2_8 
REMARK    5  A    between atoms: N2_8  and  C5_9 
REMARK    6  A    between atoms: C8_15  and  C9_16 
ROOT
HETATM    1  C5  UNL     1      -3.252  49.148 -25.977  1.00  0.00     0.111 A 
HETATM    2  C6  UNL     1      -4.382  48.842 -25.219  1.00  0.00     0.080 A 
HETATM    3  C7  UNL     1      -5.448  48.283 -25.925  1.00  0.00     0.065 A 
HETATM    4  N3  UNL     1      -6.693  47.865 -25.537  1.00  0.00    -0.300 N 
HETATM    5  N4  UNL     1      -7.446  47.381 -26.539  1.00  0.00    -0.303 N 
ATOM      6  H4  UNL     1      -8.405  47.037 -26.499  1.00  0.00     0.186 HD
HETATM    7  C8  UNL     1      -6.638  47.457 -27.599  1.00  0.00     0.050 A 
HETATM    8  C12 UNL     1      -5.388  48.038 -27.291  1.00  0.00     0.032 A 
HETATM    9  C13 UNL     1      -4.225  48.385 -27.973  1.00  0.00     0.105 A 
HETATM   10  N5  UNL     1      -3.183  48.939 -27.303  1.00  0.00    -0.351 N 
ATOM     11  H5  UNL     1      -2.338  49.198 -27.811  1.00  0.00     0.166 HD
HETATM   12  H10 UNL     1      -7.096  47.887 -24.607  1.00  0.00     0.187 HD
ENDROOT
BRANCH   1  13
HETATM   13  N2  UNL     1      -2.169  49.715 -25.293  1.00  0.00    -0.295 N 
HETATM   14  C4  UNL     1      -1.946  51.062 -25.119  1.00  0.00     0.322 C 
HETATM   15  N1  UNL     1      -0.828  51.261 -24.325  1.00  0.00    -0.332 N 
HETATM   16  O2  UNL     1      -2.590  51.994 -25.580  1.00  0.00    -0.247 OA
HETATM   17  H7  UNL     1      -0.750  50.584 -23.579  1.00  0.00     0.165 HD
HETATM   18  H8  UNL     1      -1.426  49.100 -25.010  1.00  0.00     0.172 HD
BRANCH  15  19
HETATM   19  C3  UNL     1      -0.438  52.622 -23.947  1.00  0.00     0.143 C 
BRANCH  19  20
HETATM   20  C2  UNL     1       0.683  53.204 -24.845  1.00  0.00     0.197 C 
BRANCH  20  21
HETATM   21  O1  UNL     1       0.194  54.280 -25.658  1.00  0.00    -0.394 OA
HETATM   22  C1  UNL     1      -0.037  53.895 -27.007  1.00  0.00     0.201 C 
ENDBRANCH  20  21
ENDBRANCH  19  20
BRANCH  19  23
HETATM   23  C14 UNL     1      -0.033  52.621 -22.476  1.00  0.00    -0.033 A 
HETATM   24  C15 UNL     1      -0.643  51.755 -21.550  1.00  0.00     0.012 A 
HETATM   25  C16 UNL     1      -0.263  51.774 -20.208  1.00  0.00     0.043 A 
HETATM   26  C17 UNL     1       0.725  52.656 -19.787  1.00  0.00     0.116 A 
HETATM   27  F3  UNL     1       1.086  52.674 -18.497  1.00  0.00    -0.206 F 
HETATM   28  C18 UNL     1       1.343  53.519 -20.682  1.00  0.00     0.043 A 
HETATM   29  C19 UNL     1       0.966  53.501 -22.025  1.00  0.00     0.012 A 
ENDBRANCH  19  23
ENDBRANCH  15  19
ENDBRANCH   1  13
BRANCH   7  30
HETATM   30  C9  UNL     1      -7.087  46.996 -29.007  1.00  0.00     0.116 A 
HETATM   31  C10 UNL     1      -7.129  47.985 -30.154  1.00  0.00     0.096 A 
HETATM   32  C11 UNL     1      -6.087  46.932 -30.102  1.00  0.00     0.253 A 
HETATM   33  F1  UNL     1      -4.771  47.304 -29.941  1.00  0.00    -0.206 F 
HETATM   34  F2  UNL     1      -6.116  45.916 -31.031  1.00  0.00    -0.206 F 
ENDBRANCH   7  30
TORSDOF 6
ENDMDL
MODEL 8
REMARK minimizedAffinity -8.24989605
REMARK  6 active torsions:
REMARK  status: ('A' for Active; 'I' for Inactive)
REMARK    1  A    between atoms: O1_2  and  C2_3 
REMARK    2  A    between atoms: C2_3  and  C3_4 
REMARK    3  A    between atoms: C3_4  and  N1_5 
REMARK    4  A    between atoms: C3_4  and  C14_25 
REMARK       I    between atoms: N1_5  and  C4_6 
REMARK       I    between atoms: C4_6  and  N2_8 
REMARK    5  A    between atoms: N2_8  and  C5_9 
REMARK    6  A    between atoms: C8_15  and  C9_16 
ROOT
HETATM    1  C5  UNL     1      -0.573  50.627 -20.471  1.00  0.00     0.111 A 
HETATM    2  C6  UNL     1       0.197  51.773 -20.276  1.00  0.00     0.080 A 
HETATM    3  C7  UNL     1       0.548  52.045 -18.953  1.00  0.00     0.065 A 
HETATM    4  N3  UNL     1       1.274  53.055 -18.381  1.00  0.00    -0.300 N 
HETATM    5  N4  UNL     1       1.382  52.964 -17.045  1.00  0.00    -0.303 N 
ATOM      6  H4  UNL     1       1.849  53.605 -16.404  1.00  0.00     0.186 HD
HETATM    7  C8  UNL     1       0.734  51.833 -16.757  1.00  0.00     0.050 A 
HETATM    8  C12 UNL     1       0.164  51.226 -17.899  1.00  0.00     0.032 A 
HETATM    9  C13 UNL     1      -0.615  50.107 -18.182  1.00  0.00     0.105 A 
HETATM   10  N5  UNL     1      -0.972  49.834 -19.462  1.00  0.00    -0.351 N 
ATOM     11  H5  UNL     1      -1.551  49.017 -19.660  1.00  0.00     0.166 HD
HETATM   12  H10 UNL     1       1.718  53.841 -18.841  1.00  0.00     0.187 HD
ENDROOT
BRANCH   1  13
HETATM   13  N2  UNL     1      -0.943  50.333 -21.790  1.00  0.00    -0.295 N 
HETATM   14  C4  UNL     1      -1.365  51.249 -22.728  1.00  0.00     0.322 C 
HETATM   15  N1  UNL     1      -1.568  50.621 -23.947  1.00  0.00    -0.332 N 
HETATM   16  O2  UNL     1      -1.564  52.445 -22.571  1.00  0.00    -0.247 OA
HETATM   17  H7  UNL     1      -0.883  49.904 -24.140  1.00  0.00     0.165 HD
HETATM   18  H8  UNL     1      -1.028  49.364 -22.043  1.00  0.00     0.172 HD
BRANCH  15  19
HETATM   19  C3  UNL     1      -1.955  51.415 -25.116  1.00  0.00     0.143 C 
BRANCH  19  20
HETATM   20  C2  UNL     1      -3.180  50.835 -25.866  1.00  0.00     0.197 C 
BRANCH  20  21
HETATM   21  O1  UNL     1      -3.623  49.607 -25.270  1.00  0.00    -0.394 OA
HETATM   22  C1  UNL     1      -3.535  48.498 -26.154  1.00  0.00     0.201 C 
ENDBRANCH  20  21
ENDBRANCH  19  20
BRANCH  19  23
HETATM   23  C14 UNL     1      -0.745  51.545 -26.037  1.00  0.00    -0.033 A 
HETATM   24  C15 UNL     1      -0.899  51.745 -27.421  1.00  0.00     0.012 A 
HETATM   25  C16 UNL     1       0.219  51.853 -28.248  1.00  0.00     0.043 A 
HETATM   26  C17 UNL     1       1.492  51.763 -27.697  1.00  0.00     0.116 A 
HETATM   27  F3  UNL     1       2.564  51.865 -28.493  1.00  0.00    -0.206 F 
HETATM   28  C18 UNL     1       1.669  51.567 -26.334  1.00  0.00     0.043 A 
HETATM   29  C19 UNL     1       0.553  51.459 -25.504  1.00  0.00     0.012 A 
ENDBRANCH  19  23
ENDBRANCH  15  19
ENDBRANCH   1  13
BRANCH   7  30
HETATM   30  C9  UNL     1       0.601  51.310 -15.307  1.00  0.00     0.116 A 
HETATM   31  C10 UNL     1       1.108  49.928 -14.946  1.00  0.00     0.096 A 
HETATM   32  C11 UNL     1       1.822  51.141 -14.481  1.00  0.00     0.253 A 
HETATM   33  F1  UNL     1       3.090  51.390 -14.955  1.00  0.00    -0.206 F 
HETATM   34  F2  UNL     1       1.819  51.444 -13.138  1.00  0.00    -0.206 F 
ENDBRANCH   7  30
TORSDOF 6
ENDMDL
MODEL 9
REMARK minimizedAffinity -8.17896938
REMARK  6 active torsions:
REMARK  status: ('A' for Active; 'I' for Inactive)
REMARK    1  A    between atoms: O1_2  and  C2_3 
REMARK    2  A    between atoms: C2_3  and  C3_4 
REMARK    3  A    between atoms: C3_4  and  N1_5 
REMARK    4  A    between atoms: C3_4  and  C14_25 
REMARK       I    between atoms: N1_5  and  C4_6 
REMARK       I    between atoms: C4_6  and  N2_8 
REMARK    5  A    between atoms: N2_8  and  C5_9 
REMARK    6  A    between atoms: C8_15  and  C9_16 
ROOT
HETATM    1  C5  UNL     1      -1.546  52.025 -22.111  1.00  0.00     0.111 A 
HETATM    2  C6  UNL     1      -2.698  52.162 -22.885  1.00  0.00     0.080 A 
HETATM    3  C7  UNL     1      -2.488  52.329 -24.254  1.00  0.00     0.065 A 
HETATM    4  N3  UNL     1      -3.349  52.496 -25.307  1.00  0.00    -0.300 N 
HETATM    5  N4  UNL     1      -2.741  52.633 -26.496  1.00  0.00    -0.303 N 
ATOM      6  H4  UNL     1      -3.167  52.792 -27.409  1.00  0.00     0.186 HD
HETATM    7  C8  UNL     1      -1.445  52.510 -26.199  1.00  0.00     0.050 A 
HETATM    8  C12 UNL     1      -1.217  52.348 -24.814  1.00  0.00     0.032 A 
HETATM    9  C13 UNL     1      -0.120  52.216 -23.967  1.00  0.00     0.105 A 
HETATM   10  N5  UNL     1      -0.307  52.063 -22.632  1.00  0.00    -0.351 N 
ATOM     11  H5  UNL     1       0.501  51.976 -22.016  1.00  0.00     0.166 HD
HETATM   12  H10 UNL     1      -4.361  52.533 -25.283  1.00  0.00     0.187 HD
ENDROOT
BRANCH   1  13
HETATM   13  N2  UNL     1      -1.730  51.860 -20.732  1.00  0.00    -0.295 N 
HETATM   14  C4  UNL     1      -1.091  50.931 -19.943  1.00  0.00     0.322 C 
HETATM   15  N1  UNL     1      -1.452  51.105 -18.616  1.00  0.00    -0.332 N 
HETATM   16  O2  UNL     1      -0.323  50.048 -20.297  1.00  0.00    -0.247 OA
HETATM   17  H7  UNL     1      -1.550  52.078 -18.360  1.00  0.00     0.165 HD
HETATM   18  H8  UNL     1      -2.477  52.376 -20.299  1.00  0.00     0.172 HD
BRANCH  15  19
HETATM   19  C3  UNL     1      -0.839  50.269 -17.582  1.00  0.00     0.143 C 
BRANCH  19  20
HETATM   20  C2  UNL     1      -1.826  49.877 -16.453  1.00  0.00     0.197 C 
BRANCH  20  21
HETATM   21  O1  UNL     1      -2.712  50.960 -16.136  1.00  0.00    -0.394 OA
HETATM   22  C1  UNL     1      -3.055  51.010 -14.757  1.00  0.00     0.201 C 
ENDBRANCH  20  21
ENDBRANCH  19  20
BRANCH  19  23
HETATM   23  C14 UNL     1       0.382  50.998 -17.027  1.00  0.00    -0.033 A 
HETATM   24  C15 UNL     1       0.945  52.097 -17.700  1.00  0.00     0.012 A 
HETATM   25  C16 UNL     1       2.065  52.746 -17.181  1.00  0.00     0.043 A 
HETATM   26  C17 UNL     1       2.625  52.301 -15.990  1.00  0.00     0.116 A 
HETATM   27  F3  UNL     1       3.703  52.924 -15.494  1.00  0.00    -0.206 F 
HETATM   28  C18 UNL     1       2.087  51.219 -15.306  1.00  0.00     0.043 A 
HETATM   29  C19 UNL     1       0.966  50.569 -15.823  1.00  0.00     0.012 A 
ENDBRANCH  19  23
ENDBRANCH  15  19
ENDBRANCH   1  13
BRANCH   7  30
HETATM   30  C9  UNL     1      -0.343  52.597 -27.282  1.00  0.00     0.116 A 
HETATM   31  C10 UNL     1       1.115  52.691 -26.880  1.00  0.00     0.096 A 
HETATM   32  C11 UNL     1       0.574  51.447 -27.478  1.00  0.00     0.253 A 
HETATM   33  F1  UNL     1       0.523  50.306 -26.709  1.00  0.00    -0.206 F 
HETATM   34  F2  UNL     1       0.990  51.076 -28.737  1.00  0.00    -0.206 F 
ENDBRANCH   7  30
TORSDOF 6
ENDMDL
