MODEL 1
REMARK minimizedAffinity -8.19670391
REMARK  6 active torsions:
REMARK  status: ('A' for Active; 'I' for Inactive)
REMARK    1  A    between atoms: O1_2  and  C2_3 
REMARK    2  A    between atoms: C2_3  and  C3_4 
REMARK    3  A    between atoms: C3_4  and  N1_5 
REMARK    4  A    between atoms: C3_4  and  C14_24 
REMARK       I    between atoms: N1_5  and  C4_6 
REMARK       I    between atoms: C4_6  and  N2_8 
REMARK    5  A    between atoms: N2_8  and  C5_9 
REMARK    6  A    between atoms: N5_16  and  C9_17 
ROOT
HETATM    1  C5  UNL     1       0.827  53.012 -19.877  1.00  0.00     0.111 A 
HETATM    2  C6  UNL     1       1.307  54.114 -20.574  1.00  0.00     0.080 A 
HETATM    3  C7  UNL     1       1.194  54.033 -21.961  1.00  0.00     0.067 A 
HETATM    4  N3  UNL     1       1.549  54.894 -22.958  1.00  0.00    -0.298 N 
HETATM    5  N4  UNL     1       1.273  54.450 -24.191  1.00  0.00    -0.284 N 
ATOM      6  H4  UNL     1       1.451  54.923 -25.078  1.00  0.00     0.188 HD
HETATM    7  C8  UNL     1       0.714  53.250 -24.005  1.00  0.00     0.130 A 
HETATM    8  N5  UNL     1       0.259  52.395 -24.956  1.00  0.00    -0.370 N 
HETATM    9  C12 UNL     1       0.642  52.939 -22.612  1.00  0.00     0.052 A 
HETATM   10  C13 UNL     1       0.180  51.878 -21.830  1.00  0.00     0.107 A 
HETATM   11  N6  UNL     1       0.277  51.929 -20.476  1.00  0.00    -0.351 N 
ATOM     12  H6  UNL     1      -0.064  51.152 -19.910  1.00  0.00     0.166 HD
HETATM   13  H10 UNL     1       1.986  55.804 -22.864  1.00  0.00     0.187 HD
HETATM   14  H11 UNL     1      -0.131  51.506 -24.660  1.00  0.00     0.161 HD
ENDROOT
BRANCH   1  15
HETATM   15  N2  UNL     1       0.848  52.912 -18.486  1.00  0.00    -0.295 N 
HETATM   16  C4  UNL     1       0.497  51.845 -17.703  1.00  0.00     0.322 C 
HETATM   17  N1  UNL     1       0.695  52.127 -16.369  1.00  0.00    -0.332 N 
HETATM   18  O2  UNL     1       0.051  50.774 -18.093  1.00  0.00    -0.247 OA
HETATM   19  H7  UNL     1       1.483  52.735 -16.193  1.00  0.00     0.165 HD
HETATM   20  H8  UNL     1       1.040  53.794 -18.038  1.00  0.00     0.172 HD
BRANCH  17  21
HETATM   21  C3  UNL     1       0.484  51.098 -15.349  1.00  0.00     0.143 C 
BRANCH  21  22
HETATM   22  C2  UNL     1      -0.454  51.559 -14.205  1.00  0.00     0.197 C 
BRANCH  22  23
HETATM   23  O1  UNL     1       0.070  52.743 -13.587  1.00  0.00    -0.394 OA
HETATM   24  C1  UNL     1      -0.309  52.830 -12.221  1.00  0.00     0.201 C 
ENDBRANCH  22  23
ENDBRANCH  21  22
BRANCH  21  25
HETATM   25  C14 UNL     1       1.839  50.654 -14.809  1.00  0.00    -0.033 A 
HETATM   26  C15 UNL     1       1.980  49.465 -14.073  1.00  0.00     0.009 A 
HETATM   27  C16 UNL     1       3.226  49.080 -13.575  1.00  0.00     0.001 A 
HETATM   28  C17 UNL     1       4.345  49.876 -13.804  1.00  0.00     0.000 A 
HETATM   29  C18 UNL     1       4.222  51.056 -14.534  1.00  0.00     0.001 A 
HETATM   30  C19 UNL     1       2.977  51.444 -15.033  1.00  0.00     0.009 A 
ENDBRANCH  21  25
ENDBRANCH  17  21
ENDBRANCH   1  15
BRANCH   8  31
HETATM   31  C9  UNL     1       0.307  52.619 -26.404  1.00  0.00     0.083 A 
HETATM   32  C10 UNL     1       1.248  51.923 -27.343  1.00  0.00     0.027 A 
HETATM   33  C11 UNL     1      -0.232  51.665 -27.428  1.00  0.00     0.027 A 
ENDBRANCH   8  31
TORSDOF 6
ENDMDL
MODEL 2
REMARK minimizedAffinity -8.13965797
REMARK  6 active torsions:
REMARK  status: ('A' for Active; 'I' for Inactive)
REMARK    1  A    between atoms: O1_2  and  C2_3 
REMARK    2  A    between atoms: C2_3  and  C3_4 
REMARK    3  A    between atoms: C3_4  and  N1_5 
REMARK    4  A    between atoms: C3_4  and  C14_24 
REMARK       I    between atoms: N1_5  and  C4_6 
REMARK       I    between atoms: C4_6  and  N2_8 
REMARK    5  A    between atoms: N2_8  and  C5_9 
REMARK    6  A    between atoms: N5_16  and  C9_17 
ROOT
HETATM    1  C5  UNL     1      -3.228  48.746 -24.366  1.00  0.00     0.111 A 
HETATM    2  C6  UNL     1      -4.596  48.505 -24.341  1.00  0.00     0.080 A 
HETATM    3  C7  UNL     1      -5.183  48.297 -25.589  1.00  0.00     0.067 A 
HETATM    4  N3  UNL     1      -6.470  48.040 -25.960  1.00  0.00    -0.298 N 
HETATM    5  N4  UNL     1      -6.643  47.900 -27.281  1.00  0.00    -0.284 N 
ATOM      6  H4  UNL     1      -7.513  47.707 -27.778  1.00  0.00     0.188 HD
HETATM    7  C8  UNL     1      -5.425  48.069 -27.805  1.00  0.00     0.130 A 
HETATM    8  N5  UNL     1      -5.075  48.021 -29.116  1.00  0.00    -0.370 N 
HETATM    9  C12 UNL     1      -4.466  48.323 -26.776  1.00  0.00     0.052 A 
HETATM   10  C13 UNL     1      -3.093  48.568 -26.704  1.00  0.00     0.107 A 
HETATM   11  N6  UNL     1      -2.493  48.775 -25.503  1.00  0.00    -0.351 N 
ATOM     12  H6  UNL     1      -1.489  48.951 -25.457  1.00  0.00     0.166 HD
HETATM   13  H10 UNL     1      -7.282  47.950 -25.359  1.00  0.00     0.187 HD
HETATM   14  H11 UNL     1      -4.105  48.184 -29.364  1.00  0.00     0.161 HD
ENDROOT
BRANCH   1  15
HETATM   15  N2  UNL     1      -2.465  48.970 -23.220  1.00  0.00    -0.295 N 
HETATM   16  C4  UNL     1      -2.490  50.048 -22.376  1.00  0.00     0.322 C 
HETATM   17  N1  UNL     1      -1.609  49.875 -21.331  1.00  0.00    -0.332 N 
HETATM   18  O2  UNL     1      -3.175  51.053 -22.504  1.00  0.00    -0.247 OA
HETATM   19  H7  UNL     1      -1.513  48.914 -21.033  1.00  0.00     0.165 HD
HETATM   20  H8  UNL     1      -1.737  48.283 -23.100  1.00  0.00     0.172 HD
BRANCH  17  21
HETATM   21  C3  UNL     1      -1.537  50.855 -20.246  1.00  0.00     0.143 C 
BRANCH  21  22
HETATM   22  C2  UNL     1      -2.915  51.461 -19.880  1.00  0.00     0.197 C 
BRANCH  22  23
HETATM   23  O1  UNL     1      -2.986  51.705 -18.468  1.00  0.00    -0.394 OA
HETATM   24  C1  UNL     1      -2.561  50.574 -17.721  1.00  0.00     0.201 C 
ENDBRANCH  22  23
ENDBRANCH  21  22
BRANCH  21  25
HETATM   25  C14 UNL     1      -0.539  51.943 -20.628  1.00  0.00    -0.033 A 
HETATM   26  C15 UNL     1      -0.034  52.046 -21.936  1.00  0.00     0.009 A 
HETATM   27  C16 UNL     1       0.888  53.040 -22.266  1.00  0.00     0.001 A 
HETATM   28  C17 UNL     1       1.318  53.943 -21.296  1.00  0.00     0.000 A 
HETATM   29  C18 UNL     1       0.825  53.855 -19.997  1.00  0.00     0.001 A 
HETATM   30  C19 UNL     1      -0.097  52.861 -19.664  1.00  0.00     0.009 A 
ENDBRANCH  21  25
ENDBRANCH  17  21
ENDBRANCH   1  15
BRANCH   8  31
HETATM   31  C9  UNL     1      -5.988  47.784 -30.237  1.00  0.00     0.083 A 
HETATM   32  C10 UNL     1      -5.610  47.913 -31.684  1.00  0.00     0.027 A 
HETATM   33  C11 UNL     1      -5.959  46.566 -31.112  1.00  0.00     0.027 A 
ENDBRANCH   8  31
TORSDOF 6
ENDMDL
MODEL 3
REMARK minimizedAffinity -8.10168076
REMARK  6 active torsions:
REMARK  status: ('A' for Active; 'I' for Inactive)
REMARK    1  A    between atoms: O1_2  and  C2_3 
REMARK    2  A    between atoms: C2_3  and  C3_4 
REMARK    3  A    between atoms: C3_4  and  N1_5 
REMARK    4  A    between atoms: C3_4  and  C14_24 
REMARK       I    between atoms: N1_5  and  C4_6 
REMARK       I    between atoms: C4_6  and  N2_8 
REMARK    5  A    between atoms: N2_8  and  C5_9 
REMARK    6  A    between atoms: N5_16  and  C9_17 
ROOT
HETATM    1  C5  UNL     1      -0.529  50.872 -21.000  1.00  0.00     0.111 A 
HETATM    2  C6  UNL     1       0.164  52.033 -20.679  1.00  0.00     0.080 A 
HETATM    3  C7  UNL     1       0.438  52.203 -19.322  1.00  0.00     0.067 A 
HETATM    4  N3  UNL     1       1.079  53.193 -18.637  1.00  0.00    -0.298 N 
HETATM    5  N4  UNL     1       1.142  52.993 -17.314  1.00  0.00    -0.284 N 
ATOM      6  H4  UNL     1       1.570  53.599 -16.613  1.00  0.00     0.188 HD
HETATM    7  C8  UNL     1       0.520  51.827 -17.114  1.00  0.00     0.130 A 
HETATM    8  N5  UNL     1       0.321  51.189 -15.933  1.00  0.00    -0.370 N 
HETATM    9  C12 UNL     1       0.056  51.286 -18.353  1.00  0.00     0.052 A 
HETATM   10  C13 UNL     1      -0.633  50.144 -18.769  1.00  0.00     0.107 A 
HETATM   11  N6  UNL     1      -0.914  49.952 -20.084  1.00  0.00    -0.351 N 
ATOM     12  H6  UNL     1      -1.415  49.115 -20.382  1.00  0.00     0.166 HD
HETATM   13  H10 UNL     1       1.496  54.036 -19.014  1.00  0.00     0.187 HD
HETATM   14  H11 UNL     1      -0.185  50.309 -15.938  1.00  0.00     0.161 HD
ENDROOT
BRANCH   1  15
HETATM   15  N2  UNL     1      -0.887  50.525 -22.303  1.00  0.00    -0.295 N 
HETATM   16  C4  UNL     1      -1.111  51.349 -23.373  1.00  0.00     0.322 C 
HETATM   17  N1  UNL     1      -1.408  50.617 -24.502  1.00  0.00    -0.332 N 
HETATM   18  O2  UNL     1      -1.078  52.571 -23.367  1.00  0.00    -0.247 OA
HETATM   19  H7  UNL     1      -0.928  49.729 -24.551  1.00  0.00     0.165 HD
HETATM   20  H8  UNL     1      -1.111  49.547 -22.394  1.00  0.00     0.172 HD
BRANCH  17  21
HETATM   21  C3  UNL     1      -1.586  51.281 -25.796  1.00  0.00     0.143 C 
BRANCH  21  22
HETATM   22  C2  UNL     1      -2.602  50.558 -26.715  1.00  0.00     0.197 C 
BRANCH  22  23
HETATM   23  O1  UNL     1      -2.465  49.137 -26.579  1.00  0.00    -0.394 OA
HETATM   24  C1  UNL     1      -3.729  48.496 -26.490  1.00  0.00     0.201 C 
ENDBRANCH  22  23
ENDBRANCH  21  22
BRANCH  21  25
HETATM   25  C14 UNL     1      -0.226  51.416 -26.473  1.00  0.00    -0.033 A 
HETATM   26  C15 UNL     1       0.968  51.163 -25.775  1.00  0.00     0.009 A 
HETATM   27  C16 UNL     1       2.204  51.303 -26.406  1.00  0.00     0.001 A 
HETATM   28  C17 UNL     1       2.265  51.697 -27.741  1.00  0.00     0.000 A 
HETATM   29  C18 UNL     1       1.091  51.949 -28.446  1.00  0.00     0.001 A 
HETATM   30  C19 UNL     1      -0.148  51.810 -27.817  1.00  0.00     0.009 A 
ENDBRANCH  21  25
ENDBRANCH  17  21
ENDBRANCH   1  15
BRANCH   8  31
HETATM   31  C9  UNL     1       0.745  51.673 -14.616  1.00  0.00     0.083 A 
HETATM   32  C10 UNL     1       1.075  50.788 -13.450  1.00  0.00     0.027 A 
HETATM   33  C11 UNL     1       2.153  51.611 -14.103  1.00  0.00     0.027 A 
ENDBRANCH   8  31
TORSDOF 6
ENDMDL
MODEL 4
REMARK minimizedAffinity -8.05830097
REMARK  6 active torsions:
REMARK  status: ('A' for Active; 'I' for Inactive)
REMARK    1  A    between atoms: O1_2  and  C2_3 
REMARK    2  A    between atoms: C2_3  and  C3_4 
REMARK    3  A    between atoms: C3_4  and  N1_5 
REMARK    4  A    between atoms: C3_4  and  C14_24 
REMARK       I    between atoms: N1_5  and  C4_6 
REMARK       I    between atoms: C4_6  and  N2_8 
REMARK    5  A    between atoms: N2_8  and  C5_9 
REMARK    6  A    between atoms: N5_16  and  C9_17 
ROOT
HETATM    1  C5  UNL     1      -0.132  51.811 -19.201  1.00  0.00     0.111 A 
HETATM    2  C6  UNL     1       0.673  52.783 -18.618  1.00  0.00     0.080 A 
HETATM    3  C7  UNL     1       1.177  52.458 -17.359  1.00  0.00     0.067 A 
HETATM    4  N3  UNL     1       1.980  53.140 -16.494  1.00  0.00    -0.298 N 
HETATM    5  N4  UNL     1       2.249  52.481 -15.359  1.00  0.00    -0.284 N 
ATOM      6  H4  UNL     1       2.822  52.797 -14.576  1.00  0.00     0.188 HD
HETATM    7  C8  UNL     1       1.600  51.318 -15.477  1.00  0.00     0.130 A 
HETATM    8  N5  UNL     1       1.561  50.300 -14.580  1.00  0.00    -0.370 N 
HETATM    9  C12 UNL     1       0.906  51.254 -16.725  1.00  0.00     0.052 A 
HETATM   10  C13 UNL     1       0.091  50.334 -17.388  1.00  0.00     0.107 A 
HETATM   11  N6  UNL     1      -0.415  50.623 -18.616  1.00  0.00    -0.351 N 
ATOM     12  H6  UNL     1      -1.007  49.946 -19.096  1.00  0.00     0.166 HD
HETATM   13  H10 UNL     1       2.380  54.064 -16.617  1.00  0.00     0.187 HD
HETATM   14  H11 UNL     1       1.010  49.478 -14.806  1.00  0.00     0.161 HD
ENDROOT
BRANCH   1  15
HETATM   15  N2  UNL     1      -0.720  51.952 -20.458  1.00  0.00    -0.295 N 
HETATM   16  C4  UNL     1      -0.136  51.833 -21.690  1.00  0.00     0.322 C 
HETATM   17  N1  UNL     1      -1.065  52.005 -22.693  1.00  0.00    -0.332 N 
HETATM   18  O2  UNL     1       1.047  51.618 -21.915  1.00  0.00    -0.247 OA
HETATM   19  H7  UNL     1      -1.987  51.664 -22.459  1.00  0.00     0.165 HD
HETATM   20  H8  UNL     1      -1.665  52.297 -20.405  1.00  0.00     0.172 HD
BRANCH  17  21
HETATM   21  C3  UNL     1      -0.690  51.821 -24.097  1.00  0.00     0.143 C 
BRANCH  21  22
HETATM   22  C2  UNL     1      -0.847  53.110 -24.943  1.00  0.00     0.197 C 
BRANCH  22  23
HETATM   23  O1  UNL     1       0.381  53.404 -25.623  1.00  0.00    -0.394 OA
HETATM   24  C1  UNL     1       0.193  53.483 -27.029  1.00  0.00     0.201 C 
ENDBRANCH  22  23
ENDBRANCH  21  22
BRANCH  21  25
HETATM   25  C14 UNL     1      -1.509  50.674 -24.680  1.00  0.00    -0.033 A 
HETATM   26  C15 UNL     1      -1.522  50.412 -26.061  1.00  0.00     0.009 A 
HETATM   27  C16 UNL     1      -2.287  49.366 -26.580  1.00  0.00     0.001 A 
HETATM   28  C17 UNL     1      -3.048  48.569 -25.727  1.00  0.00     0.000 A 
HETATM   29  C18 UNL     1      -3.043  48.815 -24.356  1.00  0.00     0.001 A 
HETATM   30  C19 UNL     1      -2.279  49.861 -23.835  1.00  0.00     0.009 A 
ENDBRANCH  21  25
ENDBRANCH  17  21
ENDBRANCH   1  15
BRANCH   8  31
HETATM   31  C9  UNL     1       2.225  50.283 -13.274  1.00  0.00     0.083 A 
HETATM   32  C10 UNL     1       3.709  50.181 -13.074  1.00  0.00     0.027 A 
HETATM   33  C11 UNL     1       2.980  51.441 -12.691  1.00  0.00     0.027 A 
ENDBRANCH   8  31
TORSDOF 6
ENDMDL
MODEL 5
REMARK minimizedAffinity -8.03020573
REMARK  6 active torsions:
REMARK  status: ('A' for Active; 'I' for Inactive)
REMARK    1  A    between atoms: O1_2  and  C2_3 
REMARK    2  A    between atoms: C2_3  and  C3_4 
REMARK    3  A    between atoms: C3_4  and  N1_5 
REMARK    4  A    between atoms: C3_4  and  C14_24 
REMARK       I    between atoms: N1_5  and  C4_6 
REMARK       I    between atoms: C4_6  and  N2_8 
REMARK    5  A    between atoms: N2_8  and  C5_9 
REMARK    6  A    between atoms: N5_16  and  C9_17 
ROOT
HETATM    1  C5  UNL     1      -2.423  51.150 -26.711  1.00  0.00     0.111 A 
HETATM    2  C6  UNL     1      -1.386  52.013 -27.044  1.00  0.00     0.080 A 
HETATM    3  C7  UNL     1      -0.593  52.426 -25.974  1.00  0.00     0.067 A 
HETATM    4  N3  UNL     1       0.489  53.254 -25.907  1.00  0.00    -0.298 N 
HETATM    5  N4  UNL     1       0.987  53.407 -24.672  1.00  0.00    -0.284 N 
ATOM      6  H4  UNL     1       1.786  53.975 -24.389  1.00  0.00     0.188 HD
HETATM    7  C8  UNL     1       0.206  52.652 -23.893  1.00  0.00     0.130 A 
HETATM    8  N5  UNL     1       0.304  52.474 -22.551  1.00  0.00    -0.370 N 
HETATM    9  C12 UNL     1      -0.809  52.011 -24.668  1.00  0.00     0.052 A 
HETATM   10  C13 UNL     1      -1.872  51.138 -24.428  1.00  0.00     0.107 A 
HETATM   11  N6  UNL     1      -2.663  50.718 -25.450  1.00  0.00    -0.351 N 
ATOM     12  H6  UNL     1      -3.436  50.078 -25.269  1.00  0.00     0.166 HD
HETATM   13  H10 UNL     1       0.939  53.749 -26.669  1.00  0.00     0.187 HD
HETATM   14  H11 UNL     1      -0.376  51.876 -22.091  1.00  0.00     0.161 HD
ENDROOT
BRANCH   1  15
HETATM   15  N2  UNL     1      -3.317  50.625 -27.644  1.00  0.00    -0.295 N 
HETATM   16  C4  UNL     1      -3.696  49.321 -27.821  1.00  0.00     0.322 C 
HETATM   17  N1  UNL     1      -4.632  49.213 -28.826  1.00  0.00    -0.332 N 
HETATM   18  O2  UNL     1      -3.274  48.353 -27.204  1.00  0.00    -0.247 OA
HETATM   19  H7  UNL     1      -5.255  50.006 -28.891  1.00  0.00     0.165 HD
HETATM   20  H8  UNL     1      -3.607  51.306 -28.327  1.00  0.00     0.172 HD
BRANCH  17  21
HETATM   21  C3  UNL     1      -5.260  47.925 -29.126  1.00  0.00     0.143 C 
BRANCH  21  22
HETATM   22  C2  UNL     1      -5.387  47.649 -30.646  1.00  0.00     0.197 C 
BRANCH  22  23
HETATM   23  O1  UNL     1      -4.217  46.968 -31.121  1.00  0.00    -0.394 OA
HETATM   24  C1  UNL     1      -4.546  45.962 -32.067  1.00  0.00     0.201 C 
ENDBRANCH  22  23
ENDBRANCH  21  22
BRANCH  21  25
HETATM   25  C14 UNL     1      -6.620  47.867 -28.439  1.00  0.00    -0.033 A 
HETATM   26  C15 UNL     1      -7.792  48.276 -29.099  1.00  0.00     0.009 A 
HETATM   27  C16 UNL     1      -9.027  48.228 -28.450  1.00  0.00     0.001 A 
HETATM   28  C17 UNL     1      -9.108  47.772 -27.137  1.00  0.00     0.000 A 
HETATM   29  C18 UNL     1      -7.956  47.360 -26.471  1.00  0.00     0.001 A 
HETATM   30  C19 UNL     1      -6.719  47.408 -27.117  1.00  0.00     0.009 A 
ENDBRANCH  21  25
ENDBRANCH  17  21
ENDBRANCH   1  15
BRANCH   8  31
HETATM   31  C9  UNL     1       1.297  53.101 -21.674  1.00  0.00     0.083 A 
HETATM   32  C10 UNL     1       1.610  54.569 -21.655  1.00  0.00     0.027 A 
HETATM   33  C11 UNL     1       0.962  53.919 -20.462  1.00  0.00     0.027 A 
ENDBRANCH   8  31
TORSDOF 6
ENDMDL
MODEL 6
REMARK minimizedAffinity -7.6994338
REMARK  6 active torsions:
REMARK  status: ('A' for Active; 'I' for Inactive)
REMARK    1  A    between atoms: O1_2  and  C2_3 
REMARK    2  A    between atoms: C2_3  and  C3_4 
REMARK    3  A    between atoms: C3_4  and  N1_5 
REMARK    4  A    between atoms: C3_4  and  C14_24 
REMARK       I    between atoms: N1_5  and  C4_6 
REMARK       I    between atoms: C4_6  and  N2_8 
REMARK    5  A    between atoms: N2_8  and  C5_9 
REMARK    6  A    between atoms: N5_16  and  C9_17 
ROOT
HETATM    1  C5  UNL     1      -3.687  49.737 -25.310  1.00  0.00     0.111 A 
HETATM    2  C6  UNL     1      -3.346  48.958 -24.212  1.00  0.00     0.080 A 
HETATM    3  C7  UNL     1      -2.404  49.525 -23.353  1.00  0.00     0.067 A 
HETATM    4  N3  UNL     1      -1.832  49.073 -22.200  1.00  0.00    -0.298 N 
HETATM    5  N4  UNL     1      -0.953  49.923 -21.654  1.00  0.00    -0.284 N 
ATOM      6  H4  UNL     1      -0.410  49.793 -20.799  1.00  0.00     0.188 HD
HETATM    7  C8  UNL     1      -0.943  50.978 -22.474  1.00  0.00     0.130 A 
HETATM    8  N5  UNL     1      -0.206  52.112 -22.352  1.00  0.00    -0.370 N 
HETATM    9  C12 UNL     1      -1.844  50.775 -23.565  1.00  0.00     0.052 A 
HETATM   10  C13 UNL     1      -2.250  51.491 -24.694  1.00  0.00     0.107 A 
HETATM   11  N6  UNL     1      -3.165  50.964 -25.549  1.00  0.00    -0.351 N 
ATOM     12  H6  UNL     1      -3.460  51.492 -26.370  1.00  0.00     0.166 HD
HETATM   13  H10 UNL     1      -1.998  48.189 -21.731  1.00  0.00     0.187 HD
HETATM   14  H11 UNL     1      -0.296  52.826 -23.068  1.00  0.00     0.161 HD
ENDROOT
BRANCH   1  15
HETATM   15  N2  UNL     1      -4.614  49.344 -26.275  1.00  0.00    -0.295 N 
HETATM   16  C4  UNL     1      -4.396  48.642 -27.430  1.00  0.00     0.322 C 
HETATM   17  N1  UNL     1      -5.580  48.417 -28.099  1.00  0.00    -0.332 N 
HETATM   18  O2  UNL     1      -3.314  48.260 -27.854  1.00  0.00    -0.247 OA
HETATM   19  H7  UNL     1      -6.375  48.288 -27.489  1.00  0.00     0.165 HD
HETATM   20  H8  UNL     1      -5.525  49.747 -26.122  1.00  0.00     0.172 HD
BRANCH  17  21
HETATM   21  C3  UNL     1      -5.607  47.596 -29.311  1.00  0.00     0.143 C 
BRANCH  21  22
HETATM   22  C2  UNL     1      -6.021  48.391 -30.575  1.00  0.00     0.197 C 
BRANCH  22  23
HETATM   23  O1  UNL     1      -4.880  48.600 -31.420  1.00  0.00    -0.394 OA
HETATM   24  C1  UNL     1      -4.964  47.830 -32.610  1.00  0.00     0.201 C 
ENDBRANCH  22  23
ENDBRANCH  21  22
BRANCH  21  25
HETATM   25  C14 UNL     1      -6.531  46.405 -29.080  1.00  0.00    -0.033 A 
HETATM   26  C15 UNL     1      -6.628  45.361 -30.017  1.00  0.00     0.009 A 
HETATM   27  C16 UNL     1      -7.489  44.284 -29.795  1.00  0.00     0.001 A 
HETATM   28  C17 UNL     1      -8.261  44.236 -28.638  1.00  0.00     0.000 A 
HETATM   29  C18 UNL     1      -8.174  45.261 -27.699  1.00  0.00     0.001 A 
HETATM   30  C19 UNL     1      -7.315  46.339 -27.918  1.00  0.00     0.009 A 
ENDBRANCH  21  25
ENDBRANCH  17  21
ENDBRANCH   1  15
BRANCH   8  31
HETATM   31  C9  UNL     1       0.752  52.400 -21.281  1.00  0.00     0.083 A 
HETATM   32  C10 UNL     1       1.213  53.777 -20.899  1.00  0.00     0.027 A 
HETATM   33  C11 UNL     1       0.382  52.965 -19.942  1.00  0.00     0.027 A 
ENDBRANCH   8  31
TORSDOF 6
ENDMDL
MODEL 7
REMARK minimizedAffinity -7.68999577
REMARK  6 active torsions:
REMARK  status: ('A' for Active; 'I' for Inactive)
REMARK    1  A    between atoms: O1_2  and  C2_3 
REMARK    2  A    between atoms: C2_3  and  C3_4 
REMARK    3  A    between atoms: C3_4  and  N1_5 
REMARK    4  A    between atoms: C3_4  and  C14_24 
REMARK       I    between atoms: N1_5  and  C4_6 
REMARK       I    between atoms: C4_6  and  N2_8 
REMARK    5  A    between atoms: N2_8  and  C5_9 
REMARK    6  A    between atoms: N5_16  and  C9_17 
ROOT
HETATM    1  C5  UNL     1      -0.043  52.063 -19.145  1.00  0.00     0.111 A 
HETATM    2  C6  UNL     1       0.849  52.917 -18.508  1.00  0.00     0.080 A 
HETATM    3  C7  UNL     1       1.310  52.475 -17.268  1.00  0.00     0.067 A 
HETATM    4  N3  UNL     1       2.170  53.027 -16.365  1.00  0.00    -0.298 N 
HETATM    5  N4  UNL     1       2.364  52.283 -15.268  1.00  0.00    -0.284 N 
ATOM      6  H4  UNL     1       2.960  52.498 -14.468  1.00  0.00     0.188 HD
HETATM    7  C8  UNL     1       1.606  51.198 -15.451  1.00  0.00     0.130 A 
HETATM    8  N5  UNL     1       1.460  50.141 -14.613  1.00  0.00    -0.370 N 
HETATM    9  C12 UNL     1       0.918  51.271 -16.702  1.00  0.00     0.052 A 
HETATM   10  C13 UNL     1       0.022  50.474 -17.417  1.00  0.00     0.107 A 
HETATM   11  N6  UNL     1      -0.445  50.878 -18.627  1.00  0.00    -0.351 N 
ATOM     12  H6  UNL     1      -1.097  50.290 -19.146  1.00  0.00     0.166 HD
HETATM   13  H10 UNL     1       2.659  53.912 -16.436  1.00  0.00     0.187 HD
HETATM   14  H11 UNL     1       0.833  49.391 -14.885  1.00  0.00     0.161 HD
ENDROOT
BRANCH   1  15
HETATM   15  N2  UNL     1      -0.605  52.329 -20.393  1.00  0.00    -0.295 N 
HETATM   16  C4  UNL     1      -0.868  51.455 -21.414  1.00  0.00     0.322 C 
HETATM   17  N1  UNL     1      -1.465  52.101 -22.474  1.00  0.00    -0.332 N 
HETATM   18  O2  UNL     1      -0.609  50.260 -21.430  1.00  0.00    -0.247 OA
HETATM   19  H7  UNL     1      -2.072  52.862 -22.199  1.00  0.00     0.165 HD
HETATM   20  H8  UNL     1      -0.709  53.316 -20.568  1.00  0.00     0.172 HD
BRANCH  17  21
HETATM   21  C3  UNL     1      -1.930  51.349 -23.641  1.00  0.00     0.143 C 
BRANCH  21  22
HETATM   22  C2  UNL     1      -2.306  49.882 -23.309  1.00  0.00     0.197 C 
BRANCH  22  23
HETATM   23  O1  UNL     1      -3.707  49.672 -23.530  1.00  0.00    -0.394 OA
HETATM   24  C1  UNL     1      -3.941  48.540 -24.356  1.00  0.00     0.201 C 
ENDBRANCH  22  23
ENDBRANCH  21  22
BRANCH  21  25
HETATM   25  C14 UNL     1      -0.863  51.414 -24.728  1.00  0.00    -0.033 A 
HETATM   26  C15 UNL     1      -1.012  50.722 -25.943  1.00  0.00     0.009 A 
HETATM   27  C16 UNL     1      -0.019  50.783 -26.922  1.00  0.00     0.001 A 
HETATM   28  C17 UNL     1       1.133  51.534 -26.702  1.00  0.00     0.000 A 
HETATM   29  C18 UNL     1       1.293  52.228 -25.504  1.00  0.00     0.001 A 
HETATM   30  C19 UNL     1       0.302  52.168 -24.523  1.00  0.00     0.009 A 
ENDBRANCH  21  25
ENDBRANCH  17  21
ENDBRANCH   1  15
BRANCH   8  31
HETATM   31  C9  UNL     1       2.110  49.987 -13.308  1.00  0.00     0.083 A 
HETATM   32  C10 UNL     1       3.500  49.457 -13.106  1.00  0.00     0.027 A 
HETATM   33  C11 UNL     1       3.184  50.893 -12.783  1.00  0.00     0.027 A 
ENDBRANCH   8  31
TORSDOF 6
ENDMDL
MODEL 8
REMARK minimizedAffinity -7.68649054
REMARK  6 active torsions:
REMARK  status: ('A' for Active; 'I' for Inactive)
REMARK    1  A    between atoms: O1_2  and  C2_3 
REMARK    2  A    between atoms: C2_3  and  C3_4 
REMARK    3  A    between atoms: C3_4  and  N1_5 
REMARK    4  A    between atoms: C3_4  and  C14_24 
REMARK       I    between atoms: N1_5  and  C4_6 
REMARK       I    between atoms: C4_6  and  N2_8 
REMARK    5  A    between atoms: N2_8  and  C5_9 
REMARK    6  A    between atoms: N5_16  and  C9_17 
ROOT
HETATM    1  C5  UNL     1       0.829  52.841 -19.105  1.00  0.00     0.111 A 
HETATM    2  C6  UNL     1      -0.042  51.872 -19.587  1.00  0.00     0.080 A 
HETATM    3  C7  UNL     1      -0.146  51.809 -20.977  1.00  0.00     0.067 A 
HETATM    4  N3  UNL     1      -0.883  51.010 -21.801  1.00  0.00    -0.298 N 
HETATM    5  N4  UNL     1      -0.709  51.259 -23.106  1.00  0.00    -0.284 N 
ATOM      6  H4  UNL     1      -1.155  50.789 -23.894  1.00  0.00     0.188 HD
HETATM    7  C8  UNL     1       0.177  52.259 -23.148  1.00  0.00     0.130 A 
HETATM    8  N5  UNL     1       0.680  52.871 -24.250  1.00  0.00    -0.370 N 
HETATM    9  C12 UNL     1       0.564  52.644 -21.827  1.00  0.00     0.052 A 
HETATM   10  C13 UNL     1       1.421  53.585 -21.253  1.00  0.00     0.107 A 
HETATM   11  N6  UNL     1       1.543  53.671 -19.902  1.00  0.00    -0.351 N 
ATOM     12  H6  UNL     1       2.172  54.359 -19.489  1.00  0.00     0.166 HD
HETATM   13  H10 UNL     1      -1.528  50.274 -21.536  1.00  0.00     0.187 HD
HETATM   14  H11 UNL     1       1.340  53.631 -24.122  1.00  0.00     0.161 HD
ENDROOT
BRANCH   1  15
HETATM   15  N2  UNL     1       1.071  53.051 -17.747  1.00  0.00    -0.295 N 
HETATM   16  C4  UNL     1       1.052  52.139 -16.727  1.00  0.00     0.322 C 
HETATM   17  N1  UNL     1       1.383  52.733 -15.529  1.00  0.00    -0.332 N 
HETATM   18  O2  UNL     1       0.769  50.952 -16.820  1.00  0.00    -0.247 OA
HETATM   19  H7  UNL     1       2.056  53.482 -15.617  1.00  0.00     0.165 HD
HETATM   20  H8  UNL     1       1.152  54.029 -17.516  1.00  0.00     0.172 HD
BRANCH  17  21
HETATM   21  C3  UNL     1       1.526  51.931 -14.312  1.00  0.00     0.143 C 
BRANCH  21  22
HETATM   22  C2  UNL     1       1.808  50.435 -14.599  1.00  0.00     0.197 C 
BRANCH  22  23
HETATM   23  O1  UNL     1       2.593  49.870 -13.539  1.00  0.00    -0.394 OA
HETATM   24  C1  UNL     1       3.984  50.029 -13.777  1.00  0.00     0.201 C 
ENDBRANCH  22  23
ENDBRANCH  21  22
BRANCH  21  25
HETATM   25  C14 UNL     1       0.276  52.104 -13.457  1.00  0.00    -0.033 A 
HETATM   26  C15 UNL     1      -0.943  51.500 -13.812  1.00  0.00     0.009 A 
HETATM   27  C16 UNL     1      -2.082  51.679 -13.024  1.00  0.00     0.001 A 
HETATM   28  C17 UNL     1      -2.018  52.461 -11.874  1.00  0.00     0.000 A 
HETATM   29  C18 UNL     1      -0.816  53.063 -11.507  1.00  0.00     0.001 A 
HETATM   30  C19 UNL     1       0.324  52.886 -12.293  1.00  0.00     0.009 A 
ENDBRANCH  21  25
ENDBRANCH  17  21
ENDBRANCH   1  15
BRANCH   8  31
HETATM   31  C9  UNL     1       0.330  52.557 -25.638  1.00  0.00     0.083 A 
HETATM   32  C10 UNL     1       1.319  52.168 -26.698  1.00  0.00     0.027 A 
HETATM   33  C11 UNL     1       0.301  51.172 -26.213  1.00  0.00     0.027 A 
ENDBRANCH   8  31
TORSDOF 6
ENDMDL
MODEL 9
REMARK minimizedAffinity -7.66829538
REMARK  6 active torsions:
REMARK  status: ('A' for Active; 'I' for Inactive)
REMARK    1  A    between atoms: O1_2  and  C2_3 
REMARK    2  A    between atoms: C2_3  and  C3_4 
REMARK    3  A    between atoms: C3_4  and  N1_5 
REMARK    4  A    between atoms: C3_4  and  C14_24 
REMARK       I    between atoms: N1_5  and  C4_6 
REMARK       I    between atoms: C4_6  and  N2_8 
REMARK    5  A    between atoms: N2_8  and  C5_9 
REMARK    6  A    between atoms: N5_16  and  C9_17 
ROOT
HETATM    1  C5  UNL     1      -0.034  52.354 -21.080  1.00  0.00     0.111 A 
HETATM    2  C6  UNL     1       0.687  53.297 -21.801  1.00  0.00     0.080 A 
HETATM    3  C7  UNL     1       0.607  53.170 -23.188  1.00  0.00     0.067 A 
HETATM    4  N3  UNL     1       1.166  53.887 -24.204  1.00  0.00    -0.298 N 
HETATM    5  N4  UNL     1       0.845  53.446 -25.428  1.00  0.00    -0.284 N 
ATOM      6  H4  UNL     1       1.148  53.827 -26.326  1.00  0.00     0.188 HD
HETATM    7  C8  UNL     1       0.044  52.398 -25.215  1.00  0.00     0.130 A 
HETATM    8  N5  UNL     1      -0.547  51.608 -26.147  1.00  0.00    -0.370 N 
HETATM    9  C12 UNL     1      -0.139  52.181 -23.814  1.00  0.00     0.052 A 
HETATM   10  C13 UNL     1      -0.837  51.280 -23.008  1.00  0.00     0.107 A 
HETATM   11  N6  UNL     1      -0.777  51.379 -21.654  1.00  0.00    -0.351 N 
ATOM     12  H6  UNL     1      -1.291  50.719 -21.071  1.00  0.00     0.166 HD
HETATM   13  H10 UNL     1       1.779  54.691 -24.131  1.00  0.00     0.187 HD
HETATM   14  H11 UNL     1      -1.123  50.834 -25.830  1.00  0.00     0.161 HD
ENDROOT
BRANCH   1  15
HETATM   15  N2  UNL     1      -0.082  52.324 -19.686  1.00  0.00    -0.295 N 
HETATM   16  C4  UNL     1      -0.208  51.238 -18.861  1.00  0.00     0.322 C 
HETATM   17  N1  UNL     1      -0.176  51.620 -17.538  1.00  0.00    -0.332 N 
HETATM   18  O2  UNL     1      -0.347  50.074 -19.210  1.00  0.00    -0.247 OA
HETATM   19  H7  UNL     1       0.424  52.413 -17.356  1.00  0.00     0.165 HD
HETATM   20  H8  UNL     1      -0.146  53.244 -19.281  1.00  0.00     0.172 HD
BRANCH  17  21
HETATM   21  C3  UNL     1      -0.191  50.616 -16.471  1.00  0.00     0.143 C 
BRANCH  21  22
HETATM   22  C2  UNL     1      -1.436  50.722 -15.554  1.00  0.00     0.197 C 
BRANCH  22  23
HETATM   23  O1  UNL     1      -2.615  50.917 -16.347  1.00  0.00    -0.394 OA
HETATM   24  C1  UNL     1      -3.146  49.683 -16.806  1.00  0.00     0.201 C 
ENDBRANCH  22  23
ENDBRANCH  21  22
BRANCH  21  25
HETATM   25  C14 UNL     1       1.099  50.731 -15.667  1.00  0.00    -0.033 A 
HETATM   26  C15 UNL     1       1.421  49.801 -14.663  1.00  0.00     0.009 A 
HETATM   27  C16 UNL     1       2.601  49.928 -13.928  1.00  0.00     0.001 A 
HETATM   28  C17 UNL     1       3.473  50.982 -14.185  1.00  0.00     0.000 A 
HETATM   29  C18 UNL     1       3.170  51.910 -15.179  1.00  0.00     0.001 A 
HETATM   30  C19 UNL     1       1.990  51.786 -15.915  1.00  0.00     0.009 A 
ENDBRANCH  21  25
ENDBRANCH  17  21
ENDBRANCH   1  15
BRANCH   8  31
HETATM   31  C9  UNL     1      -0.405  51.743 -27.600  1.00  0.00     0.083 A 
HETATM   32  C10 UNL     1       0.111  52.970 -28.294  1.00  0.00     0.027 A 
HETATM   33  C11 UNL     1       0.903  51.691 -28.332  1.00  0.00     0.027 A 
ENDBRANCH   8  31
TORSDOF 6
ENDMDL
