MODEL 1
REMARK minimizedAffinity -9.63550568
REMARK CNNscore 0.689047575
REMARK CNNaffinity 6.32631302
REMARK  7 active torsions:
REMARK  status: ('A' for Active; 'I' for Inactive)
REMARK       I    between atoms: C1_2  and  N1_3 
REMARK    1  A    between atoms: C1_2  and  C8_12 
REMARK    2  A    between atoms: N1_3  and  C2_4 
REMARK    3  A    between atoms: C5_7  and  O2_8 
REMARK    4  A    between atoms: N2_15  and  C11_16 
REMARK    5  A    between atoms: C11_16  and  C12_17 
REMARK       I    between atoms: C12_17  and  N3_19 
REMARK    6  A    between atoms: N4_22  and  C15_23 
REMARK    7  A    between atoms: C18_26  and  C19_27 
ROOT
HETATM    1  C12 UNL     1      -7.278  47.621 -24.105  1.00  0.00     0.248 C 
HETATM    2  O3  UNL     1      -6.838  47.171 -23.044  1.00  0.00    -0.271 OA
HETATM    3  N3  UNL     1      -8.634  47.496 -24.430  1.00  0.00    -0.348 N 
HETATM    4  C13 UNL     1      -9.533  47.031 -23.363  1.00  0.00     0.140 C 
HETATM    5  C14 UNL     1     -10.834  46.398 -23.889  1.00  0.00     0.115 C 
HETATM    6  N4  UNL     1     -11.480  47.288 -24.887  1.00  0.00    -0.280 NA
HETATM    7  C27 UNL     1     -10.577  47.602 -26.012  1.00  0.00     0.115 C 
HETATM    8  C28 UNL     1      -9.291  48.271 -25.492  1.00  0.00     0.140 C 
ENDROOT
BRANCH   1   9
HETATM    9  C11 UNL     1      -6.388  48.336 -25.147  1.00  0.00     0.374 C 
BRANCH   9  10
HETATM   10  N2  UNL     1      -4.947  48.231 -24.855  1.00  0.00     0.098 N 
HETATM   11  C10 UNL     1      -4.134  48.413 -26.057  1.00  0.00     0.274 C 
HETATM   12  C9  UNL     1      -2.737  48.667 -25.503  1.00  0.00     0.046 C 
HETATM   13  C8  UNL     1      -2.957  49.149 -24.065  1.00  0.00     0.108 C 
HETATM   14  C29 UNL     1      -4.471  49.274 -23.933  1.00  0.00     0.287 C 
BRANCH  13  15
HETATM   15  C1  UNL     1      -2.223  50.444 -23.753  1.00  0.00     0.228 C 
HETATM   16  O1  UNL     1      -2.367  51.456 -24.430  1.00  0.00    -0.273 OA
HETATM   17  N1  UNL     1      -1.412  50.321 -22.633  1.00  0.00    -0.327 N 
HETATM   18  H1  UNL     1      -1.407  49.415 -22.181  1.00  0.00     0.169 HD
BRANCH  17  19
HETATM   19  C2  UNL     1      -0.613  51.316 -22.034  1.00  0.00     0.036 A 
HETATM   20  C3  UNL     1       0.105  52.279 -22.748  1.00  0.00     0.032 A 
HETATM   21  C4  UNL     1       0.875  53.240 -22.081  1.00  0.00     0.040 A 
HETATM   22  C5  UNL     1       0.931  53.239 -20.688  1.00  0.00     0.087 A 
HETATM   23  C6  UNL     1       0.216  52.285 -19.964  1.00  0.00     0.069 A 
HETATM   24 CL1  UNL     1       0.235  52.262 -18.238  1.00  0.00    -0.081 Cl
HETATM   25  C7  UNL     1      -0.552  51.327 -20.634  1.00  0.00     0.056 A 
BRANCH  22  26
HETATM   26  O2  UNL     1       1.680  54.178 -20.036  1.00  0.00    -0.359 OA
HETATM   27  H4  UNL     1       2.085  54.775 -20.685  1.00  0.00     0.217 HD
ENDBRANCH  22  26
ENDBRANCH  17  19
ENDBRANCH  13  15
ENDBRANCH   9  10
ENDBRANCH   1   9
BRANCH   6  28
HETATM   28  C15 UNL     1     -12.791  46.889 -25.196  1.00  0.00     0.010 A 
HETATM   29  C16 UNL     1     -13.285  46.771 -26.501  1.00  0.00     0.024 A 
HETATM   30  C17 UNL     1     -14.605  46.364 -26.746  1.00  0.00     0.014 A 
HETATM   31  C18 UNL     1     -15.485  46.068 -25.697  1.00  0.00    -0.026 A 
HETATM   32  C25 UNL     1     -14.998  46.196 -24.390  1.00  0.00     0.014 A 
HETATM   33  C26 UNL     1     -13.677  46.598 -24.148  1.00  0.00     0.024 A 
BRANCH  31  34
HETATM   34  C19 UNL     1     -16.871  45.643 -25.958  1.00  0.00    -0.023 A 
HETATM   35  C20 UNL     1     -17.174  44.753 -27.008  1.00  0.00     0.012 A 
HETATM   36  C21 UNL     1     -18.488  44.341 -27.256  1.00  0.00     0.004 A 
HETATM   37  C22 UNL     1     -19.525  44.815 -26.457  1.00  0.00     0.042 A 
HETATM   38  C23 UNL     1     -19.239  45.695 -25.420  1.00  0.00     0.117 A 
HETATM   39  F1  UNL     1     -20.236  46.152 -24.650  1.00  0.00    -0.206 F 
HETATM   40  C24 UNL     1     -17.934  46.108 -25.165  1.00  0.00     0.054 A 
ENDBRANCH  31  34
ENDBRANCH   6  28
TORSDOF 7
ENDMDL
MODEL 2
REMARK minimizedAffinity -9.35533714
REMARK CNNscore 0.601566553
REMARK CNNaffinity 6.99639463
REMARK  7 active torsions:
REMARK  status: ('A' for Active; 'I' for Inactive)
REMARK       I    between atoms: C1_2  and  N1_3 
REMARK    1  A    between atoms: C1_2  and  C8_12 
REMARK    2  A    between atoms: N1_3  and  C2_4 
REMARK    3  A    between atoms: C5_7  and  O2_8 
REMARK    4  A    between atoms: N2_15  and  C11_16 
REMARK    5  A    between atoms: C11_16  and  C12_17 
REMARK       I    between atoms: C12_17  and  N3_19 
REMARK    6  A    between atoms: N4_22  and  C15_23 
REMARK    7  A    between atoms: C18_26  and  C19_27 
ROOT
HETATM    1  C12 UNL     1      -4.627  48.336 -27.889  1.00  0.00     0.248 C 
HETATM    2  O3  UNL     1      -4.108  48.159 -28.994  1.00  0.00    -0.271 OA
HETATM    3  N3  UNL     1      -5.927  47.887 -27.627  1.00  0.00    -0.348 N 
HETATM    4  C13 UNL     1      -6.539  47.000 -28.627  1.00  0.00     0.140 C 
HETATM    5  C14 UNL     1      -8.077  46.995 -28.583  1.00  0.00     0.115 C 
HETATM    6  N4  UNL     1      -8.559  46.774 -27.196  1.00  0.00    -0.280 NA
HETATM    7  C27 UNL     1      -8.027  47.785 -26.261  1.00  0.00     0.115 C 
HETATM    8  C28 UNL     1      -6.487  47.766 -26.273  1.00  0.00     0.140 C 
ENDROOT
BRANCH   1   9
HETATM    9  C11 UNL     1      -3.907  49.061 -26.729  1.00  0.00     0.374 C 
BRANCH   9  10
HETATM   10  N2  UNL     1      -2.782  49.903 -27.176  1.00  0.00     0.098 N 
HETATM   11  C10 UNL     1      -3.115  51.326 -27.130  1.00  0.00     0.274 C 
HETATM   12  C9  UNL     1      -1.757  52.011 -27.229  1.00  0.00     0.046 C 
HETATM   13  C8  UNL     1      -0.741  50.955 -26.778  1.00  0.00     0.108 C 
HETATM   14  C29 UNL     1      -1.595  49.780 -26.315  1.00  0.00     0.287 C 
BRANCH  13  15
HETATM   15  C1  UNL     1       0.206  51.464 -25.702  1.00  0.00     0.228 C 
HETATM   16  O1  UNL     1       1.423  51.383 -25.812  1.00  0.00    -0.273 OA
HETATM   17  N1  UNL     1      -0.481  52.019 -24.630  1.00  0.00    -0.327 N 
HETATM   18  H1  UNL     1      -1.492  52.013 -24.694  1.00  0.00     0.169 HD
BRANCH  17  19
HETATM   19  C2  UNL     1       0.062  52.615 -23.474  1.00  0.00     0.036 A 
HETATM   20  C3  UNL     1       0.860  53.762 -23.485  1.00  0.00     0.032 A 
HETATM   21  C4  UNL     1       1.361  54.298 -22.293  1.00  0.00     0.040 A 
HETATM   22  C5  UNL     1       1.066  53.683 -21.077  1.00  0.00     0.087 A 
HETATM   23  C6  UNL     1       0.267  52.539 -21.053  1.00  0.00     0.069 A 
HETATM   24 CL1  UNL     1      -0.145  51.759 -19.569  1.00  0.00    -0.081 Cl
HETATM   25  C7  UNL     1      -0.232  52.006 -22.246  1.00  0.00     0.056 A 
BRANCH  22  26
HETATM   26  O2  UNL     1       1.552  54.207 -19.913  1.00  0.00    -0.359 OA
HETATM   27  H4  UNL     1       2.059  55.012 -20.108  1.00  0.00     0.217 HD
ENDBRANCH  22  26
ENDBRANCH  17  19
ENDBRANCH  13  15
ENDBRANCH   9  10
ENDBRANCH   1   9
BRANCH   6  28
HETATM   28  C15 UNL     1      -9.934  46.494 -27.141  1.00  0.00     0.010 A 
HETATM   29  C16 UNL     1     -10.745  46.778 -26.036  1.00  0.00     0.024 A 
HETATM   30  C17 UNL     1     -12.116  46.478 -26.041  1.00  0.00     0.014 A 
HETATM   31  C18 UNL     1     -12.726  45.873 -27.148  1.00  0.00    -0.026 A 
HETATM   32  C25 UNL     1     -11.915  45.577 -28.251  1.00  0.00     0.014 A 
HETATM   33  C26 UNL     1     -10.548  45.882 -28.244  1.00  0.00     0.024 A 
BRANCH  31  34
HETATM   34  C19 UNL     1     -14.166  45.557 -27.150  1.00  0.00    -0.023 A 
HETATM   35  C20 UNL     1     -14.984  45.884 -26.051  1.00  0.00     0.012 A 
HETATM   36  C21 UNL     1     -16.353  45.592 -26.051  1.00  0.00     0.004 A 
HETATM   37  C22 UNL     1     -16.927  44.964 -27.153  1.00  0.00     0.042 A 
HETATM   38  C23 UNL     1     -16.129  44.634 -28.242  1.00  0.00     0.117 A 
HETATM   39  F1  UNL     1     -16.680  44.030 -29.303  1.00  0.00    -0.206 F 
HETATM   40  C24 UNL     1     -14.767  44.923 -28.251  1.00  0.00     0.054 A 
ENDBRANCH  31  34
ENDBRANCH   6  28
TORSDOF 7
ENDMDL
MODEL 3
REMARK minimizedAffinity -9.15796185
REMARK CNNscore 0.55110985
REMARK CNNaffinity 7.08644724
REMARK  7 active torsions:
REMARK  status: ('A' for Active; 'I' for Inactive)
REMARK       I    between atoms: C1_2  and  N1_3 
REMARK    1  A    between atoms: C1_2  and  C8_12 
REMARK    2  A    between atoms: N1_3  and  C2_4 
REMARK    3  A    between atoms: C5_7  and  O2_8 
REMARK    4  A    between atoms: N2_15  and  C11_16 
REMARK    5  A    between atoms: C11_16  and  C12_17 
REMARK       I    between atoms: C12_17  and  N3_19 
REMARK    6  A    between atoms: N4_22  and  C15_23 
REMARK    7  A    between atoms: C18_26  and  C19_27 
ROOT
HETATM    1  C12 UNL     1      -4.390  48.453 -27.702  1.00  0.00     0.248 C 
HETATM    2  O3  UNL     1      -4.244  48.482 -28.927  1.00  0.00    -0.271 OA
HETATM    3  N3  UNL     1      -5.624  48.113 -27.135  1.00  0.00    -0.348 N 
HETATM    4  C13 UNL     1      -6.645  47.567 -28.042  1.00  0.00     0.140 C 
HETATM    5  C14 UNL     1      -8.083  47.734 -27.519  1.00  0.00     0.115 C 
HETATM    6  N4  UNL     1      -8.189  47.250 -26.120  1.00  0.00    -0.280 NA
HETATM    7  C27 UNL     1      -7.240  47.940 -25.225  1.00  0.00     0.115 C 
HETATM    8  C28 UNL     1      -5.796  47.742 -25.723  1.00  0.00     0.140 C 
ENDROOT
BRANCH   1   9
HETATM    9  C11 UNL     1      -3.253  48.792 -26.712  1.00  0.00     0.374 C 
BRANCH   9  10
HETATM   10  N2  UNL     1      -2.664  50.125 -26.934  1.00  0.00     0.098 N 
HETATM   11  C10 UNL     1      -3.439  51.179 -26.278  1.00  0.00     0.274 C 
HETATM   12  C9  UNL     1      -2.488  52.370 -26.280  1.00  0.00     0.046 C 
HETATM   13  C8  UNL     1      -1.087  51.765 -26.430  1.00  0.00     0.108 C 
HETATM   14  C29 UNL     1      -1.315  50.259 -26.364  1.00  0.00     0.287 C 
BRANCH  13  15
HETATM   15  C1  UNL     1      -0.108  52.267 -25.380  1.00  0.00     0.228 C 
HETATM   16  O1  UNL     1       1.015  52.661 -25.671  1.00  0.00    -0.273 OA
HETATM   17  N1  UNL     1      -0.654  52.227 -24.105  1.00  0.00    -0.327 N 
HETATM   18  H1  UNL     1      -1.601  51.877 -24.033  1.00  0.00     0.169 HD
BRANCH  17  19
HETATM   19  C2  UNL     1      -0.054  52.640 -22.897  1.00  0.00     0.036 A 
HETATM   20  C3  UNL     1       0.868  53.686 -22.799  1.00  0.00     0.032 A 
HETATM   21  C4  UNL     1       1.418  54.041 -21.561  1.00  0.00     0.040 A 
HETATM   22  C5  UNL     1       1.048  53.346 -20.411  1.00  0.00     0.087 A 
HETATM   23  C6  UNL     1       0.125  52.303 -20.496  1.00  0.00     0.069 A 
HETATM   24 CL1  UNL     1      -0.383  51.432 -19.095  1.00  0.00    -0.081 Cl
HETATM   25  C7  UNL     1      -0.423  51.951 -21.734  1.00  0.00     0.056 A 
BRANCH  22  26
HETATM   26  O2  UNL     1       1.583  53.695 -19.203  1.00  0.00    -0.359 OA
HETATM   27  H4  UNL     1       2.178  54.452 -19.320  1.00  0.00     0.217 HD
ENDBRANCH  22  26
ENDBRANCH  17  19
ENDBRANCH  13  15
ENDBRANCH   9  10
ENDBRANCH   1   9
BRANCH   6  28
HETATM   28  C15 UNL     1      -9.521  47.131 -25.691  1.00  0.00     0.010 A 
HETATM   29  C16 UNL     1      -9.893  46.734 -24.400  1.00  0.00     0.024 A 
HETATM   30  C17 UNL     1     -11.243  46.636 -24.028  1.00  0.00     0.014 A 
HETATM   31  C18 UNL     1     -12.272  46.922 -24.935  1.00  0.00    -0.026 A 
HETATM   32  C25 UNL     1     -11.904  47.308 -26.230  1.00  0.00     0.014 A 
HETATM   33  C26 UNL     1     -10.555  47.409 -26.596  1.00  0.00     0.024 A 
BRANCH  31  34
HETATM   34  C19 UNL     1     -13.688  46.817 -24.542  1.00  0.00    -0.023 A 
HETATM   35  C20 UNL     1     -14.688  46.523 -25.490  1.00  0.00     0.012 A 
HETATM   36  C21 UNL     1     -16.033  46.416 -25.120  1.00  0.00     0.004 A 
HETATM   37  C22 UNL     1     -16.403  46.603 -23.792  1.00  0.00     0.042 A 
HETATM   38  C23 UNL     1     -15.426  46.895 -22.847  1.00  0.00     0.117 A 
HETATM   39  F1  UNL     1     -15.780  47.075 -21.567  1.00  0.00    -0.206 F 
HETATM   40  C24 UNL     1     -14.085  47.001 -23.206  1.00  0.00     0.054 A 
ENDBRANCH  31  34
ENDBRANCH   6  28
TORSDOF 7
ENDMDL
MODEL 4
REMARK minimizedAffinity -8.52831745
REMARK CNNscore 0.486309916
REMARK CNNaffinity 6.48782301
REMARK  7 active torsions:
REMARK  status: ('A' for Active; 'I' for Inactive)
REMARK       I    between atoms: C1_2  and  N1_3 
REMARK    1  A    between atoms: C1_2  and  C8_12 
REMARK    2  A    between atoms: N1_3  and  C2_4 
REMARK    3  A    between atoms: C5_7  and  O2_8 
REMARK    4  A    between atoms: N2_15  and  C11_16 
REMARK    5  A    between atoms: C11_16  and  C12_17 
REMARK       I    between atoms: C12_17  and  N3_19 
REMARK    6  A    between atoms: N4_22  and  C15_23 
REMARK    7  A    between atoms: C18_26  and  C19_27 
ROOT
HETATM    1  C12 UNL     1      -4.785  48.502 -28.413  1.00  0.00     0.248 C 
HETATM    2  O3  UNL     1      -4.529  48.870 -29.562  1.00  0.00    -0.271 OA
HETATM    3  N3  UNL     1      -6.065  48.046 -28.074  1.00  0.00    -0.348 N 
HETATM    4  C13 UNL     1      -6.999  47.801 -29.183  1.00  0.00     0.140 C 
HETATM    5  C14 UNL     1      -8.478  47.851 -28.761  1.00  0.00     0.115 C 
HETATM    6  N4  UNL     1      -8.710  46.996 -27.569  1.00  0.00    -0.280 NA
HETATM    7  C27 UNL     1      -7.845  47.384 -26.437  1.00  0.00     0.115 C 
HETATM    8  C28 UNL     1      -6.362  47.298 -26.844  1.00  0.00     0.140 C 
ENDROOT
BRANCH   1   9
HETATM    9  C11 UNL     1      -3.742  48.522 -27.272  1.00  0.00     0.374 C 
BRANCH   9  10
HETATM   10  N2  UNL     1      -4.227  49.189 -26.050  1.00  0.00     0.098 N 
HETATM   11  C10 UNL     1      -3.921  48.413 -24.848  1.00  0.00     0.274 C 
HETATM   12  C9  UNL     1      -4.126  49.415 -23.719  1.00  0.00     0.046 C 
HETATM   13  C8  UNL     1      -3.996  50.793 -24.376  1.00  0.00     0.108 C 
HETATM   14  C29 UNL     1      -3.586  50.491 -25.813  1.00  0.00     0.287 C 
BRANCH  13  15
HETATM   15  C1  UNL     1      -3.015  51.705 -23.655  1.00  0.00     0.228 C 
HETATM   16  O1  UNL     1      -2.720  52.815 -24.083  1.00  0.00    -0.273 OA
HETATM   17  N1  UNL     1      -2.535  51.127 -22.488  1.00  0.00    -0.327 N 
HETATM   18  H1  UNL     1      -2.882  50.200 -22.271  1.00  0.00     0.169 HD
BRANCH  17  19
HETATM   19  C2  UNL     1      -1.639  51.686 -21.554  1.00  0.00     0.036 A 
HETATM   20  C3  UNL     1      -1.741  51.512 -20.171  1.00  0.00     0.032 A 
HETATM   21  C4  UNL     1      -0.810  52.098 -19.305  1.00  0.00     0.040 A 
HETATM   22  C5  UNL     1       0.231  52.866 -19.822  1.00  0.00     0.087 A 
HETATM   23  C6  UNL     1       0.346  53.044 -21.201  1.00  0.00     0.069 A 
HETATM   24 CL1  UNL     1       1.634  53.966 -21.888  1.00  0.00    -0.081 Cl
HETATM   25  C7  UNL     1      -0.586  52.458 -22.063  1.00  0.00     0.056 A 
BRANCH  22  26
HETATM   26  O2  UNL     1       1.142  53.436 -18.977  1.00  0.00    -0.359 OA
HETATM   27  H4  UNL     1       0.932  53.189 -18.062  1.00  0.00     0.217 HD
ENDBRANCH  22  26
ENDBRANCH  17  19
ENDBRANCH  13  15
ENDBRANCH   9  10
ENDBRANCH   1   9
BRANCH   6  28
HETATM   28  C15 UNL     1     -10.074  46.793 -27.308  1.00  0.00     0.010 A 
HETATM   29  C16 UNL     1     -10.784  47.457 -26.300  1.00  0.00     0.024 A 
HETATM   30  C17 UNL     1     -12.150  47.215 -26.089  1.00  0.00     0.014 A 
HETATM   31  C18 UNL     1     -12.857  46.292 -26.871  1.00  0.00    -0.026 A 
HETATM   32  C25 UNL     1     -12.148  45.618 -27.873  1.00  0.00     0.014 A 
HETATM   33  C26 UNL     1     -10.785  45.866 -28.084  1.00  0.00     0.024 A 
BRANCH  31  34
HETATM   34  C19 UNL     1     -14.291  46.039 -26.646  1.00  0.00    -0.023 A 
HETATM   35  C20 UNL     1     -15.062  45.331 -27.589  1.00  0.00     0.012 A 
HETATM   36  C21 UNL     1     -16.423  45.083 -27.376  1.00  0.00     0.004 A 
HETATM   37  C22 UNL     1     -17.037  45.541 -26.214  1.00  0.00     0.042 A 
HETATM   38  C23 UNL     1     -16.287  46.242 -25.278  1.00  0.00     0.117 A 
HETATM   39  F1  UNL     1     -16.876  46.684 -24.158  1.00  0.00    -0.206 F 
HETATM   40  C24 UNL     1     -14.932  46.492 -25.481  1.00  0.00     0.054 A 
ENDBRANCH  31  34
ENDBRANCH   6  28
TORSDOF 7
ENDMDL
MODEL 5
REMARK minimizedAffinity -10.3630829
REMARK CNNscore 0.474327534
REMARK CNNaffinity 7.70276785
REMARK  7 active torsions:
REMARK  status: ('A' for Active; 'I' for Inactive)
REMARK       I    between atoms: C1_2  and  N1_3 
REMARK    1  A    between atoms: C1_2  and  C8_12 
REMARK    2  A    between atoms: N1_3  and  C2_4 
REMARK    3  A    between atoms: C5_7  and  O2_8 
REMARK    4  A    between atoms: N2_15  and  C11_16 
REMARK    5  A    between atoms: C11_16  and  C12_17 
REMARK       I    between atoms: C12_17  and  N3_19 
REMARK    6  A    between atoms: N4_22  and  C15_23 
REMARK    7  A    between atoms: C18_26  and  C19_27 
ROOT
HETATM    1  C12 UNL     1      -5.925  49.356 -22.625  1.00  0.00     0.248 C 
HETATM    2  O3  UNL     1      -6.746  50.246 -22.860  1.00  0.00    -0.271 OA
HETATM    3  N3  UNL     1      -4.892  49.559 -21.703  1.00  0.00    -0.348 N 
HETATM    4  C13 UNL     1      -4.974  50.765 -20.866  1.00  0.00     0.140 C 
HETATM    5  C14 UNL     1      -3.614  51.218 -20.307  1.00  0.00     0.115 C 
HETATM    6  N4  UNL     1      -2.907  50.080 -19.667  1.00  0.00    -0.280 NA
HETATM    7  C27 UNL     1      -2.723  48.951 -20.601  1.00  0.00     0.115 C 
HETATM    8  C28 UNL     1      -4.085  48.470 -21.132  1.00  0.00     0.140 C 
ENDROOT
BRANCH   1   9
HETATM    9  C11 UNL     1      -5.959  47.976 -23.321  1.00  0.00     0.374 C 
BRANCH   9  10
HETATM   10  N2  UNL     1      -5.007  47.864 -24.442  1.00  0.00     0.098 N 
HETATM   11  C10 UNL     1      -5.581  48.354 -25.695  1.00  0.00     0.274 C 
HETATM   12  C9  UNL     1      -4.365  48.527 -26.596  1.00  0.00     0.046 C 
HETATM   13  C8  UNL     1      -3.171  48.650 -25.642  1.00  0.00     0.108 C 
HETATM   14  C29 UNL     1      -3.798  48.680 -24.253  1.00  0.00     0.287 C 
BRANCH  13  15
HETATM   15  C1  UNL     1      -2.303  49.865 -25.931  1.00  0.00     0.228 C 
HETATM   16  O1  UNL     1      -2.142  50.298 -27.066  1.00  0.00    -0.273 OA
HETATM   17  N1  UNL     1      -1.755  50.395 -24.771  1.00  0.00    -0.327 N 
HETATM   18  H1  UNL     1      -1.990  49.922 -23.907  1.00  0.00     0.169 HD
BRANCH  17  19
HETATM   19  C2  UNL     1      -0.930  51.532 -24.648  1.00  0.00     0.036 A 
HETATM   20  C3  UNL     1      -0.629  52.398 -25.702  1.00  0.00     0.032 A 
HETATM   21  C4  UNL     1       0.197  53.511 -25.502  1.00  0.00     0.040 A 
HETATM   22  C5  UNL     1       0.730  53.761 -24.239  1.00  0.00     0.087 A 
HETATM   23  C6  UNL     1       0.434  52.905 -23.177  1.00  0.00     0.069 A 
HETATM   24 CL1  UNL     1       1.050  53.190 -21.590  1.00  0.00    -0.081 Cl
HETATM   25  C7  UNL     1      -0.392  51.795 -23.381  1.00  0.00     0.056 A 
BRANCH  22  26
HETATM   26  O2  UNL     1       1.534  54.848 -24.042  1.00  0.00    -0.359 OA
HETATM   27  H4  UNL     1       1.612  55.346 -24.871  1.00  0.00     0.217 HD
ENDBRANCH  22  26
ENDBRANCH  17  19
ENDBRANCH  13  15
ENDBRANCH   9  10
ENDBRANCH   1   9
BRANCH   6  28
HETATM   28  C15 UNL     1      -1.797  50.490 -18.912  1.00  0.00     0.010 A 
HETATM   29  C16 UNL     1      -1.146  51.719 -19.084  1.00  0.00     0.024 A 
HETATM   30  C17 UNL     1      -0.042  52.075 -18.296  1.00  0.00     0.014 A 
HETATM   31  C18 UNL     1       0.462  51.213 -17.313  1.00  0.00    -0.026 A 
HETATM   32  C25 UNL     1      -0.179  49.980 -17.146  1.00  0.00     0.014 A 
HETATM   33  C26 UNL     1      -1.285  49.629 -17.931  1.00  0.00     0.024 A 
BRANCH  31  34
HETATM   34  C19 UNL     1       1.624  51.590 -16.488  1.00  0.00    -0.023 A 
HETATM   35  C20 UNL     1       2.540  52.567 -16.925  1.00  0.00     0.012 A 
HETATM   36  C21 UNL     1       3.642  52.932 -16.142  1.00  0.00     0.004 A 
HETATM   37  C22 UNL     1       3.845  52.325 -14.907  1.00  0.00     0.042 A 
HETATM   38  C23 UNL     1       2.949  51.359 -14.466  1.00  0.00     0.117 A 
HETATM   39  F1  UNL     1       3.144  50.772 -13.277  1.00  0.00    -0.206 F 
HETATM   40  C24 UNL     1       1.850  50.990 -15.237  1.00  0.00     0.054 A 
ENDBRANCH  31  34
ENDBRANCH   6  28
TORSDOF 7
ENDMDL
MODEL 6
REMARK minimizedAffinity -8.63892269
REMARK CNNscore 0.452772021
REMARK CNNaffinity 6.54886961
REMARK  7 active torsions:
REMARK  status: ('A' for Active; 'I' for Inactive)
REMARK       I    between atoms: C1_2  and  N1_3 
REMARK    1  A    between atoms: C1_2  and  C8_12 
REMARK    2  A    between atoms: N1_3  and  C2_4 
REMARK    3  A    between atoms: C5_7  and  O2_8 
REMARK    4  A    between atoms: N2_15  and  C11_16 
REMARK    5  A    between atoms: C11_16  and  C12_17 
REMARK       I    between atoms: C12_17  and  N3_19 
REMARK    6  A    between atoms: N4_22  and  C15_23 
REMARK    7  A    between atoms: C18_26  and  C19_27 
ROOT
HETATM    1  C12 UNL     1      -6.100  46.404 -21.421  1.00  0.00     0.248 C 
HETATM    2  O3  UNL     1      -5.611  45.273 -21.469  1.00  0.00    -0.271 OA
HETATM    3  N3  UNL     1      -7.458  46.587 -21.137  1.00  0.00    -0.348 N 
HETATM    4  C13 UNL     1      -8.204  45.410 -20.667  1.00  0.00     0.140 C 
HETATM    5  C14 UNL     1      -9.722  45.511 -20.901  1.00  0.00     0.115 C 
HETATM    6  N4  UNL     1     -10.243  46.806 -20.393  1.00  0.00    -0.280 NA
HETATM    7  C27 UNL     1      -9.555  47.956 -21.012  1.00  0.00     0.115 C 
HETATM    8  C28 UNL     1      -8.041  47.879 -20.746  1.00  0.00     0.140 C 
ENDROOT
BRANCH   1   9
HETATM    9  C11 UNL     1      -5.276  47.687 -21.677  1.00  0.00     0.374 C 
BRANCH   9  10
HETATM   10  N2  UNL     1      -4.638  47.716 -23.006  1.00  0.00     0.098 N 
HETATM   11  C10 UNL     1      -5.535  48.253 -24.029  1.00  0.00     0.274 C 
HETATM   12  C9  UNL     1      -4.599  48.568 -25.190  1.00  0.00     0.046 C 
HETATM   13  C8  UNL     1      -3.209  48.704 -24.559  1.00  0.00     0.108 C 
HETATM   14  C29 UNL     1      -3.461  48.596 -23.059  1.00  0.00     0.287 C 
BRANCH  13  15
HETATM   15  C1  UNL     1      -2.500  49.991 -24.953  1.00  0.00     0.228 C 
HETATM   16  O1  UNL     1      -2.709  50.549 -26.024  1.00  0.00    -0.273 OA
HETATM   17  N1  UNL     1      -1.632  50.426 -23.962  1.00  0.00    -0.327 N 
HETATM   18  H1  UNL     1      -1.576  49.851 -23.130  1.00  0.00     0.169 HD
BRANCH  17  19
HETATM   19  C2  UNL     1      -0.835  51.589 -23.964  1.00  0.00     0.036 A 
HETATM   20  C3  UNL     1      -0.715  52.454 -25.055  1.00  0.00     0.032 A 
HETATM   21  C4  UNL     1       0.095  53.594 -24.980  1.00  0.00     0.040 A 
HETATM   22  C5  UNL     1       0.793  53.873 -23.806  1.00  0.00     0.087 A 
HETATM   23  C6  UNL     1       0.678  53.019 -22.709  1.00  0.00     0.069 A 
HETATM   24 CL1  UNL     1       1.503  53.340 -21.227  1.00  0.00    -0.081 Cl
HETATM   25  C7  UNL     1      -0.131  51.882 -22.787  1.00  0.00     0.056 A 
BRANCH  22  26
HETATM   26  O2  UNL     1       1.581  54.987 -23.731  1.00  0.00    -0.359 OA
HETATM   27  H4  UNL     1       1.524  55.479 -24.566  1.00  0.00     0.217 HD
ENDBRANCH  22  26
ENDBRANCH  17  19
ENDBRANCH  13  15
ENDBRANCH   9  10
ENDBRANCH   1   9
BRANCH   6  28
HETATM   28  C15 UNL     1     -11.646  46.837 -20.338  1.00  0.00     0.010 A 
HETATM   29  C16 UNL     1     -12.373  47.265 -19.220  1.00  0.00     0.024 A 
HETATM   30  C17 UNL     1     -13.777  47.276 -19.225  1.00  0.00     0.014 A 
HETATM   31  C18 UNL     1     -14.506  46.852 -20.344  1.00  0.00    -0.026 A 
HETATM   32  C25 UNL     1     -13.782  46.413 -21.458  1.00  0.00     0.014 A 
HETATM   33  C26 UNL     1     -12.381  46.407 -21.452  1.00  0.00     0.024 A 
BRANCH  31  34
HETATM   34  C19 UNL     1     -15.980  46.864 -20.345  1.00  0.00    -0.023 A 
HETATM   35  C20 UNL     1     -16.705  47.282 -19.211  1.00  0.00     0.012 A 
HETATM   36  C21 UNL     1     -18.105  47.301 -19.210  1.00  0.00     0.004 A 
HETATM   37  C22 UNL     1     -18.804  46.900 -20.345  1.00  0.00     0.042 A 
HETATM   38  C23 UNL     1     -18.099  46.484 -21.468  1.00  0.00     0.117 A 
HETATM   39  F1  UNL     1     -18.770  46.097 -22.561  1.00  0.00    -0.206 F 
HETATM   40  C24 UNL     1     -16.707  46.464 -21.478  1.00  0.00     0.054 A 
ENDBRANCH  31  34
ENDBRANCH   6  28
TORSDOF 7
ENDMDL
MODEL 7
REMARK minimizedAffinity -8.39643478
REMARK CNNscore 0.39087221
REMARK CNNaffinity 6.50823736
REMARK  7 active torsions:
REMARK  status: ('A' for Active; 'I' for Inactive)
REMARK       I    between atoms: C1_2  and  N1_3 
REMARK    1  A    between atoms: C1_2  and  C8_12 
REMARK    2  A    between atoms: N1_3  and  C2_4 
REMARK    3  A    between atoms: C5_7  and  O2_8 
REMARK    4  A    between atoms: N2_15  and  C11_16 
REMARK    5  A    between atoms: C11_16  and  C12_17 
REMARK       I    between atoms: C12_17  and  N3_19 
REMARK    6  A    between atoms: N4_22  and  C15_23 
REMARK    7  A    between atoms: C18_26  and  C19_27 
ROOT
HETATM    1  C12 UNL     1       0.775  52.641 -11.461  1.00  0.00     0.248 C 
HETATM    2  O3  UNL     1      -0.410  52.976 -11.385  1.00  0.00    -0.271 OA
HETATM    3  N3  UNL     1       1.734  53.197 -10.606  1.00  0.00    -0.348 N 
HETATM    4  C13 UNL     1       1.235  53.997  -9.477  1.00  0.00     0.140 C 
HETATM    5  C14 UNL     1       2.268  55.000  -8.932  1.00  0.00     0.115 C 
HETATM    6  N4  UNL     1       3.565  54.325  -8.675  1.00  0.00    -0.280 NA
HETATM    7  C27 UNL     1       4.090  53.663  -9.885  1.00  0.00     0.115 C 
HETATM    8  C28 UNL     1       3.076  52.629 -10.411  1.00  0.00     0.140 C 
ENDROOT
BRANCH   1   9
HETATM    9  C11 UNL     1       1.292  51.611 -12.490  1.00  0.00     0.374 C 
BRANCH   9  10
HETATM   10  N2  UNL     1       1.753  52.225 -13.749  1.00  0.00     0.098 N 
HETATM   11  C10 UNL     1       2.925  51.538 -14.293  1.00  0.00     0.274 C 
HETATM   12  C9  UNL     1       2.992  52.039 -15.731  1.00  0.00     0.046 C 
HETATM   13  C8  UNL     1       1.575  52.527 -16.053  1.00  0.00     0.108 C 
HETATM   14  C29 UNL     1       0.754  52.145 -14.826  1.00  0.00     0.287 C 
BRANCH  13  15
HETATM   15  C1  UNL     1       1.025  51.942 -17.344  1.00  0.00     0.228 C 
HETATM   16  O1  UNL     1       0.615  50.790 -17.417  1.00  0.00    -0.273 OA
HETATM   17  N1  UNL     1       1.043  52.868 -18.379  1.00  0.00    -0.327 N 
HETATM   18  H1  UNL     1       1.412  53.784 -18.155  1.00  0.00     0.169 HD
BRANCH  17  19
HETATM   19  C2  UNL     1       0.585  52.692 -19.701  1.00  0.00     0.036 A 
HETATM   20  C3  UNL     1       1.316  53.052 -20.837  1.00  0.00     0.032 A 
HETATM   21  C4  UNL     1       0.795  52.842 -22.119  1.00  0.00     0.040 A 
HETATM   22  C5  UNL     1      -0.467  52.272 -22.271  1.00  0.00     0.087 A 
HETATM   23  C6  UNL     1      -1.205  51.906 -21.145  1.00  0.00     0.069 A 
HETATM   24 CL1  UNL     1      -2.761  51.172 -21.286  1.00  0.00    -0.081 Cl
HETATM   25  C7  UNL     1      -0.681  52.116 -19.865  1.00  0.00     0.056 A 
BRANCH  22  26
HETATM   26  O2  UNL     1      -0.975  52.065 -23.523  1.00  0.00    -0.359 OA
HETATM   27  H4  UNL     1      -0.325  52.348 -24.186  1.00  0.00     0.217 HD
ENDBRANCH  22  26
ENDBRANCH  17  19
ENDBRANCH  13  15
ENDBRANCH   9  10
ENDBRANCH   1   9
BRANCH   6  28
HETATM   28  C15 UNL     1       4.450  55.124  -7.933  1.00  0.00     0.010 A 
HETATM   29  C16 UNL     1       4.341  56.516  -7.824  1.00  0.00     0.024 A 
HETATM   30  C17 UNL     1       5.255  57.261  -7.063  1.00  0.00     0.014 A 
HETATM   31  C18 UNL     1       6.319  56.645  -6.391  1.00  0.00    -0.026 A 
HETATM   32  C25 UNL     1       6.438  55.255  -6.508  1.00  0.00     0.014 A 
HETATM   33  C26 UNL     1       5.521  54.513  -7.264  1.00  0.00     0.024 A 
BRANCH  31  34
HETATM   34  C19 UNL     1       7.278  57.431  -5.595  1.00  0.00    -0.023 A 
HETATM   35  C20 UNL     1       6.897  58.641  -4.983  1.00  0.00     0.012 A 
HETATM   36  C21 UNL     1       7.803  59.388  -4.221  1.00  0.00     0.004 A 
HETATM   37  C22 UNL     1       9.109  58.936  -4.060  1.00  0.00     0.042 A 
HETATM   38  C23 UNL     1       9.498  57.745  -4.661  1.00  0.00     0.117 A 
HETATM   39  F1  UNL     1      10.756  57.308  -4.507  1.00  0.00    -0.206 F 
HETATM   40  C24 UNL     1       8.603  56.995  -5.419  1.00  0.00     0.054 A 
ENDBRANCH  31  34
ENDBRANCH   6  28
TORSDOF 7
ENDMDL
MODEL 8
REMARK minimizedAffinity -9.57580471
REMARK CNNscore 0.309854209
REMARK CNNaffinity 5.83692932
REMARK  7 active torsions:
REMARK  status: ('A' for Active; 'I' for Inactive)
REMARK       I    between atoms: C1_2  and  N1_3 
REMARK    1  A    between atoms: C1_2  and  C8_12 
REMARK    2  A    between atoms: N1_3  and  C2_4 
REMARK    3  A    between atoms: C5_7  and  O2_8 
REMARK    4  A    between atoms: N2_15  and  C11_16 
REMARK    5  A    between atoms: C11_16  and  C12_17 
REMARK       I    between atoms: C12_17  and  N3_19 
REMARK    6  A    between atoms: N4_22  and  C15_23 
REMARK    7  A    between atoms: C18_26  and  C19_27 
ROOT
HETATM    1  C12 UNL     1      -7.450  47.231 -26.530  1.00  0.00     0.248 C 
HETATM    2  O3  UNL     1      -8.427  46.840 -25.886  1.00  0.00    -0.271 OA
HETATM    3  N3  UNL     1      -6.378  47.867 -25.893  1.00  0.00    -0.348 N 
HETATM    4  C13 UNL     1      -6.359  47.826 -24.423  1.00  0.00     0.140 C 
HETATM    5  C14 UNL     1      -5.527  48.955 -23.789  1.00  0.00     0.115 C 
HETATM    6  N4  UNL     1      -4.182  49.026 -24.413  1.00  0.00    -0.280 NA
HETATM    7  C27 UNL     1      -4.263  49.215 -25.875  1.00  0.00     0.115 C 
HETATM    8  C28 UNL     1      -5.062  48.066 -26.518  1.00  0.00     0.140 C 
ENDROOT
BRANCH   1   9
HETATM    9  C11 UNL     1      -7.335  47.068 -28.063  1.00  0.00     0.374 C 
BRANCH   9  10
HETATM   10  N2  UNL     1      -8.593  47.354 -28.777  1.00  0.00     0.098 N 
HETATM   11  C10 UNL     1      -9.190  46.141 -29.335  1.00  0.00     0.274 C 
HETATM   12  C9  UNL     1     -10.616  46.567 -29.660  1.00  0.00     0.046 C 
HETATM   13  C8  UNL     1     -10.882  47.791 -28.777  1.00  0.00     0.108 C 
HETATM   14  C29 UNL     1      -9.639  47.903 -27.900  1.00  0.00     0.287 C 
BRANCH  13  15
HETATM   15  C1  UNL     1     -12.169  47.677 -27.974  1.00  0.00     0.228 C 
HETATM   16  O1  UNL     1     -12.545  48.561 -27.214  1.00  0.00    -0.273 OA
HETATM   17  N1  UNL     1     -12.831  46.483 -28.228  1.00  0.00    -0.327 N 
HETATM   18  H1  UNL     1     -12.389  45.857 -28.890  1.00  0.00     0.169 HD
BRANCH  17  19
HETATM   19  C2  UNL     1     -14.061  46.049 -27.693  1.00  0.00     0.036 A 
HETATM   20  C3  UNL     1     -14.518  46.377 -26.414  1.00  0.00     0.032 A 
HETATM   21  C4  UNL     1     -15.755  45.911 -25.954  1.00  0.00     0.040 A 
HETATM   22  C5  UNL     1     -16.544  45.107 -26.776  1.00  0.00     0.087 A 
HETATM   23  C6  UNL     1     -16.100  44.776 -28.056  1.00  0.00     0.069 A 
HETATM   24 CL1  UNL     1     -17.055  43.806 -29.118  1.00  0.00    -0.081 Cl
HETATM   25  C7  UNL     1     -14.864  45.244 -28.513  1.00  0.00     0.056 A 
BRANCH  22  26
HETATM   26  O2  UNL     1     -17.752  44.654 -26.328  1.00  0.00    -0.359 OA
HETATM   27  H4  UNL     1     -17.916  44.999 -25.435  1.00  0.00     0.217 HD
ENDBRANCH  22  26
ENDBRANCH  17  19
ENDBRANCH  13  15
ENDBRANCH   9  10
ENDBRANCH   1   9
BRANCH   6  28
HETATM   28  C15 UNL     1      -3.298  49.849 -23.698  1.00  0.00     0.010 A 
HETATM   29  C16 UNL     1      -3.395  51.246 -23.653  1.00  0.00     0.024 A 
HETATM   30  C17 UNL     1      -2.482  52.016 -22.916  1.00  0.00     0.014 A 
HETATM   31  C18 UNL     1      -1.432  51.421 -22.204  1.00  0.00    -0.026 A 
HETATM   32  C25 UNL     1      -1.325  50.026 -22.257  1.00  0.00     0.014 A 
HETATM   33  C26 UNL     1      -2.241  49.259 -22.989  1.00  0.00     0.024 A 
BRANCH  31  34
HETATM   34  C19 UNL     1      -0.474  52.234 -21.433  1.00  0.00    -0.023 A 
HETATM   35  C20 UNL     1      -0.401  52.135 -20.030  1.00  0.00     0.012 A 
HETATM   36  C21 UNL     1       0.511  52.900 -19.294  1.00  0.00     0.004 A 
HETATM   37  C22 UNL     1       1.366  53.780 -19.951  1.00  0.00     0.042 A 
HETATM   38  C23 UNL     1       1.301  53.887 -21.335  1.00  0.00     0.117 A 
HETATM   39  F1  UNL     1       2.124  54.734 -21.970  1.00  0.00    -0.206 F 
HETATM   40  C24 UNL     1       0.398  53.129 -22.075  1.00  0.00     0.054 A 
ENDBRANCH  31  34
ENDBRANCH   6  28
TORSDOF 7
ENDMDL
MODEL 9
REMARK minimizedAffinity -8.50970745
REMARK CNNscore 0.28765288
REMARK CNNaffinity 5.25363874
REMARK  7 active torsions:
REMARK  status: ('A' for Active; 'I' for Inactive)
REMARK       I    between atoms: C1_2  and  N1_3 
REMARK    1  A    between atoms: C1_2  and  C8_12 
REMARK    2  A    between atoms: N1_3  and  C2_4 
REMARK    3  A    between atoms: C5_7  and  O2_8 
REMARK    4  A    between atoms: N2_15  and  C11_16 
REMARK    5  A    between atoms: C11_16  and  C12_17 
REMARK       I    between atoms: C12_17  and  N3_19 
REMARK    6  A    between atoms: N4_22  and  C15_23 
REMARK    7  A    between atoms: C18_26  and  C19_27 
ROOT
HETATM    1  C12 UNL     1      -9.934  46.606 -24.469  1.00  0.00     0.248 C 
HETATM    2  O3  UNL     1     -10.415  46.834 -23.356  1.00  0.00    -0.271 OA
HETATM    3  N3  UNL     1      -8.656  47.066 -24.806  1.00  0.00    -0.348 N 
HETATM    4  C13 UNL     1      -7.834  47.609 -23.714  1.00  0.00     0.140 C 
HETATM    5  C14 UNL     1      -6.731  48.568 -24.195  1.00  0.00     0.115 C 
HETATM    6  N4  UNL     1      -5.950  47.955 -25.298  1.00  0.00    -0.280 NA
HETATM    7  C27 UNL     1      -6.811  47.563 -26.431  1.00  0.00     0.115 C 
HETATM    8  C28 UNL     1      -7.892  46.571 -25.961  1.00  0.00     0.140 C 
ENDROOT
BRANCH   1   9
HETATM    9  C11 UNL     1     -10.690  45.821 -25.565  1.00  0.00     0.374 C 
BRANCH   9  10
HETATM   10  N2  UNL     1     -11.947  46.466 -25.984  1.00  0.00     0.098 N 
HETATM   11  C10 UNL     1     -12.082  46.499 -27.440  1.00  0.00     0.274 C 
HETATM   12  C9  UNL     1     -13.558  46.816 -27.651  1.00  0.00     0.046 C 
HETATM   13  C8  UNL     1     -14.248  46.402 -26.346  1.00  0.00     0.108 C 
HETATM   14  C29 UNL     1     -13.144  45.745 -25.525  1.00  0.00     0.287 C 
BRANCH  13  15
HETATM   15  C1  UNL     1     -15.446  45.492 -26.570  1.00  0.00     0.228 C 
HETATM   16  O1  UNL     1     -16.502  45.644 -25.968  1.00  0.00    -0.273 OA
HETATM   17  N1  UNL     1     -15.182  44.518 -27.523  1.00  0.00    -0.327 N 
HETATM   18  H1  UNL     1     -14.257  44.530 -27.933  1.00  0.00     0.169 HD
BRANCH  17  19
HETATM   19  C2  UNL     1     -16.060  43.526 -28.007  1.00  0.00     0.036 A 
HETATM   20  C3  UNL     1     -16.088  42.209 -27.540  1.00  0.00     0.032 A 
HETATM   21  C4  UNL     1     -16.992  41.280 -28.069  1.00  0.00     0.040 A 
HETATM   22  C5  UNL     1     -17.876  41.668 -29.075  1.00  0.00     0.087 A 
HETATM   23  C6  UNL     1     -17.861  42.981 -29.546  1.00  0.00     0.069 A 
HETATM   24 CL1  UNL     1     -18.955  43.512 -30.772  1.00  0.00    -0.081 Cl
HETATM   25  C7  UNL     1     -16.956  43.906 -29.016  1.00  0.00     0.056 A 
BRANCH  22  26
HETATM   26  O2  UNL     1     -18.761  40.762 -29.589  1.00  0.00    -0.359 OA
HETATM   27  H4  UNL     1     -18.657  39.913 -29.132  1.00  0.00     0.217 HD
ENDBRANCH  22  26
ENDBRANCH  17  19
ENDBRANCH  13  15
ENDBRANCH   9  10
ENDBRANCH   1   9
BRANCH   6  28
HETATM   28  C15 UNL     1      -4.775  48.668 -25.588  1.00  0.00     0.010 A 
HETATM   29  C16 UNL     1      -4.202  49.612 -24.727  1.00  0.00     0.024 A 
HETATM   30  C17 UNL     1      -3.024  50.291 -25.071  1.00  0.00     0.014 A 
HETATM   31  C18 UNL     1      -2.378  50.060 -26.293  1.00  0.00    -0.026 A 
HETATM   32  C25 UNL     1      -2.955  49.125 -27.161  1.00  0.00     0.014 A 
HETATM   33  C26 UNL     1      -4.129  48.444 -26.812  1.00  0.00     0.024 A 
BRANCH  31  34
HETATM   34  C19 UNL     1      -1.141  50.776 -26.651  1.00  0.00    -0.023 A 
HETATM   35  C20 UNL     1       0.076  50.499 -25.999  1.00  0.00     0.012 A 
HETATM   36  C21 UNL     1       1.255  51.172 -26.340  1.00  0.00     0.004 A 
HETATM   37  C22 UNL     1       1.235  52.138 -27.342  1.00  0.00     0.042 A 
HETATM   38  C23 UNL     1       0.039  52.422 -27.991  1.00  0.00     0.117 A 
HETATM   39  F1  UNL     1       0.018  53.352 -28.956  1.00  0.00    -0.206 F 
HETATM   40  C24 UNL     1      -1.137  51.756 -27.659  1.00  0.00     0.054 A 
ENDBRANCH  31  34
ENDBRANCH   6  28
TORSDOF 7
ENDMDL
