MODEL 1
REMARK minimizedAffinity -9.78626537
REMARK  7 active torsions:
REMARK  status: ('A' for Active; 'I' for Inactive)
REMARK    1  A    between atoms: O1_2  and  C2_3 
REMARK    2  A    between atoms: C2_3  and  C3_4 
REMARK    3  A    between atoms: C3_4  and  N1_5 
REMARK    4  A    between atoms: C3_4  and  C19_32 
REMARK       I    between atoms: N1_5  and  C4_6 
REMARK       I    between atoms: C4_6  and  N2_8 
REMARK    5  A    between atoms: N2_8  and  C5_9 
REMARK    6  A    between atoms: C8_15  and  C9_16 
REMARK    7  A    between atoms: C12_19  and  N5_20 
ROOT
HETATM    1  C5  UNL     1       1.065  51.977 -15.856  1.00  0.00     0.111 A 
HETATM    2  C6  UNL     1       0.393  50.798 -16.148  1.00  0.00     0.080 A 
HETATM    3  C7  UNL     1       0.063  50.620 -17.491  1.00  0.00     0.065 A 
HETATM    4  N3  UNL     1      -0.569  49.601 -18.145  1.00  0.00    -0.299 N 
HETATM    5  N4  UNL     1      -0.698  49.795 -19.467  1.00  0.00    -0.299 N 
ATOM      6  H4  UNL     1      -1.124  49.169 -20.151  1.00  0.00     0.187 HD
HETATM    7  C8  UNL     1      -0.141  50.998 -19.687  1.00  0.00     0.072 A 
HETATM    8  C17 UNL     1       0.370  51.551 -18.473  1.00  0.00     0.036 A 
HETATM    9  C18 UNL     1       1.059  52.702 -18.090  1.00  0.00     0.105 A 
HETATM   10  N8  UNL     1       1.390  52.904 -16.787  1.00  0.00    -0.351 N 
ATOM     11  H8  UNL     1       1.883  53.753 -16.512  1.00  0.00     0.166 HD
HETATM   12  H10 UNL     1      -0.927  48.739 -17.748  1.00  0.00     0.187 HD
ENDROOT
BRANCH   1  13
HETATM   13  N2  UNL     1       1.478  52.333 -14.572  1.00  0.00    -0.295 N 
HETATM   14  C4  UNL     1       0.712  52.555 -13.460  1.00  0.00     0.322 C 
HETATM   15  N1  UNL     1       1.484  52.887 -12.373  1.00  0.00    -0.332 N 
HETATM   16  O2  UNL     1      -0.507  52.470 -13.391  1.00  0.00    -0.247 OA
HETATM   17  H7  UNL     1       2.433  53.190 -12.530  1.00  0.00     0.165 HD
HETATM   18  H8  UNL     1       2.481  52.354 -14.485  1.00  0.00     0.172 HD
BRANCH  15  19
HETATM   19  C3  UNL     1       0.894  53.193 -11.069  1.00  0.00     0.143 C 
BRANCH  19  20
HETATM   20  C2  UNL     1      -0.627  53.461 -11.207  1.00  0.00     0.197 C 
BRANCH  20  21
HETATM   21  O1  UNL     1      -1.195  53.845  -9.950  1.00  0.00    -0.394 OA
HETATM   22  C1  UNL     1      -2.359  53.090  -9.647  1.00  0.00     0.201 C 
ENDBRANCH  20  21
ENDBRANCH  19  20
BRANCH  19  23
HETATM   23  C19 UNL     1       1.726  54.305 -10.431  1.00  0.00    -0.033 A 
HETATM   24  C20 UNL     1       1.289  54.843  -9.201  1.00  0.00     0.012 A 
HETATM   25  C21 UNL     1       2.014  55.844  -8.554  1.00  0.00     0.043 A 
HETATM   26  C22 UNL     1       3.182  56.320  -9.131  1.00  0.00     0.116 A 
HETATM   27  F1  UNL     1       3.881  57.282  -8.514  1.00  0.00    -0.206 F 
HETATM   28  C23 UNL     1       3.636  55.813 -10.342  1.00  0.00     0.043 A 
HETATM   29  C24 UNL     1       2.913  54.807 -10.989  1.00  0.00     0.012 A 
ENDBRANCH  19  23
ENDBRANCH  15  19
ENDBRANCH   1  13
BRANCH   7  30
HETATM   30  C9  UNL     1      -0.105  51.567 -21.035  1.00  0.00    -0.007 A 
HETATM   31  C10 UNL     1       0.702  52.673 -21.332  1.00  0.00     0.016 A 
HETATM   32  C11 UNL     1       0.737  53.207 -22.627  1.00  0.00     0.032 A 
HETATM   33  C12 UNL     1      -0.048  52.641 -23.641  1.00  0.00     0.054 A 
HETATM   34  C15 UNL     1      -0.870  51.545 -23.344  1.00  0.00     0.032 A 
HETATM   35  C16 UNL     1      -0.898  51.016 -22.050  1.00  0.00     0.016 A 
BRANCH  33  36
HETATM   36  N5  UNL     1      -0.028  53.164 -24.960  1.00  0.00    -0.250 N 
HETATM   37  C13 UNL     1      -0.220  52.509 -26.155  1.00  0.00     0.132 A 
HETATM   38  C14 UNL     1      -0.110  53.486 -27.113  1.00  0.00     0.123 A 
HETATM   39  N6  UNL     1       0.143  54.681 -26.515  1.00  0.00    -0.294 N 
HETATM   40  N7  UNL     1       0.194  54.479 -25.205  1.00  0.00    -0.016 NA
ATOM     41  H6  UNL     1       0.271  55.575 -26.990  1.00  0.00     0.183 HD
ENDBRANCH  33  36
ENDBRANCH   7  30
TORSDOF 7
ENDMDL
MODEL 2
REMARK minimizedAffinity -9.67870903
REMARK  7 active torsions:
REMARK  status: ('A' for Active; 'I' for Inactive)
REMARK    1  A    between atoms: O1_2  and  C2_3 
REMARK    2  A    between atoms: C2_3  and  C3_4 
REMARK    3  A    between atoms: C3_4  and  N1_5 
REMARK    4  A    between atoms: C3_4  and  C19_32 
REMARK       I    between atoms: N1_5  and  C4_6 
REMARK       I    between atoms: C4_6  and  N2_8 
REMARK    5  A    between atoms: N2_8  and  C5_9 
REMARK    6  A    between atoms: C8_15  and  C9_16 
REMARK    7  A    between atoms: C12_19  and  N5_20 
ROOT
HETATM    1  C5  UNL     1       0.949  52.020 -16.610  1.00  0.00     0.111 A 
HETATM    2  C6  UNL     1       0.229  50.870 -16.902  1.00  0.00     0.080 A 
HETATM    3  C7  UNL     1      -0.147  50.726 -18.237  1.00  0.00     0.065 A 
HETATM    4  N3  UNL     1      -0.832  49.741 -18.889  1.00  0.00    -0.299 N 
HETATM    5  N4  UNL     1      -0.993  49.962 -20.203  1.00  0.00    -0.299 N 
ATOM      6  H4  UNL     1      -1.459  49.364 -20.885  1.00  0.00     0.187 HD
HETATM    7  C8  UNL     1      -0.402  51.150 -20.420  1.00  0.00     0.072 A 
HETATM    8  C17 UNL     1       0.163  51.664 -19.212  1.00  0.00     0.036 A 
HETATM    9  C18 UNL     1       0.901  52.784 -18.831  1.00  0.00     0.105 A 
HETATM   10  N8  UNL     1       1.278  52.951 -17.535  1.00  0.00    -0.351 N 
ATOM     11  H8  UNL     1       1.807  53.778 -17.261  1.00  0.00     0.166 HD
HETATM   12  H10 UNL     1      -1.207  48.885 -18.497  1.00  0.00     0.187 HD
ENDROOT
BRANCH   1  13
HETATM   13  N2  UNL     1       1.411  52.339 -15.333  1.00  0.00    -0.295 N 
HETATM   14  C4  UNL     1       0.735  52.291 -14.145  1.00  0.00     0.322 C 
HETATM   15  N1  UNL     1       1.531  52.682 -13.096  1.00  0.00    -0.332 N 
HETATM   16  O2  UNL     1      -0.427  51.943 -13.985  1.00  0.00    -0.247 OA
HETATM   17  H7  UNL     1       2.376  53.194 -13.296  1.00  0.00     0.165 HD
HETATM   18  H8  UNL     1       2.392  52.566 -15.328  1.00  0.00     0.172 HD
BRANCH  15  19
HETATM   19  C3  UNL     1       1.029  52.737 -11.722  1.00  0.00     0.143 C 
BRANCH  19  20
HETATM   20  C2  UNL     1      -0.464  53.154 -11.701  1.00  0.00     0.197 C 
BRANCH  20  21
HETATM   21  O1  UNL     1      -1.077  52.801 -10.457  1.00  0.00    -0.394 OA
HETATM   22  C1  UNL     1      -2.454  53.149 -10.432  1.00  0.00     0.201 C 
ENDBRANCH  20  21
ENDBRANCH  19  20
BRANCH  19  23
HETATM   23  C19 UNL     1       1.990  53.604 -10.909  1.00  0.00    -0.033 A 
HETATM   24  C20 UNL     1       3.232  53.051 -10.532  1.00  0.00     0.012 A 
HETATM   25  C21 UNL     1       4.163  53.795  -9.808  1.00  0.00     0.043 A 
HETATM   26  C22 UNL     1       3.861  55.101  -9.451  1.00  0.00     0.116 A 
HETATM   27  F1  UNL     1       4.751  55.820  -8.754  1.00  0.00    -0.206 F 
HETATM   28  C23 UNL     1       2.645  55.673  -9.803  1.00  0.00     0.043 A 
HETATM   29  C24 UNL     1       1.713  54.928 -10.532  1.00  0.00     0.012 A 
ENDBRANCH  19  23
ENDBRANCH  15  19
ENDBRANCH   1  13
BRANCH   7  30
HETATM   30  C9  UNL     1      -0.386  51.741 -21.759  1.00  0.00    -0.007 A 
HETATM   31  C10 UNL     1      -1.503  51.660 -22.600  1.00  0.00     0.016 A 
HETATM   32  C11 UNL     1      -1.482  52.235 -23.877  1.00  0.00     0.032 A 
HETATM   33  C12 UNL     1      -0.331  52.893 -24.331  1.00  0.00     0.054 A 
HETATM   34  C15 UNL     1       0.795  52.963 -23.500  1.00  0.00     0.032 A 
HETATM   35  C16 UNL     1       0.766  52.388 -22.225  1.00  0.00     0.016 A 
BRANCH  33  36
HETATM   36  N5  UNL     1      -0.286  53.484 -25.621  1.00  0.00    -0.250 N 
HETATM   37  C13 UNL     1      -0.585  52.923 -26.841  1.00  0.00     0.132 A 
HETATM   38  C14 UNL     1      -0.389  53.933 -27.750  1.00  0.00     0.123 A 
HETATM   39  N6  UNL     1       0.015  55.057 -27.099  1.00  0.00    -0.294 N 
HETATM   40  N7  UNL     1       0.079  54.778 -25.804  1.00  0.00    -0.016 NA
ATOM     41  H6  UNL     1       0.232  55.955 -27.530  1.00  0.00     0.183 HD
ENDBRANCH  33  36
ENDBRANCH   7  30
TORSDOF 7
ENDMDL
MODEL 3
REMARK minimizedAffinity -9.57623482
REMARK  7 active torsions:
REMARK  status: ('A' for Active; 'I' for Inactive)
REMARK    1  A    between atoms: O1_2  and  C2_3 
REMARK    2  A    between atoms: C2_3  and  C3_4 
REMARK    3  A    between atoms: C3_4  and  N1_5 
REMARK    4  A    between atoms: C3_4  and  C19_32 
REMARK       I    between atoms: N1_5  and  C4_6 
REMARK       I    between atoms: C4_6  and  N2_8 
REMARK    5  A    between atoms: N2_8  and  C5_9 
REMARK    6  A    between atoms: C8_15  and  C9_16 
REMARK    7  A    between atoms: C12_19  and  N5_20 
ROOT
HETATM    1  C5  UNL     1      -2.475  51.149 -26.794  1.00  0.00     0.111 A 
HETATM    2  C6  UNL     1      -1.422  51.990 -27.128  1.00  0.00     0.080 A 
HETATM    3  C7  UNL     1      -0.631  52.405 -26.058  1.00  0.00     0.065 A 
HETATM    4  N3  UNL     1       0.478  53.201 -26.001  1.00  0.00    -0.299 N 
HETATM    5  N4  UNL     1       0.972  53.365 -24.764  1.00  0.00    -0.299 N 
ATOM      6  H4  UNL     1       1.792  53.904 -24.485  1.00  0.00     0.187 HD
HETATM    7  C8  UNL     1       0.145  52.658 -23.974  1.00  0.00     0.072 A 
HETATM    8  C17 UNL     1      -0.873  52.020 -24.748  1.00  0.00     0.036 A 
HETATM    9  C18 UNL     1      -1.946  51.162 -24.506  1.00  0.00     0.105 A 
HETATM   10  N8  UNL     1      -2.737  50.744 -25.530  1.00  0.00    -0.351 N 
ATOM     11  H8  UNL     1      -3.527  50.127 -25.345  1.00  0.00     0.166 HD
HETATM   12  H10 UNL     1       0.954  53.655 -26.772  1.00  0.00     0.187 HD
ENDROOT
BRANCH   1  13
HETATM   13  N2  UNL     1      -3.376  50.632 -27.725  1.00  0.00    -0.295 N 
HETATM   14  C4  UNL     1      -3.804  49.341 -27.870  1.00  0.00     0.322 C 
HETATM   15  N1  UNL     1      -4.699  49.220 -28.906  1.00  0.00    -0.332 N 
HETATM   16  O2  UNL     1      -3.470  48.384 -27.184  1.00  0.00    -0.247 OA
HETATM   17  H7  UNL     1      -4.749  49.959 -29.589  1.00  0.00     0.165 HD
HETATM   18  H8  UNL     1      -3.786  51.349 -28.300  1.00  0.00     0.172 HD
BRANCH  15  19
HETATM   19  C3  UNL     1      -5.286  47.931 -29.275  1.00  0.00     0.143 C 
BRANCH  19  20
HETATM   20  C2  UNL     1      -5.266  47.741 -30.814  1.00  0.00     0.197 C 
BRANCH  20  21
HETATM   21  O1  UNL     1      -4.148  46.943 -31.217  1.00  0.00    -0.394 OA
HETATM   22  C1  UNL     1      -4.552  45.831 -32.003  1.00  0.00     0.201 C 
ENDBRANCH  20  21
ENDBRANCH  19  20
BRANCH  19  23
HETATM   23  C19 UNL     1      -6.650  47.827 -28.594  1.00  0.00    -0.033 A 
HETATM   24  C20 UNL     1      -7.791  48.230 -29.321  1.00  0.00     0.012 A 
HETATM   25  C21 UNL     1      -9.068  48.141 -28.766  1.00  0.00     0.043 A 
HETATM   26  C22 UNL     1      -9.217  47.650 -27.477  1.00  0.00     0.116 A 
HETATM   27  F1  UNL     1     -10.441  47.565 -26.939  1.00  0.00    -0.206 F 
HETATM   28  C23 UNL     1      -8.114  47.250 -26.735  1.00  0.00     0.043 A 
HETATM   29  C24 UNL     1      -6.834  47.335 -27.292  1.00  0.00     0.012 A 
ENDBRANCH  19  23
ENDBRANCH  15  19
ENDBRANCH   1  13
BRANCH   7  30
HETATM   30  C9  UNL     1       0.358  52.608 -22.527  1.00  0.00    -0.007 A 
HETATM   31  C10 UNL     1       1.093  53.602 -21.868  1.00  0.00     0.016 A 
HETATM   32  C11 UNL     1       1.287  53.550 -20.482  1.00  0.00     0.032 A 
HETATM   33  C12 UNL     1       0.751  52.489 -19.738  1.00  0.00     0.054 A 
HETATM   34  C15 UNL     1       0.029  51.483 -20.395  1.00  0.00     0.032 A 
HETATM   35  C16 UNL     1      -0.162  51.543 -21.779  1.00  0.00     0.016 A 
BRANCH  33  36
HETATM   36  N5  UNL     1       0.934  52.416 -18.332  1.00  0.00    -0.250 N 
HETATM   37  C13 UNL     1       0.305  51.602 -17.418  1.00  0.00     0.132 A 
HETATM   38  C14 UNL     1       0.866  51.932 -16.209  1.00  0.00     0.123 A 
HETATM   39  N6  UNL     1       1.793  52.910 -16.392  1.00  0.00    -0.294 N 
HETATM   40  N7  UNL     1       1.828  53.203 -17.685  1.00  0.00    -0.016 NA
ATOM     41  H6  UNL     1       2.360  53.343 -15.663  1.00  0.00     0.183 HD
ENDBRANCH  33  36
ENDBRANCH   7  30
TORSDOF 7
ENDMDL
MODEL 4
REMARK minimizedAffinity -9.56400681
REMARK  7 active torsions:
REMARK  status: ('A' for Active; 'I' for Inactive)
REMARK    1  A    between atoms: O1_2  and  C2_3 
REMARK    2  A    between atoms: C2_3  and  C3_4 
REMARK    3  A    between atoms: C3_4  and  N1_5 
REMARK    4  A    between atoms: C3_4  and  C19_32 
REMARK       I    between atoms: N1_5  and  C4_6 
REMARK       I    between atoms: C4_6  and  N2_8 
REMARK    5  A    between atoms: N2_8  and  C5_9 
REMARK    6  A    between atoms: C8_15  and  C9_16 
REMARK    7  A    between atoms: C12_19  and  N5_20 
ROOT
HETATM    1  C5  UNL     1       0.899  52.117 -16.571  1.00  0.00     0.111 A 
HETATM    2  C6  UNL     1       0.266  50.921 -16.882  1.00  0.00     0.080 A 
HETATM    3  C7  UNL     1      -0.065  50.756 -18.226  1.00  0.00     0.065 A 
HETATM    4  N3  UNL     1      -0.665  49.728 -18.896  1.00  0.00    -0.299 N 
HETATM    5  N4  UNL     1      -0.807  49.941 -20.213  1.00  0.00    -0.299 N 
ATOM      6  H4  UNL     1      -1.215  49.314 -20.907  1.00  0.00     0.187 HD
HETATM    7  C8  UNL     1      -0.292  51.166 -20.414  1.00  0.00     0.072 A 
HETATM    8  C17 UNL     1       0.206  51.714 -19.192  1.00  0.00     0.036 A 
HETATM    9  C18 UNL     1       0.857  52.881 -18.792  1.00  0.00     0.105 A 
HETATM   10  N8  UNL     1       1.188  53.070 -17.487  1.00  0.00    -0.351 N 
ATOM     11  H8  UNL     1       1.654  53.930 -17.199  1.00  0.00     0.166 HD
HETATM   12  H10 UNL     1      -0.992  48.848 -18.513  1.00  0.00     0.187 HD
ENDROOT
BRANCH   1  13
HETATM   13  N2  UNL     1       1.306  52.464 -15.282  1.00  0.00    -0.295 N 
HETATM   14  C4  UNL     1       0.884  51.949 -14.088  1.00  0.00     0.322 C 
HETATM   15  N1  UNL     1       1.520  52.548 -13.027  1.00  0.00    -0.332 N 
HETATM   16  O2  UNL     1       0.056  51.061 -13.932  1.00  0.00    -0.247 OA
HETATM   17  H7  UNL     1       1.990  53.427 -13.181  1.00  0.00     0.165 HD
HETATM   18  H8  UNL     1       2.054  53.137 -15.286  1.00  0.00     0.172 HD
BRANCH  15  19
HETATM   19  C3  UNL     1       1.224  52.184 -11.641  1.00  0.00     0.143 C 
BRANCH  19  20
HETATM   20  C2  UNL     1       1.294  50.647 -11.452  1.00  0.00     0.197 C 
BRANCH  20  21
HETATM   21  O1  UNL     1       2.633  50.169 -11.627  1.00  0.00    -0.394 OA
HETATM   22  C1  UNL     1       2.757  48.804 -11.255  1.00  0.00     0.201 C 
ENDBRANCH  20  21
ENDBRANCH  19  20
BRANCH  19  23
HETATM   23  C19 UNL     1      -0.091  52.858 -11.253  1.00  0.00    -0.033 A 
HETATM   24  C20 UNL     1      -1.254  52.062 -11.184  1.00  0.00     0.012 A 
HETATM   25  C21 UNL     1      -2.483  52.611 -10.815  1.00  0.00     0.043 A 
HETATM   26  C22 UNL     1      -2.562  53.963 -10.514  1.00  0.00     0.116 A 
HETATM   27  F1  UNL     1      -3.739  54.494 -10.161  1.00  0.00    -0.206 F 
HETATM   28  C23 UNL     1      -1.436  54.773 -10.576  1.00  0.00     0.043 A 
HETATM   29  C24 UNL     1      -0.204  54.223 -10.942  1.00  0.00     0.012 A 
ENDBRANCH  19  23
ENDBRANCH  15  19
ENDBRANCH   1  13
BRANCH   7  30
HETATM   30  C9  UNL     1      -0.282  51.760 -21.752  1.00  0.00    -0.007 A 
HETATM   31  C10 UNL     1      -1.260  51.430 -22.698  1.00  0.00     0.016 A 
HETATM   32  C11 UNL     1      -1.247  52.008 -23.974  1.00  0.00     0.032 A 
HETATM   33  C12 UNL     1      -0.242  52.922 -24.320  1.00  0.00     0.054 A 
HETATM   34  C15 UNL     1       0.749  53.242 -23.382  1.00  0.00     0.032 A 
HETATM   35  C16 UNL     1       0.729  52.662 -22.110  1.00  0.00     0.016 A 
BRANCH  33  36
HETATM   36  N5  UNL     1      -0.209  53.521 -25.607  1.00  0.00    -0.250 N 
HETATM   37  C13 UNL     1      -0.484  52.959 -26.831  1.00  0.00     0.132 A 
HETATM   38  C14 UNL     1      -0.314  53.980 -27.733  1.00  0.00     0.123 A 
HETATM   39  N6  UNL     1       0.054  55.111 -27.074  1.00  0.00    -0.294 N 
HETATM   40  N7  UNL     1       0.119  54.826 -25.780  1.00  0.00    -0.016 NA
ATOM     41  H6  UNL     1       0.246  56.018 -27.498  1.00  0.00     0.183 HD
ENDBRANCH  33  36
ENDBRANCH   7  30
TORSDOF 7
ENDMDL
MODEL 5
REMARK minimizedAffinity -9.47116184
REMARK  7 active torsions:
REMARK  status: ('A' for Active; 'I' for Inactive)
REMARK    1  A    between atoms: O1_2  and  C2_3 
REMARK    2  A    between atoms: C2_3  and  C3_4 
REMARK    3  A    between atoms: C3_4  and  N1_5 
REMARK    4  A    between atoms: C3_4  and  C19_32 
REMARK       I    between atoms: N1_5  and  C4_6 
REMARK       I    between atoms: C4_6  and  N2_8 
REMARK    5  A    between atoms: N2_8  and  C5_9 
REMARK    6  A    between atoms: C8_15  and  C9_16 
REMARK    7  A    between atoms: C12_19  and  N5_20 
ROOT
HETATM    1  C5  UNL     1       1.105  52.205 -16.372  1.00  0.00     0.111 A 
HETATM    2  C6  UNL     1       0.405  51.032 -16.619  1.00  0.00     0.080 A 
HETATM    3  C7  UNL     1       0.028  50.834 -17.947  1.00  0.00     0.065 A 
HETATM    4  N3  UNL     1      -0.641  49.814 -18.560  1.00  0.00    -0.299 N 
HETATM    5  N4  UNL     1      -0.811  49.985 -19.881  1.00  0.00    -0.299 N 
ATOM      6  H4  UNL     1      -1.268  49.354 -20.539  1.00  0.00     0.187 HD
HETATM    7  C8  UNL     1      -0.242  51.175 -20.142  1.00  0.00     0.072 A 
HETATM    8  C17 UNL     1       0.317  51.741 -18.956  1.00  0.00     0.036 A 
HETATM    9  C18 UNL     1       1.036  52.888 -18.618  1.00  0.00     0.105 A 
HETATM   10  N8  UNL     1       1.414  53.109 -17.331  1.00  0.00    -0.351 N 
ATOM     11  H8  UNL     1       1.929  53.954 -17.088  1.00  0.00     0.166 HD
HETATM   12  H10 UNL     1      -1.000  48.966 -18.136  1.00  0.00     0.187 HD
ENDROOT
BRANCH   1  13
HETATM   13  N2  UNL     1       1.565  52.579 -15.109  1.00  0.00    -0.295 N 
HETATM   14  C4  UNL     1       1.400  51.932 -13.915  1.00  0.00     0.322 C 
HETATM   15  N1  UNL     1       2.003  52.612 -12.885  1.00  0.00    -0.332 N 
HETATM   16  O2  UNL     1       0.807  50.875 -13.739  1.00  0.00    -0.247 OA
HETATM   17  H7  UNL     1       2.250  53.579 -13.025  1.00  0.00     0.165 HD
HETATM   18  H8  UNL     1       2.144  53.402 -15.141  1.00  0.00     0.172 HD
BRANCH  15  19
HETATM   19  C3  UNL     1       1.947  52.131 -11.503  1.00  0.00     0.143 C 
BRANCH  19  20
HETATM   20  C2  UNL     1       0.581  52.479 -10.858  1.00  0.00     0.197 C 
BRANCH  20  21
HETATM   21  O1  UNL     1       0.028  53.666 -11.437  1.00  0.00    -0.394 OA
HETATM   22  C1  UNL     1      -0.104  54.706 -10.478  1.00  0.00     0.201 C 
ENDBRANCH  20  21
ENDBRANCH  19  20
BRANCH  19  23
HETATM   23  C19 UNL     1       3.192  52.645 -10.781  1.00  0.00    -0.033 A 
HETATM   24  C20 UNL     1       4.022  51.705 -10.133  1.00  0.00     0.012 A 
HETATM   25  C21 UNL     1       5.185  52.105  -9.474  1.00  0.00     0.043 A 
HETATM   26  C22 UNL     1       5.528  53.449  -9.453  1.00  0.00     0.116 A 
HETATM   27  F1  UNL     1       6.643  53.837  -8.819  1.00  0.00    -0.206 F 
HETATM   28  C23 UNL     1       4.730  54.398 -10.077  1.00  0.00     0.043 A 
HETATM   29  C24 UNL     1       3.566  53.998 -10.741  1.00  0.00     0.012 A 
ENDBRANCH  19  23
ENDBRANCH  15  19
ENDBRANCH   1  13
BRANCH   7  30
HETATM   30  C9  UNL     1      -0.241  51.717 -21.501  1.00  0.00    -0.007 A 
HETATM   31  C10 UNL     1      -1.204  51.323 -22.439  1.00  0.00     0.016 A 
HETATM   32  C11 UNL     1      -1.201  51.853 -23.736  1.00  0.00     0.032 A 
HETATM   33  C12 UNL     1      -0.220  52.782 -24.112  1.00  0.00     0.054 A 
HETATM   34  C15 UNL     1       0.756  53.167 -23.182  1.00  0.00     0.032 A 
HETATM   35  C16 UNL     1       0.744  52.635 -21.889  1.00  0.00     0.016 A 
BRANCH  33  36
HETATM   36  N5  UNL     1      -0.197  53.333 -25.420  1.00  0.00    -0.250 N 
HETATM   37  C13 UNL     1      -0.483  52.725 -26.621  1.00  0.00     0.132 A 
HETATM   38  C14 UNL     1      -0.319  53.712 -27.561  1.00  0.00     0.123 A 
HETATM   39  N6  UNL     1       0.055  54.866 -26.947  1.00  0.00    -0.294 N 
HETATM   40  N7  UNL     1       0.130  54.630 -25.644  1.00  0.00    -0.016 NA
ATOM     41  H6  UNL     1       0.244  55.757 -27.407  1.00  0.00     0.183 HD
ENDBRANCH  33  36
ENDBRANCH   7  30
TORSDOF 7
ENDMDL
MODEL 6
REMARK minimizedAffinity -9.43831253
REMARK  7 active torsions:
REMARK  status: ('A' for Active; 'I' for Inactive)
REMARK    1  A    between atoms: O1_2  and  C2_3 
REMARK    2  A    between atoms: C2_3  and  C3_4 
REMARK    3  A    between atoms: C3_4  and  N1_5 
REMARK    4  A    between atoms: C3_4  and  C19_32 
REMARK       I    between atoms: N1_5  and  C4_6 
REMARK       I    between atoms: C4_6  and  N2_8 
REMARK    5  A    between atoms: N2_8  and  C5_9 
REMARK    6  A    between atoms: C8_15  and  C9_16 
REMARK    7  A    between atoms: C12_19  and  N5_20 
ROOT
HETATM    1  C5  UNL     1       1.069  52.167 -15.847  1.00  0.00     0.111 A 
HETATM    2  C6  UNL     1       0.393  50.984 -16.117  1.00  0.00     0.080 A 
HETATM    3  C7  UNL     1       0.073  50.776 -17.458  1.00  0.00     0.065 A 
HETATM    4  N3  UNL     1      -0.559  49.745 -18.093  1.00  0.00    -0.299 N 
HETATM    5  N4  UNL     1      -0.676  49.908 -19.421  1.00  0.00    -0.299 N 
ATOM      6  H4  UNL     1      -1.099  49.269 -20.093  1.00  0.00     0.187 HD
HETATM    7  C8  UNL     1      -0.111  51.103 -19.665  1.00  0.00     0.072 A 
HETATM    8  C17 UNL     1       0.393  51.682 -18.459  1.00  0.00     0.036 A 
HETATM    9  C18 UNL     1       1.085  52.838 -18.098  1.00  0.00     0.105 A 
HETATM   10  N8  UNL     1       1.407  53.069 -16.798  1.00  0.00    -0.351 N 
ATOM     11  H8  UNL     1       1.903  53.922 -16.539  1.00  0.00     0.166 HD
HETATM   12  H10 UNL     1      -0.924  48.895 -17.680  1.00  0.00     0.187 HD
ENDROOT
BRANCH   1  13
HETATM   13  N2  UNL     1       1.473  52.551 -14.569  1.00  0.00    -0.295 N 
HETATM   14  C4  UNL     1       1.946  51.767 -13.552  1.00  0.00     0.322 C 
HETATM   15  N1  UNL     1       2.243  52.513 -12.436  1.00  0.00    -0.332 N 
HETATM   16  O2  UNL     1       2.109  50.555 -13.587  1.00  0.00    -0.247 OA
HETATM   17  H7  UNL     1       1.861  53.443 -12.363  1.00  0.00     0.165 HD
HETATM   18  H8  UNL     1       1.460  53.550 -14.448  1.00  0.00     0.172 HD
BRANCH  15  19
HETATM   19  C3  UNL     1       2.744  51.898 -11.206  1.00  0.00     0.143 C 
BRANCH  19  20
HETATM   20  C2  UNL     1       1.571  51.511 -10.270  1.00  0.00     0.197 C 
BRANCH  20  21
HETATM   21  O1  UNL     1       0.508  52.465 -10.359  1.00  0.00    -0.394 OA
HETATM   22  C1  UNL     1      -0.759  51.832 -10.475  1.00  0.00     0.201 C 
ENDBRANCH  20  21
ENDBRANCH  19  20
BRANCH  19  23
HETATM   23  C19 UNL     1       3.805  52.829 -10.620  1.00  0.00    -0.033 A 
HETATM   24  C20 UNL     1       3.706  54.210 -10.893  1.00  0.00     0.012 A 
HETATM   25  C21 UNL     1       4.628  55.117 -10.370  1.00  0.00     0.043 A 
HETATM   26  C22 UNL     1       5.662  54.652  -9.571  1.00  0.00     0.116 A 
HETATM   27  F1  UNL     1       6.551  55.518  -9.068  1.00  0.00    -0.206 F 
HETATM   28  C23 UNL     1       5.789  53.298  -9.287  1.00  0.00     0.043 A 
HETATM   29  C24 UNL     1       4.863  52.389  -9.807  1.00  0.00     0.012 A 
ENDBRANCH  19  23
ENDBRANCH  15  19
ENDBRANCH   1  13
BRANCH   7  30
HETATM   30  C9  UNL     1      -0.060  51.639 -21.025  1.00  0.00    -0.007 A 
HETATM   31  C10 UNL     1       0.857  52.639 -21.375  1.00  0.00     0.016 A 
HETATM   32  C11 UNL     1       0.904  53.142 -22.682  1.00  0.00     0.032 A 
HETATM   33  C12 UNL     1       0.022  52.652 -23.655  1.00  0.00     0.054 A 
HETATM   34  C15 UNL     1      -0.909  51.664 -23.305  1.00  0.00     0.032 A 
HETATM   35  C16 UNL     1      -0.949  51.166 -21.999  1.00  0.00     0.016 A 
BRANCH  33  36
HETATM   36  N5  UNL     1       0.052  53.146 -24.985  1.00  0.00    -0.250 N 
HETATM   37  C13 UNL     1       0.028  52.446 -26.170  1.00  0.00     0.132 A 
HETATM   38  C14 UNL     1       0.062  53.409 -27.148  1.00  0.00     0.123 A 
HETATM   39  N6  UNL     1       0.109  54.640 -26.571  1.00  0.00    -0.294 N 
HETATM   40  N7  UNL     1       0.105  54.474 -25.255  1.00  0.00    -0.016 NA
ATOM     41  H6  UNL     1       0.142  55.533 -27.063  1.00  0.00     0.183 HD
ENDBRANCH  33  36
ENDBRANCH   7  30
TORSDOF 7
ENDMDL
MODEL 7
REMARK minimizedAffinity -9.39122677
REMARK  7 active torsions:
REMARK  status: ('A' for Active; 'I' for Inactive)
REMARK    1  A    between atoms: O1_2  and  C2_3 
REMARK    2  A    between atoms: C2_3  and  C3_4 
REMARK    3  A    between atoms: C3_4  and  N1_5 
REMARK    4  A    between atoms: C3_4  and  C19_32 
REMARK       I    between atoms: N1_5  and  C4_6 
REMARK       I    between atoms: C4_6  and  N2_8 
REMARK    5  A    between atoms: N2_8  and  C5_9 
REMARK    6  A    between atoms: C8_15  and  C9_16 
REMARK    7  A    between atoms: C12_19  and  N5_20 
ROOT
HETATM    1  C5  UNL     1      -3.035  50.891 -27.189  1.00  0.00     0.111 A 
HETATM    2  C6  UNL     1      -2.189  51.971 -27.401  1.00  0.00     0.080 A 
HETATM    3  C7  UNL     1      -1.475  52.395 -26.281  1.00  0.00     0.065 A 
HETATM    4  N3  UNL     1      -0.555  53.391 -26.111  1.00  0.00    -0.299 N 
HETATM    5  N4  UNL     1      -0.075  53.487 -24.861  1.00  0.00    -0.299 N 
ATOM      6  H4  UNL     1       0.621  54.143 -24.508  1.00  0.00     0.187 HD
HETATM    7  C8  UNL     1      -0.718  52.523 -24.178  1.00  0.00     0.072 A 
HETATM    8  C17 UNL     1      -1.599  51.795 -25.036  1.00  0.00     0.036 A 
HETATM    9  C18 UNL     1      -2.463  50.706 -24.918  1.00  0.00     0.105 A 
HETATM   10  N8  UNL     1      -3.175  50.274 -25.992  1.00  0.00    -0.351 N 
ATOM     11  H8  UNL     1      -3.814  49.485 -25.897  1.00  0.00     0.166 HD
HETATM   12  H10 UNL     1      -0.204  54.034 -26.811  1.00  0.00     0.187 HD
ENDROOT
BRANCH   1  13
HETATM   13  N2  UNL     1      -3.831  50.326 -28.185  1.00  0.00    -0.295 N 
HETATM   14  C4  UNL     1      -4.280  49.038 -28.290  1.00  0.00     0.322 C 
HETATM   15  N1  UNL     1      -5.045  48.861 -29.418  1.00  0.00    -0.332 N 
HETATM   16  O2  UNL     1      -4.063  48.128 -27.501  1.00  0.00    -0.247 OA
HETATM   17  H7  UNL     1      -4.986  49.548 -30.153  1.00  0.00     0.165 HD
HETATM   18  H8  UNL     1      -4.144  51.008 -28.857  1.00  0.00     0.172 HD
BRANCH  15  19
HETATM   19  C3  UNL     1      -5.623  47.561 -29.764  1.00  0.00     0.143 C 
BRANCH  19  20
HETATM   20  C2  UNL     1      -5.003  47.020 -31.078  1.00  0.00     0.197 C 
BRANCH  20  21
HETATM   21  O1  UNL     1      -4.482  48.087 -31.877  1.00  0.00    -0.394 OA
HETATM   22  C1  UNL     1      -4.258  47.678 -33.218  1.00  0.00     0.201 C 
ENDBRANCH  20  21
ENDBRANCH  19  20
BRANCH  19  23
HETATM   23  C19 UNL     1      -7.144  47.706 -29.737  1.00  0.00    -0.033 A 
HETATM   24  C20 UNL     1      -7.740  48.652 -30.598  1.00  0.00     0.012 A 
HETATM   25  C21 UNL     1      -9.124  48.819 -30.639  1.00  0.00     0.043 A 
HETATM   26  C22 UNL     1      -9.928  48.043 -29.816  1.00  0.00     0.116 A 
HETATM   27  F1  UNL     1     -11.258  48.201 -29.850  1.00  0.00    -0.206 F 
HETATM   28  C23 UNL     1      -9.372  47.106 -28.955  1.00  0.00     0.043 A 
HETATM   29  C24 UNL     1      -7.984  46.935 -28.916  1.00  0.00     0.012 A 
ENDBRANCH  19  23
ENDBRANCH  15  19
ENDBRANCH   1  13
BRANCH   7  30
HETATM   30  C9  UNL     1      -0.462  52.324 -22.751  1.00  0.00    -0.007 A 
HETATM   31  C10 UNL     1      -1.296  51.511 -21.973  1.00  0.00     0.016 A 
HETATM   32  C11 UNL     1      -1.041  51.320 -20.609  1.00  0.00     0.032 A 
HETATM   33  C12 UNL     1       0.055  51.953 -20.005  1.00  0.00     0.054 A 
HETATM   34  C15 UNL     1       0.882  52.780 -20.776  1.00  0.00     0.032 A 
HETATM   35  C16 UNL     1       0.622  52.965 -22.138  1.00  0.00     0.016 A 
BRANCH  33  36
HETATM   36  N5  UNL     1       0.334  51.773 -18.625  1.00  0.00    -0.250 N 
HETATM   37  C13 UNL     1      -0.078  50.767 -17.782  1.00  0.00     0.132 A 
HETATM   38  C14 UNL     1       0.487  51.072 -16.568  1.00  0.00     0.123 A 
HETATM   39  N6  UNL     1       1.207  52.220 -16.679  1.00  0.00    -0.294 N 
HETATM   40  N7  UNL     1       1.109  52.644 -17.932  1.00  0.00    -0.016 NA
ATOM     41  H6  UNL     1       1.731  52.675 -15.931  1.00  0.00     0.183 HD
ENDBRANCH  33  36
ENDBRANCH   7  30
TORSDOF 7
ENDMDL
MODEL 8
REMARK minimizedAffinity -9.20903015
REMARK  7 active torsions:
REMARK  status: ('A' for Active; 'I' for Inactive)
REMARK    1  A    between atoms: O1_2  and  C2_3 
REMARK    2  A    between atoms: C2_3  and  C3_4 
REMARK    3  A    between atoms: C3_4  and  N1_5 
REMARK    4  A    between atoms: C3_4  and  C19_32 
REMARK       I    between atoms: N1_5  and  C4_6 
REMARK       I    between atoms: C4_6  and  N2_8 
REMARK    5  A    between atoms: N2_8  and  C5_9 
REMARK    6  A    between atoms: C8_15  and  C9_16 
REMARK    7  A    between atoms: C12_19  and  N5_20 
ROOT
HETATM    1  C5  UNL     1      -4.109  48.690 -26.620  1.00  0.00     0.111 A 
HETATM    2  C6  UNL     1      -3.137  49.464 -27.239  1.00  0.00     0.080 A 
HETATM    3  C7  UNL     1      -2.244  50.099 -26.376  1.00  0.00     0.065 A 
HETATM    4  N3  UNL     1      -1.170  50.909 -26.613  1.00  0.00    -0.299 N 
HETATM    5  N4  UNL     1      -0.543  51.326 -25.502  1.00  0.00    -0.299 N 
ATOM      6  H4  UNL     1       0.281  51.924 -25.437  1.00  0.00     0.187 HD
HETATM    7  C8  UNL     1      -1.244  50.780 -24.493  1.00  0.00     0.072 A 
HETATM    8  C17 UNL     1      -2.317  49.981 -24.996  1.00  0.00     0.036 A 
HETATM    9  C18 UNL     1      -3.319  49.172 -24.460  1.00  0.00     0.105 A 
HETATM   10  N8  UNL     1      -4.206  48.544 -25.278  1.00  0.00    -0.351 N 
ATOM     11  H8  UNL     1      -4.943  47.963 -24.880  1.00  0.00     0.166 HD
HETATM   12  H10 UNL     1      -0.805  51.206 -27.510  1.00  0.00     0.187 HD
ENDROOT
BRANCH   1  13
HETATM   13  N2  UNL     1      -5.089  47.981 -27.313  1.00  0.00    -0.295 N 
HETATM   14  C4  UNL     1      -5.427  48.064 -28.636  1.00  0.00     0.322 C 
HETATM   15  N1  UNL     1      -6.448  47.200 -28.952  1.00  0.00    -0.332 N 
HETATM   16  O2  UNL     1      -4.909  48.793 -29.473  1.00  0.00    -0.247 OA
HETATM   17  H7  UNL     1      -7.004  46.818 -28.203  1.00  0.00     0.165 HD
HETATM   18  H8  UNL     1      -5.534  47.283 -26.740  1.00  0.00     0.172 HD
BRANCH  15  19
HETATM   19  C3  UNL     1      -7.003  47.119 -30.304  1.00  0.00     0.143 C 
BRANCH  19  20
HETATM   20  C2  UNL     1      -8.552  47.061 -30.257  1.00  0.00     0.197 C 
BRANCH  20  21
HETATM   21  O1  UNL     1      -9.128  48.042 -31.125  1.00  0.00    -0.394 OA
HETATM   22  C1  UNL     1      -8.416  49.271 -31.076  1.00  0.00     0.201 C 
ENDBRANCH  20  21
ENDBRANCH  19  20
BRANCH  19  23
HETATM   23  C19 UNL     1      -6.300  45.972 -31.028  1.00  0.00    -0.033 A 
HETATM   24  C20 UNL     1      -5.154  46.270 -31.795  1.00  0.00     0.012 A 
HETATM   25  C21 UNL     1      -4.452  45.266 -32.464  1.00  0.00     0.043 A 
HETATM   26  C22 UNL     1      -4.892  43.954 -32.375  1.00  0.00     0.116 A 
HETATM   27  F1  UNL     1      -4.223  42.987 -33.016  1.00  0.00    -0.206 F 
HETATM   28  C23 UNL     1      -6.019  43.629 -31.631  1.00  0.00     0.043 A 
HETATM   29  C24 UNL     1      -6.720  44.634 -30.958  1.00  0.00     0.012 A 
ENDBRANCH  19  23
ENDBRANCH  15  19
ENDBRANCH   1  13
BRANCH   7  30
HETATM   30  C9  UNL     1      -0.862  51.024 -23.102  1.00  0.00    -0.007 A 
HETATM   31  C10 UNL     1      -1.164  50.098 -22.095  1.00  0.00     0.016 A 
HETATM   32  C11 UNL     1      -0.788  50.337 -20.766  1.00  0.00     0.032 A 
HETATM   33  C12 UNL     1      -0.112  51.518 -20.429  1.00  0.00     0.054 A 
HETATM   34  C15 UNL     1       0.177  52.455 -21.431  1.00  0.00     0.032 A 
HETATM   35  C16 UNL     1      -0.199  52.209 -22.755  1.00  0.00     0.016 A 
BRANCH  33  36
HETATM   36  N5  UNL     1       0.279  51.780 -19.090  1.00  0.00    -0.250 N 
HETATM   37  C13 UNL     1       0.033  51.042 -17.956  1.00  0.00     0.132 A 
HETATM   38  C14 UNL     1       0.645  51.739 -16.943  1.00  0.00     0.123 A 
HETATM   39  N6  UNL     1       1.233  52.855 -17.452  1.00  0.00    -0.294 N 
HETATM   40  N7  UNL     1       1.005  52.877 -18.759  1.00  0.00    -0.016 NA
ATOM     41  H6  UNL     1       1.756  53.552 -16.923  1.00  0.00     0.183 HD
ENDBRANCH  33  36
ENDBRANCH   7  30
TORSDOF 7
ENDMDL
MODEL 9
REMARK minimizedAffinity -9.13896179
REMARK  7 active torsions:
REMARK  status: ('A' for Active; 'I' for Inactive)
REMARK    1  A    between atoms: O1_2  and  C2_3 
REMARK    2  A    between atoms: C2_3  and  C3_4 
REMARK    3  A    between atoms: C3_4  and  N1_5 
REMARK    4  A    between atoms: C3_4  and  C19_32 
REMARK       I    between atoms: N1_5  and  C4_6 
REMARK       I    between atoms: C4_6  and  N2_8 
REMARK    5  A    between atoms: N2_8  and  C5_9 
REMARK    6  A    between atoms: C8_15  and  C9_16 
REMARK    7  A    between atoms: C12_19  and  N5_20 
ROOT
HETATM    1  C5  UNL     1       0.788  52.952 -19.265  1.00  0.00     0.111 A 
HETATM    2  C6  UNL     1       1.429  53.749 -20.203  1.00  0.00     0.080 A 
HETATM    3  C7  UNL     1       1.047  53.534 -21.527  1.00  0.00     0.065 A 
HETATM    4  N3  UNL     1       1.436  54.126 -22.694  1.00  0.00    -0.299 N 
HETATM    5  N4  UNL     1       0.823  53.641 -23.786  1.00  0.00    -0.299 N 
ATOM      6  H4  UNL     1       0.947  53.936 -24.754  1.00  0.00     0.187 HD
HETATM    7  C8  UNL     1       0.008  52.681 -23.316  1.00  0.00     0.072 A 
HETATM    8  C17 UNL     1       0.101  52.588 -21.893  1.00  0.00     0.036 A 
HETATM    9  C18 UNL     1      -0.503  51.840 -20.882  1.00  0.00     0.105 A 
HETATM   10  N8  UNL     1      -0.146  52.026 -19.583  1.00  0.00    -0.351 N 
ATOM     11  H8  UNL     1      -0.582  51.468 -18.850  1.00  0.00     0.166 HD
HETATM   12  H10 UNL     1       2.108  54.875 -22.814  1.00  0.00     0.187 HD
ENDROOT
BRANCH   1  13
HETATM   13  N2  UNL     1       1.037  53.020 -17.894  1.00  0.00    -0.295 N 
HETATM   14  C4  UNL     1       0.968  52.020 -16.964  1.00  0.00     0.322 C 
HETATM   15  N1  UNL     1       1.287  52.476 -15.708  1.00  0.00    -0.332 N 
HETATM   16  O2  UNL     1       0.674  50.851 -17.177  1.00  0.00    -0.247 OA
HETATM   17  H7  UNL     1       1.270  53.469 -15.537  1.00  0.00     0.165 HD
HETATM   18  H8  UNL     1       1.370  53.927 -17.611  1.00  0.00     0.172 HD
BRANCH  15  19
HETATM   19  C3  UNL     1       1.264  51.598 -14.537  1.00  0.00     0.143 C 
BRANCH  19  20
HETATM   20  C2  UNL     1       1.661  50.151 -14.930  1.00  0.00     0.197 C 
BRANCH  20  21
HETATM   21  O1  UNL     1       2.590  49.602 -13.990  1.00  0.00    -0.394 OA
HETATM   22  C1  UNL     1       3.714  50.451 -13.805  1.00  0.00     0.201 C 
ENDBRANCH  20  21
ENDBRANCH  19  20
BRANCH  19  23
HETATM   23  C19 UNL     1      -0.092  51.770 -13.852  1.00  0.00    -0.033 A 
HETATM   24  C20 UNL     1      -0.155  52.569 -12.690  1.00  0.00     0.012 A 
HETATM   25  C21 UNL     1      -1.365  52.784 -12.029  1.00  0.00     0.043 A 
HETATM   26  C22 UNL     1      -2.523  52.201 -12.521  1.00  0.00     0.116 A 
HETATM   27  F1  UNL     1      -3.686  52.403 -11.888  1.00  0.00    -0.206 F 
HETATM   28  C23 UNL     1      -2.492  51.406 -13.659  1.00  0.00     0.043 A 
HETATM   29  C24 UNL     1      -1.281  51.193 -14.324  1.00  0.00     0.012 A 
ENDBRANCH  19  23
ENDBRANCH  15  19
ENDBRANCH   1  13
BRANCH   7  30
HETATM   30  C9  UNL     1      -0.830  51.903 -24.229  1.00  0.00    -0.007 A 
HETATM   31  C10 UNL     1      -0.279  51.249 -25.338  1.00  0.00     0.016 A 
HETATM   32  C11 UNL     1      -1.087  50.499 -26.203  1.00  0.00     0.032 A 
HETATM   33  C12 UNL     1      -2.466  50.405 -25.970  1.00  0.00     0.054 A 
HETATM   34  C15 UNL     1      -3.025  51.072 -24.871  1.00  0.00     0.032 A 
HETATM   35  C16 UNL     1      -2.211  51.816 -24.010  1.00  0.00     0.016 A 
BRANCH  33  36
HETATM   36  N5  UNL     1      -3.304  49.651 -26.832  1.00  0.00    -0.250 N 
HETATM   37  C13 UNL     1      -4.042  48.523 -26.554  1.00  0.00     0.132 A 
HETATM   38  C14 UNL     1      -4.674  48.218 -27.734  1.00  0.00     0.123 A 
HETATM   39  N6  UNL     1      -4.325  49.126 -28.684  1.00  0.00    -0.294 N 
HETATM   40  N7  UNL     1      -3.489  49.995 -28.131  1.00  0.00    -0.016 NA
ATOM     41  H6  UNL     1      -4.648  49.137 -29.651  1.00  0.00     0.183 HD
ENDBRANCH  33  36
ENDBRANCH   7  30
TORSDOF 7
ENDMDL
