MODEL 1
REMARK minimizedAffinity -8.95790291
REMARK CNNscore 0.384434104
REMARK CNNaffinity 6.82599115
REMARK  5 active torsions:
REMARK  status: ('A' for Active; 'I' for Inactive)
REMARK    1  A    between atoms: C2_2  and  N1_3 
REMARK    2  A    between atoms: C2_2  and  C20_31 
REMARK       I    between atoms: N1_3  and  C3_4 
REMARK       I    between atoms: C3_4  and  N2_6 
REMARK    3  A    between atoms: N2_6  and  C4_7 
REMARK    4  A    between atoms: C7_13  and  C8_14 
REMARK    5  A    between atoms: C11_17  and  N5_18 
ROOT
HETATM    1  C4  UNL     1       0.555  51.451 -16.549  1.00  0.00     0.111 A 
HETATM    2  C5  UNL     1       1.186  52.533 -17.163  1.00  0.00     0.080 A 
HETATM    3  C6  UNL     1       0.959  52.662 -18.533  1.00  0.00     0.065 A 
HETATM    4  N3  UNL     1       1.415  53.555 -19.459  1.00  0.00    -0.299 N 
HETATM    5  N4  UNL     1       0.975  53.330 -20.706  1.00  0.00    -0.299 N 
ATOM      6  H4  UNL     1       1.200  53.853 -21.552  1.00  0.00     0.187 HD
HETATM    7  C7  UNL     1       0.171  52.260 -20.588  1.00  0.00     0.073 A 
HETATM    8  C18 UNL     1       0.142  51.791 -19.241  1.00  0.00     0.036 A 
HETATM    9  C19 UNL     1      -0.457  50.740 -18.547  1.00  0.00     0.105 A 
HETATM   10  N7  UNL     1      -0.248  50.599 -17.213  1.00  0.00    -0.351 N 
ATOM     11  H7  UNL     1      -0.705  49.839 -16.709  1.00  0.00     0.166 HD
HETATM   12  H8  UNL     1       2.036  54.341 -19.310  1.00  0.00     0.187 HD
ENDROOT
BRANCH   1  13
HETATM   13  N2  UNL     1       0.765  51.294 -15.172  1.00  0.00    -0.295 N 
HETATM   14  C3  UNL     1       1.921  51.613 -14.503  1.00  0.00     0.322 C 
HETATM   15  N1  UNL     1       1.833  51.232 -13.178  1.00  0.00    -0.335 N 
HETATM   16  O1  UNL     1       2.903  52.190 -14.945  1.00  0.00    -0.247 OA
HETATM   17  H5  UNL     1       1.257  50.429 -12.983  1.00  0.00     0.165 HD
HETATM   18  H6  UNL     1      -0.046  51.153 -14.594  1.00  0.00     0.172 HD
BRANCH  15  19
HETATM   19  C2  UNL     1       2.932  51.468 -12.255  1.00  0.00     0.115 C 
HETATM   20  C1  UNL     1       3.255  50.209 -11.439  1.00  0.00     0.037 C 
BRANCH  19  21
HETATM   21  C20 UNL     1       2.609  52.693 -11.412  1.00  0.00    -0.036 A 
HETATM   22  C21 UNL     1       3.647  53.305 -10.684  1.00  0.00     0.012 A 
HETATM   23  C22 UNL     1       3.405  54.436  -9.904  1.00  0.00     0.043 A 
HETATM   24  C23 UNL     1       2.125  54.970  -9.853  1.00  0.00     0.116 A 
HETATM   25  F1  UNL     1       1.889  56.051  -9.097  1.00  0.00    -0.206 F 
HETATM   26  C24 UNL     1       1.086  54.398 -10.576  1.00  0.00     0.043 A 
HETATM   27  C25 UNL     1       1.327  53.266 -11.359  1.00  0.00     0.012 A 
ENDBRANCH  19  21
ENDBRANCH  15  19
ENDBRANCH   1  13
BRANCH   7  28
HETATM   28  C8  UNL     1      -0.526  51.718 -21.747  1.00  0.00     0.009 A 
HETATM   29  C9  UNL     1      -1.126  50.469 -21.713  1.00  0.00     0.019 A 
HETATM   30  C10 UNL     1      -1.805  49.997 -22.840  1.00  0.00     0.049 A 
HETATM   31  C11 UNL     1      -1.868  50.764 -24.004  1.00  0.00     0.102 A 
HETATM   32  N6  UNL     1      -1.280  51.981 -24.038  1.00  0.00    -0.352 N 
HETATM   33  C17 UNL     1      -0.627  52.425 -22.935  1.00  0.00     0.103 A 
ATOM     34  H6  UNL     1      -1.327  52.556 -24.880  1.00  0.00     0.166 HD
BRANCH  31  35
HETATM   35  N5  UNL     1      -2.559  50.323 -25.126  1.00  0.00    -0.367 N 
HETATM   36  C12 UNL     1      -1.953  50.612 -26.427  1.00  0.00     0.124 C 
HETATM   37  C13 UNL     1      -3.011  50.482 -27.519  1.00  0.00     0.020 C 
HETATM   38  C14 UNL     1      -3.640  49.090 -27.557  1.00  0.00     0.003 C 
HETATM   39  C15 UNL     1      -3.429  48.307 -26.266  1.00  0.00     0.020 C 
HETATM   40  C16 UNL     1      -3.488  49.195 -25.025  1.00  0.00     0.124 C 
ENDBRANCH  31  35
ENDBRANCH   7  28
TORSDOF 5
ENDMDL
MODEL 2
REMARK minimizedAffinity -9.74227047
REMARK CNNscore 0.268118113
REMARK CNNaffinity 6.69210243
REMARK  5 active torsions:
REMARK  status: ('A' for Active; 'I' for Inactive)
REMARK    1  A    between atoms: C2_2  and  N1_3 
REMARK    2  A    between atoms: C2_2  and  C20_31 
REMARK       I    between atoms: N1_3  and  C3_4 
REMARK       I    between atoms: C3_4  and  N2_6 
REMARK    3  A    between atoms: N2_6  and  C4_7 
REMARK    4  A    between atoms: C7_13  and  C8_14 
REMARK    5  A    between atoms: C11_17  and  N5_18 
ROOT
HETATM    1  C4  UNL     1       0.490  51.518 -16.779  1.00  0.00     0.111 A 
HETATM    2  C5  UNL     1       1.068  52.653 -17.346  1.00  0.00     0.080 A 
HETATM    3  C6  UNL     1       0.889  52.795 -18.722  1.00  0.00     0.065 A 
HETATM    4  N3  UNL     1       1.318  53.736 -19.611  1.00  0.00    -0.299 N 
HETATM    5  N4  UNL     1       0.947  53.508 -20.881  1.00  0.00    -0.299 N 
ATOM      6  H4  UNL     1       1.169  54.063 -21.707  1.00  0.00     0.187 HD
HETATM    7  C7  UNL     1       0.216  52.382 -20.816  1.00  0.00     0.073 A 
HETATM    8  C18 UNL     1       0.165  51.884 -19.479  1.00  0.00     0.036 A 
HETATM    9  C19 UNL     1      -0.388  50.780 -18.830  1.00  0.00     0.105 A 
HETATM   10  N7  UNL     1      -0.224  50.626 -17.492  1.00  0.00    -0.351 N 
ATOM     11  H7  UNL     1      -0.647  49.826 -17.020  1.00  0.00     0.166 HD
HETATM   12  H8  UNL     1       1.876  54.561 -19.422  1.00  0.00     0.187 HD
ENDROOT
BRANCH   1  13
HETATM   13  N2  UNL     1       0.653  51.347 -15.397  1.00  0.00    -0.295 N 
HETATM   14  C3  UNL     1      -0.368  51.209 -14.488  1.00  0.00     0.322 C 
HETATM   15  N1  UNL     1       0.133  51.170 -13.201  1.00  0.00    -0.335 N 
HETATM   16  O1  UNL     1      -1.561  51.088 -14.720  1.00  0.00    -0.247 OA
HETATM   17  H5  UNL     1       0.984  51.684 -13.040  1.00  0.00     0.165 HD
HETATM   18  H6  UNL     1       1.565  51.081 -15.068  1.00  0.00     0.172 HD
BRANCH  15  19
HETATM   19  C2  UNL     1      -0.751  51.023 -12.056  1.00  0.00     0.115 C 
HETATM   20  C1  UNL     1      -2.034  50.272 -12.436  1.00  0.00     0.037 C 
BRANCH  19  21
HETATM   21  C20 UNL     1      -0.988  52.394 -11.442  1.00  0.00    -0.036 A 
HETATM   22  C21 UNL     1       0.088  53.300 -11.377  1.00  0.00     0.012 A 
HETATM   23  C22 UNL     1      -0.080  54.574 -10.833  1.00  0.00     0.043 A 
HETATM   24  C23 UNL     1      -1.327  54.956 -10.358  1.00  0.00     0.116 A 
HETATM   25  F1  UNL     1      -1.487  56.176  -9.826  1.00  0.00    -0.206 F 
HETATM   26  C24 UNL     1      -2.410  54.089 -10.426  1.00  0.00     0.043 A 
HETATM   27  C25 UNL     1      -2.245  52.814 -10.972  1.00  0.00     0.012 A 
ENDBRANCH  19  21
ENDBRANCH  15  19
ENDBRANCH   1  13
BRANCH   7  28
HETATM   28  C8  UNL     1      -0.393  51.817 -22.012  1.00  0.00     0.009 A 
HETATM   29  C9  UNL     1      -0.136  52.339 -23.271  1.00  0.00     0.019 A 
HETATM   30  C10 UNL     1      -0.724  51.752 -24.396  1.00  0.00     0.049 A 
HETATM   31  C11 UNL     1      -1.580  50.658 -24.261  1.00  0.00     0.102 A 
HETATM   32  N6  UNL     1      -1.833  50.152 -23.033  1.00  0.00    -0.352 N 
HETATM   33  C17 UNL     1      -1.253  50.731 -21.952  1.00  0.00     0.103 A 
ATOM     34  H6  UNL     1      -2.449  49.347 -22.921  1.00  0.00     0.166 HD
BRANCH  31  35
HETATM   35  N5  UNL     1      -2.154  50.046 -25.369  1.00  0.00    -0.367 N 
HETATM   36  C12 UNL     1      -3.422  49.349 -25.150  1.00  0.00     0.124 C 
HETATM   37  C13 UNL     1      -3.673  48.381 -26.304  1.00  0.00     0.020 C 
HETATM   38  C14 UNL     1      -3.716  49.088 -27.658  1.00  0.00     0.003 C 
HETATM   39  C15 UNL     1      -3.067  50.468 -27.628  1.00  0.00     0.020 C 
HETATM   40  C16 UNL     1      -1.842  50.522 -26.718  1.00  0.00     0.124 C 
ENDBRANCH  31  35
ENDBRANCH   7  28
TORSDOF 5
ENDMDL
MODEL 3
REMARK minimizedAffinity -9.68610954
REMARK CNNscore 0.215870261
REMARK CNNaffinity 6.29787207
REMARK  5 active torsions:
REMARK  status: ('A' for Active; 'I' for Inactive)
REMARK    1  A    between atoms: C2_2  and  N1_3 
REMARK    2  A    between atoms: C2_2  and  C20_31 
REMARK       I    between atoms: N1_3  and  C3_4 
REMARK       I    between atoms: C3_4  and  N2_6 
REMARK    3  A    between atoms: N2_6  and  C4_7 
REMARK    4  A    between atoms: C7_13  and  C8_14 
REMARK    5  A    between atoms: C11_17  and  N5_18 
ROOT
HETATM    1  C4  UNL     1       1.000  52.171 -15.831  1.00  0.00     0.111 A 
HETATM    2  C5  UNL     1       0.339  50.950 -15.957  1.00  0.00     0.080 A 
HETATM    3  C6  UNL     1      -0.031  50.597 -17.254  1.00  0.00     0.065 A 
HETATM    4  N3  UNL     1      -0.699  49.519 -17.758  1.00  0.00    -0.299 N 
HETATM    5  N4  UNL     1      -0.881  49.553 -19.087  1.00  0.00    -0.299 N 
ATOM      6  H4  UNL     1      -1.366  48.870 -19.669  1.00  0.00     0.187 HD
HETATM    7  C7  UNL     1      -0.279  50.689 -19.476  1.00  0.00     0.073 A 
HETATM    8  C18 UNL     1       0.257  51.392 -18.356  1.00  0.00     0.036 A 
HETATM    9  C19 UNL     1       0.929  52.595 -18.142  1.00  0.00     0.105 A 
HETATM   10  N7  UNL     1       1.297  52.954 -16.886  1.00  0.00    -0.351 N 
ATOM     11  H7  UNL     1       1.805  53.827 -16.739  1.00  0.00     0.166 HD
HETATM   12  H8  UNL     1      -1.067  48.724 -17.249  1.00  0.00     0.187 HD
ENDROOT
BRANCH   1  13
HETATM   13  N2  UNL     1       1.384  52.555 -14.539  1.00  0.00    -0.295 N 
HETATM   14  C3  UNL     1       2.121  51.788 -13.670  1.00  0.00     0.322 C 
HETATM   15  N1  UNL     1       2.230  52.416 -12.444  1.00  0.00    -0.335 N 
HETATM   16  O1  UNL     1       2.667  50.719 -13.898  1.00  0.00    -0.247 OA
HETATM   17  H5  UNL     1       1.461  53.010 -12.179  1.00  0.00     0.165 HD
HETATM   18  H6  UNL     1       1.318  53.530 -14.307  1.00  0.00     0.172 HD
BRANCH  15  19
HETATM   19  C2  UNL     1       2.971  51.806 -11.351  1.00  0.00     0.115 C 
HETATM   20  C1  UNL     1       2.031  51.084 -10.376  1.00  0.00     0.037 C 
BRANCH  19  21
HETATM   21  C20 UNL     1       3.848  52.867 -10.704  1.00  0.00    -0.036 A 
HETATM   22  C21 UNL     1       4.851  52.457  -9.803  1.00  0.00     0.012 A 
HETATM   23  C22 UNL     1       5.688  53.390  -9.191  1.00  0.00     0.043 A 
HETATM   24  C23 UNL     1       5.536  54.739  -9.480  1.00  0.00     0.116 A 
HETATM   25  F1  UNL     1       6.334  55.637  -8.884  1.00  0.00    -0.206 F 
HETATM   26  C24 UNL     1       4.568  55.170 -10.377  1.00  0.00     0.043 A 
HETATM   27  C25 UNL     1       3.729  54.237 -10.993  1.00  0.00     0.012 A 
ENDBRANCH  19  21
ENDBRANCH  15  19
ENDBRANCH   1  13
BRANCH   7  28
HETATM   28  C8  UNL     1      -0.242  51.070 -20.881  1.00  0.00     0.009 A 
HETATM   29  C9  UNL     1       0.642  52.031 -21.349  1.00  0.00     0.019 A 
HETATM   30  C10 UNL     1       0.660  52.350 -22.710  1.00  0.00     0.049 A 
HETATM   31  C11 UNL     1      -0.215  51.724 -23.598  1.00  0.00     0.102 A 
HETATM   32  N6  UNL     1      -1.079  50.790 -23.142  1.00  0.00    -0.352 N 
HETATM   33  C17 UNL     1      -1.083  50.490 -21.819  1.00  0.00     0.103 A 
ATOM     34  H6  UNL     1      -1.718  50.318 -23.782  1.00  0.00     0.166 HD
BRANCH  31  35
HETATM   35  N5  UNL     1      -0.195  52.010 -24.958  1.00  0.00    -0.367 N 
HETATM   36  C12 UNL     1       0.363  53.306 -25.349  1.00  0.00     0.124 C 
HETATM   37  C13 UNL     1      -0.093  53.647 -26.765  1.00  0.00     0.020 C 
HETATM   38  C14 UNL     1       0.331  52.590 -27.784  1.00  0.00     0.003 C 
HETATM   39  C15 UNL     1       0.693  51.256 -27.140  1.00  0.00     0.020 C 
HETATM   40  C16 UNL     1      -0.192  50.924 -25.940  1.00  0.00     0.124 C 
ENDBRANCH  31  35
ENDBRANCH   7  28
TORSDOF 5
ENDMDL
MODEL 4
REMARK minimizedAffinity -10.1215029
REMARK CNNscore 0.178009644
REMARK CNNaffinity 6.34464025
REMARK  5 active torsions:
REMARK  status: ('A' for Active; 'I' for Inactive)
REMARK    1  A    between atoms: C2_2  and  N1_3 
REMARK    2  A    between atoms: C2_2  and  C20_31 
REMARK       I    between atoms: N1_3  and  C3_4 
REMARK       I    between atoms: C3_4  and  N2_6 
REMARK    3  A    between atoms: N2_6  and  C4_7 
REMARK    4  A    between atoms: C7_13  and  C8_14 
REMARK    5  A    between atoms: C11_17  and  N5_18 
ROOT
HETATM    1  C4  UNL     1       0.957  52.182 -16.204  1.00  0.00     0.111 A 
HETATM    2  C5  UNL     1       0.328  50.944 -16.332  1.00  0.00     0.080 A 
HETATM    3  C6  UNL     1      -0.037  50.587 -17.629  1.00  0.00     0.065 A 
HETATM    4  N3  UNL     1      -0.679  49.494 -18.134  1.00  0.00    -0.299 N 
HETATM    5  N4  UNL     1      -0.867  49.528 -19.462  1.00  0.00    -0.299 N 
ATOM      6  H4  UNL     1      -1.336  48.835 -20.045  1.00  0.00     0.187 HD
HETATM    7  C7  UNL     1      -0.296  50.681 -19.850  1.00  0.00     0.073 A 
HETATM    8  C18 UNL     1       0.226  51.393 -18.729  1.00  0.00     0.036 A 
HETATM    9  C19 UNL     1       0.867  52.612 -18.513  1.00  0.00     0.105 A 
HETATM   10  N7  UNL     1       1.230  52.976 -17.256  1.00  0.00    -0.351 N 
ATOM     11  H7  UNL     1       1.716  53.861 -17.108  1.00  0.00     0.166 HD
HETATM   12  H8  UNL     1      -1.024  48.687 -17.627  1.00  0.00     0.187 HD
ENDROOT
BRANCH   1  13
HETATM   13  N2  UNL     1       1.336  52.571 -14.911  1.00  0.00    -0.295 N 
HETATM   14  C3  UNL     1       0.835  52.046 -13.746  1.00  0.00     0.322 C 
HETATM   15  N1  UNL     1       1.339  52.725 -12.653  1.00  0.00    -0.335 N 
HETATM   16  O1  UNL     1       0.083  51.090 -13.621  1.00  0.00    -0.247 OA
HETATM   17  H5  UNL     1       1.564  53.696 -12.799  1.00  0.00     0.165 HD
HETATM   18  H6  UNL     1       2.186  53.100 -14.818  1.00  0.00     0.172 HD
BRANCH  15  19
HETATM   19  C2  UNL     1       0.961  52.354 -11.299  1.00  0.00     0.115 C 
HETATM   20  C1  UNL     1       1.058  50.837 -11.090  1.00  0.00     0.037 C 
BRANCH  19  21
HETATM   21  C20 UNL     1      -0.409  52.941 -10.995  1.00  0.00    -0.036 A 
HETATM   22  C21 UNL     1      -1.515  52.072 -10.922  1.00  0.00     0.012 A 
HETATM   23  C22 UNL     1      -2.791  52.559 -10.637  1.00  0.00     0.043 A 
HETATM   24  C23 UNL     1      -2.971  53.917 -10.413  1.00  0.00     0.116 A 
HETATM   25  F1  UNL     1      -4.198  54.387 -10.149  1.00  0.00    -0.206 F 
HETATM   26  C24 UNL     1      -1.895  54.794 -10.460  1.00  0.00     0.043 A 
HETATM   27  C25 UNL     1      -0.616  54.308 -10.744  1.00  0.00     0.012 A 
ENDBRANCH  19  21
ENDBRANCH  15  19
ENDBRANCH   1  13
BRANCH   7  28
HETATM   28  C8  UNL     1      -0.274  51.068 -21.253  1.00  0.00     0.009 A 
HETATM   29  C9  UNL     1       0.608  52.027 -21.727  1.00  0.00     0.019 A 
HETATM   30  C10 UNL     1       0.612  52.352 -23.087  1.00  0.00     0.049 A 
HETATM   31  C11 UNL     1      -0.277  51.734 -23.967  1.00  0.00     0.102 A 
HETATM   32  N6  UNL     1      -1.140  50.801 -23.505  1.00  0.00    -0.352 N 
HETATM   33  C17 UNL     1      -1.129  50.495 -22.183  1.00  0.00     0.103 A 
ATOM     34  H6  UNL     1      -1.788  50.335 -24.139  1.00  0.00     0.166 HD
BRANCH  31  35
HETATM   35  N5  UNL     1      -0.272  52.025 -25.326  1.00  0.00    -0.367 N 
HETATM   36  C12 UNL     1       0.155  53.373 -25.708  1.00  0.00     0.124 C 
HETATM   37  C13 UNL     1      -0.319  53.671 -27.127  1.00  0.00     0.020 C 
HETATM   38  C14 UNL     1       0.222  52.667 -28.144  1.00  0.00     0.003 C 
HETATM   39  C15 UNL     1       0.711  51.374 -27.501  1.00  0.00     0.020 C 
HETATM   40  C16 UNL     1      -0.148  50.949 -26.311  1.00  0.00     0.124 C 
ENDBRANCH  31  35
ENDBRANCH   7  28
TORSDOF 5
ENDMDL
MODEL 5
REMARK minimizedAffinity -10.0597916
REMARK CNNscore 0.171073169
REMARK CNNaffinity 6.38339996
REMARK  5 active torsions:
REMARK  status: ('A' for Active; 'I' for Inactive)
REMARK    1  A    between atoms: C2_2  and  N1_3 
REMARK    2  A    between atoms: C2_2  and  C20_31 
REMARK       I    between atoms: N1_3  and  C3_4 
REMARK       I    between atoms: C3_4  and  N2_6 
REMARK    3  A    between atoms: N2_6  and  C4_7 
REMARK    4  A    between atoms: C7_13  and  C8_14 
REMARK    5  A    between atoms: C11_17  and  N5_18 
ROOT
HETATM    1  C4  UNL     1       1.161  52.102 -15.393  1.00  0.00     0.111 A 
HETATM    2  C5  UNL     1       0.505  50.875 -15.489  1.00  0.00     0.080 A 
HETATM    3  C6  UNL     1       0.079  50.519 -16.768  1.00  0.00     0.065 A 
HETATM    4  N3  UNL     1      -0.603  49.436 -17.241  1.00  0.00    -0.299 N 
HETATM    5  N4  UNL     1      -0.847  49.468 -18.560  1.00  0.00    -0.299 N 
ATOM      6  H4  UNL     1      -1.353  48.782 -19.119  1.00  0.00     0.187 HD
HETATM    7  C7  UNL     1      -0.273  50.610 -18.976  1.00  0.00     0.073 A 
HETATM    8  C18 UNL     1       0.308  51.317 -17.882  1.00  0.00     0.036 A 
HETATM    9  C19 UNL     1       0.979  52.526 -17.698  1.00  0.00     0.105 A 
HETATM   10  N7  UNL     1       1.402  52.888 -16.460  1.00  0.00    -0.351 N 
ATOM     11  H7  UNL     1       1.909  53.764 -16.337  1.00  0.00     0.166 HD
HETATM   12  H8  UNL     1      -0.940  48.637 -16.716  1.00  0.00     0.187 HD
ENDROOT
BRANCH   1  13
HETATM   13  N2  UNL     1       1.601  52.488 -14.120  1.00  0.00    -0.295 N 
HETATM   14  C3  UNL     1       0.788  52.771 -13.050  1.00  0.00     0.322 C 
HETATM   15  N1  UNL     1       1.536  53.225 -11.981  1.00  0.00    -0.335 N 
HETATM   16  O1  UNL     1      -0.423  52.623 -12.975  1.00  0.00    -0.247 OA
HETATM   17  H5  UNL     1       2.381  53.721 -12.209  1.00  0.00     0.165 HD
HETATM   18  H6  UNL     1       2.570  52.333 -13.899  1.00  0.00     0.172 HD
BRANCH  15  19
HETATM   19  C2  UNL     1       0.903  53.587 -10.722  1.00  0.00     0.115 C 
HETATM   20  C1  UNL     1      -0.568  53.973 -10.929  1.00  0.00     0.037 C 
BRANCH  19  21
HETATM   21  C20 UNL     1       1.741  54.660 -10.045  1.00  0.00    -0.036 A 
HETATM   22  C21 UNL     1       2.755  55.295 -10.789  1.00  0.00     0.012 A 
HETATM   23  C22 UNL     1       3.545  56.293 -10.217  1.00  0.00     0.043 A 
HETATM   24  C23 UNL     1       3.323  56.670  -8.900  1.00  0.00     0.116 A 
HETATM   25  F1  UNL     1       4.088  57.621  -8.346  1.00  0.00    -0.206 F 
HETATM   26  C24 UNL     1       2.319  56.074  -8.149  1.00  0.00     0.043 A 
HETATM   27  C25 UNL     1       1.525  55.075  -8.720  1.00  0.00     0.012 A 
ENDBRANCH  19  21
ENDBRANCH  15  19
ENDBRANCH   1  13
BRANCH   7  28
HETATM   28  C8  UNL     1      -0.305  50.992 -20.381  1.00  0.00     0.009 A 
HETATM   29  C9  UNL     1       0.301  52.156 -20.830  1.00  0.00     0.019 A 
HETATM   30  C10 UNL     1       0.267  52.473 -22.191  1.00  0.00     0.049 A 
HETATM   31  C11 UNL     1      -0.387  51.638 -23.099  1.00  0.00     0.102 A 
HETATM   32  N6  UNL     1      -0.980  50.505 -22.661  1.00  0.00    -0.352 N 
HETATM   33  C17 UNL     1      -0.936  50.210 -21.337  1.00  0.00     0.103 A 
ATOM     34  H6  UNL     1      -1.453  49.881 -23.315  1.00  0.00     0.166 HD
BRANCH  31  35
HETATM   35  N5  UNL     1      -0.411  51.924 -24.459  1.00  0.00    -0.367 N 
HETATM   36  C12 UNL     1       0.535  52.935 -24.934  1.00  0.00     0.124 C 
HETATM   37  C13 UNL     1       0.085  53.446 -26.300  1.00  0.00     0.020 C 
HETATM   38  C14 UNL     1      -0.016  52.327 -27.336  1.00  0.00     0.003 C 
HETATM   39  C15 UNL     1      -0.097  50.940 -26.707  1.00  0.00     0.020 C 
HETATM   40  C16 UNL     1      -0.908  50.930 -25.412  1.00  0.00     0.124 C 
ENDBRANCH  31  35
ENDBRANCH   7  28
TORSDOF 5
ENDMDL
MODEL 6
REMARK minimizedAffinity -8.83283234
REMARK CNNscore 0.153899223
REMARK CNNaffinity 6.56238985
REMARK  5 active torsions:
REMARK  status: ('A' for Active; 'I' for Inactive)
REMARK    1  A    between atoms: C2_2  and  N1_3 
REMARK    2  A    between atoms: C2_2  and  C20_31 
REMARK       I    between atoms: N1_3  and  C3_4 
REMARK       I    between atoms: C3_4  and  N2_6 
REMARK    3  A    between atoms: N2_6  and  C4_7 
REMARK    4  A    between atoms: C7_13  and  C8_14 
REMARK    5  A    between atoms: C11_17  and  N5_18 
ROOT
HETATM    1  C4  UNL     1      -1.030  50.474 -16.360  1.00  0.00     0.111 A 
HETATM    2  C5  UNL     1      -0.065  51.473 -16.239  1.00  0.00     0.080 A 
HETATM    3  C6  UNL     1       0.374  52.033 -17.438  1.00  0.00     0.065 A 
HETATM    4  N3  UNL     1       1.304  52.992 -17.718  1.00  0.00    -0.299 N 
HETATM    5  N4  UNL     1       1.456  53.249 -19.026  1.00  0.00    -0.299 N 
ATOM      6  H4  UNL     1       2.103  53.906 -19.463  1.00  0.00     0.187 HD
HETATM    7  C7  UNL     1       0.565  52.444 -19.630  1.00  0.00     0.073 A 
HETATM    8  C18 UNL     1      -0.129  51.645 -18.673  1.00  0.00     0.036 A 
HETATM    9  C19 UNL     1      -1.100  50.644 -18.703  1.00  0.00     0.105 A 
HETATM   10  N7  UNL     1      -1.539  50.087 -17.546  1.00  0.00    -0.351 N 
ATOM     11  H7  UNL     1      -2.262  49.369 -17.574  1.00  0.00     0.166 HD
HETATM   12  H8  UNL     1       1.878  53.509 -17.063  1.00  0.00     0.187 HD
ENDROOT
BRANCH   1  13
HETATM   13  N2  UNL     1      -1.491  49.890 -15.172  1.00  0.00    -0.295 N 
HETATM   14  C3  UNL     1      -1.845  50.576 -14.036  1.00  0.00     0.322 C 
HETATM   15  N1  UNL     1      -2.149  49.696 -13.015  1.00  0.00    -0.335 N 
HETATM   16  O1  UNL     1      -1.940  51.786 -13.894  1.00  0.00    -0.247 OA
HETATM   17  H5  UNL     1      -1.662  48.814 -13.029  1.00  0.00     0.165 HD
HETATM   18  H6  UNL     1      -1.801  48.935 -15.216  1.00  0.00     0.172 HD
BRANCH  15  19
HETATM   19  C2  UNL     1      -2.559  50.178 -11.706  1.00  0.00     0.115 C 
HETATM   20  C1  UNL     1      -1.535  49.801 -10.627  1.00  0.00     0.037 C 
BRANCH  19  21
HETATM   21  C20 UNL     1      -3.971  49.686 -11.425  1.00  0.00    -0.036 A 
HETATM   22  C21 UNL     1      -4.390  48.470 -11.999  1.00  0.00     0.012 A 
HETATM   23  C22 UNL     1      -5.672  47.972 -11.765  1.00  0.00     0.043 A 
HETATM   24  C23 UNL     1      -6.542  48.678 -10.946  1.00  0.00     0.116 A 
HETATM   25  F1  UNL     1      -7.776  48.204 -10.728  1.00  0.00    -0.206 F 
HETATM   26  C24 UNL     1      -6.149  49.870 -10.352  1.00  0.00     0.043 A 
HETATM   27  C25 UNL     1      -4.865  50.372 -10.584  1.00  0.00     0.012 A 
ENDBRANCH  19  21
ENDBRANCH  15  19
ENDBRANCH   1  13
BRANCH   7  28
HETATM   28  C8  UNL     1       0.413  52.453 -21.078  1.00  0.00     0.009 A 
HETATM   29  C9  UNL     1       1.014  53.424 -21.864  1.00  0.00     0.019 A 
HETATM   30  C10 UNL     1       0.861  53.382 -23.253  1.00  0.00     0.049 A 
HETATM   31  C11 UNL     1       0.094  52.383 -23.853  1.00  0.00     0.102 A 
HETATM   32  N6  UNL     1      -0.495  51.437 -23.087  1.00  0.00    -0.352 N 
HETATM   33  C17 UNL     1      -0.335  51.491 -21.740  1.00  0.00     0.103 A 
ATOM     34  H6  UNL     1      -1.050  50.696 -23.513  1.00  0.00     0.166 HD
BRANCH  31  35
HETATM   35  N5  UNL     1      -0.050  52.310 -25.234  1.00  0.00    -0.367 N 
HETATM   36  C12 UNL     1       0.001  53.576 -25.968  1.00  0.00     0.124 C 
HETATM   37  C13 UNL     1      -0.610  53.382 -27.353  1.00  0.00     0.020 C 
HETATM   38  C14 UNL     1       0.111  52.305 -28.161  1.00  0.00     0.003 C 
HETATM   39  C15 UNL     1       0.945  51.369 -27.294  1.00  0.00     0.020 C 
HETATM   40  C16 UNL     1       0.289  51.076 -25.946  1.00  0.00     0.124 C 
ENDBRANCH  31  35
ENDBRANCH   7  28
TORSDOF 5
ENDMDL
MODEL 7
REMARK minimizedAffinity -8.14635277
REMARK CNNscore 0.153797477
REMARK CNNaffinity 6.55517912
REMARK  5 active torsions:
REMARK  status: ('A' for Active; 'I' for Inactive)
REMARK    1  A    between atoms: C2_2  and  N1_3 
REMARK    2  A    between atoms: C2_2  and  C20_31 
REMARK       I    between atoms: N1_3  and  C3_4 
REMARK       I    between atoms: C3_4  and  N2_6 
REMARK    3  A    between atoms: N2_6  and  C4_7 
REMARK    4  A    between atoms: C7_13  and  C8_14 
REMARK    5  A    between atoms: C11_17  and  N5_18 
ROOT
HETATM    1  C4  UNL     1      -0.332  50.663 -20.279  1.00  0.00     0.111 A 
HETATM    2  C5  UNL     1       0.406  51.821 -20.033  1.00  0.00     0.080 A 
HETATM    3  C6  UNL     1       0.682  52.084 -18.691  1.00  0.00     0.065 A 
HETATM    4  N3  UNL     1       1.337  53.108 -18.073  1.00  0.00    -0.299 N 
HETATM    5  N4  UNL     1       1.378  53.010 -16.735  1.00  0.00    -0.299 N 
ATOM      6  H4  UNL     1       1.794  53.664 -16.072  1.00  0.00     0.187 HD
HETATM    7  C7  UNL     1       0.746  51.854 -16.467  1.00  0.00     0.073 A 
HETATM    8  C18 UNL     1       0.274  51.242 -17.665  1.00  0.00     0.036 A 
HETATM    9  C19 UNL     1      -0.453  50.100 -18.000  1.00  0.00     0.105 A 
HETATM   10  N7  UNL     1      -0.730  49.827 -19.301  1.00  0.00    -0.351 N 
ATOM     11  H7  UNL     1      -1.246  48.980 -19.540  1.00  0.00     0.166 HD
HETATM   12  H8  UNL     1       1.777  53.913 -18.502  1.00  0.00     0.187 HD
ENDROOT
BRANCH   1  13
HETATM   13  N2  UNL     1      -0.626  50.371 -21.618  1.00  0.00    -0.295 N 
HETATM   14  C3  UNL     1      -1.090  51.274 -22.543  1.00  0.00     0.322 C 
HETATM   15  N1  UNL     1      -1.381  50.637 -23.735  1.00  0.00    -0.335 N 
HETATM   16  O1  UNL     1      -1.211  52.483 -22.411  1.00  0.00    -0.247 OA
HETATM   17  H5  UNL     1      -1.679  49.678 -23.665  1.00  0.00     0.165 HD
HETATM   18  H6  UNL     1      -0.266  49.511 -21.994  1.00  0.00     0.172 HD
BRANCH  15  19
HETATM   19  C2  UNL     1      -1.886  51.380 -24.879  1.00  0.00     0.115 C 
HETATM   20  C1  UNL     1      -3.162  50.739 -25.440  1.00  0.00     0.037 C 
BRANCH  19  21
HETATM   21  C20 UNL     1      -0.765  51.534 -25.895  1.00  0.00    -0.036 A 
HETATM   22  C21 UNL     1       0.568  51.501 -25.441  1.00  0.00     0.012 A 
HETATM   23  C22 UNL     1       1.632  51.627 -26.334  1.00  0.00     0.043 A 
HETATM   24  C23 UNL     1       1.374  51.778 -27.689  1.00  0.00     0.116 A 
HETATM   25  F1  UNL     1       2.396  51.910 -28.546  1.00  0.00    -0.206 F 
HETATM   26  C24 UNL     1       0.071  51.796 -28.167  1.00  0.00     0.043 A 
HETATM   27  C25 UNL     1      -0.997  51.668 -27.275  1.00  0.00     0.012 A 
ENDBRANCH  19  21
ENDBRANCH  15  19
ENDBRANCH   1  13
BRANCH   7  28
HETATM   28  C8  UNL     1       0.606  51.381 -15.096  1.00  0.00     0.009 A 
HETATM   29  C9  UNL     1      -0.631  51.322 -14.473  1.00  0.00     0.019 A 
HETATM   30  C10 UNL     1      -0.724  50.840 -13.164  1.00  0.00     0.049 A 
HETATM   31  C11 UNL     1       0.419  50.435 -12.474  1.00  0.00     0.102 A 
HETATM   32  N6  UNL     1       1.626  50.495 -13.080  1.00  0.00    -0.352 N 
HETATM   33  C17 UNL     1       1.699  50.964 -14.351  1.00  0.00     0.103 A 
ATOM     34  H6  UNL     1       2.468  50.194 -12.590  1.00  0.00     0.166 HD
BRANCH  31  35
HETATM   35  N5  UNL     1       0.344  49.929 -11.181  1.00  0.00    -0.367 N 
HETATM   36  C12 UNL     1       0.034  48.505 -11.050  1.00  0.00     0.124 C 
HETATM   37  C13 UNL     1      -0.450  48.221  -9.630  1.00  0.00     0.020 C 
HETATM   38  C14 UNL     1       0.584  48.609  -8.574  1.00  0.00     0.003 C 
HETATM   39  C15 UNL     1       1.635  49.579  -9.101  1.00  0.00     0.020 C 
HETATM   40  C16 UNL     1       1.058  50.592 -10.088  1.00  0.00     0.124 C 
ENDBRANCH  31  35
ENDBRANCH   7  28
TORSDOF 5
ENDMDL
MODEL 8
REMARK minimizedAffinity -9.13704681
REMARK CNNscore 0.123957358
REMARK CNNaffinity 6.31623793
REMARK  5 active torsions:
REMARK  status: ('A' for Active; 'I' for Inactive)
REMARK    1  A    between atoms: C2_2  and  N1_3 
REMARK    2  A    between atoms: C2_2  and  C20_31 
REMARK       I    between atoms: N1_3  and  C3_4 
REMARK       I    between atoms: C3_4  and  N2_6 
REMARK    3  A    between atoms: N2_6  and  C4_7 
REMARK    4  A    between atoms: C7_13  and  C8_14 
REMARK    5  A    between atoms: C11_17  and  N5_18 
ROOT
HETATM    1  C4  UNL     1      -4.861  51.064 -23.279  1.00  0.00     0.111 A 
HETATM    2  C5  UNL     1      -3.800  51.519 -24.062  1.00  0.00     0.080 A 
HETATM    3  C6  UNL     1      -2.624  51.807 -23.371  1.00  0.00     0.065 A 
HETATM    4  N3  UNL     1      -1.414  52.287 -23.779  1.00  0.00    -0.299 N 
HETATM    5  N4  UNL     1      -0.522  52.451 -22.790  1.00  0.00    -0.299 N 
ATOM      6  H4  UNL     1       0.430  52.812 -22.860  1.00  0.00     0.187 HD
HETATM    7  C7  UNL     1      -1.167  52.032 -21.688  1.00  0.00     0.073 A 
HETATM    8  C18 UNL     1      -2.500  51.633 -21.999  1.00  0.00     0.036 A 
HETATM    9  C19 UNL     1      -3.608  51.165 -21.293  1.00  0.00     0.105 A 
HETATM   10  N7  UNL     1      -4.762  50.878 -21.949  1.00  0.00    -0.351 N 
ATOM     11  H7  UNL     1      -5.562  50.519 -21.429  1.00  0.00     0.166 HD
HETATM   12  H8  UNL     1      -1.128  52.531 -24.720  1.00  0.00     0.187 HD
ENDROOT
BRANCH   1  13
HETATM   13  N2  UNL     1      -6.058  50.766 -23.945  1.00  0.00    -0.295 N 
HETATM   14  C3  UNL     1      -6.785  49.611 -23.791  1.00  0.00     0.322 C 
HETATM   15  N1  UNL     1      -7.850  49.589 -24.672  1.00  0.00    -0.335 N 
HETATM   16  O1  UNL     1      -6.599  48.714 -22.982  1.00  0.00    -0.247 OA
HETATM   17  H5  UNL     1      -7.714  50.074 -25.544  1.00  0.00     0.165 HD
HETATM   18  H6  UNL     1      -6.541  51.526 -24.390  1.00  0.00     0.172 HD
BRANCH  15  19
HETATM   19  C2  UNL     1      -8.777  48.469 -24.702  1.00  0.00     0.115 C 
HETATM   20  C1  UNL     1      -8.648  47.606 -23.439  1.00  0.00     0.037 C 
BRANCH  19  21
HETATM   21  C20 UNL     1      -8.581  47.706 -26.003  1.00  0.00    -0.036 A 
HETATM   22  C21 UNL     1      -8.036  46.409 -25.950  1.00  0.00     0.012 A 
HETATM   23  C22 UNL     1      -7.845  45.664 -27.114  1.00  0.00     0.043 A 
HETATM   24  C23 UNL     1      -8.206  46.206 -28.340  1.00  0.00     0.116 A 
HETATM   25  F1  UNL     1      -8.014  45.495 -29.460  1.00  0.00    -0.206 F 
HETATM   26  C24 UNL     1      -8.762  47.476 -28.420  1.00  0.00     0.043 A 
HETATM   27  C25 UNL     1      -8.956  48.223 -27.255  1.00  0.00     0.012 A 
ENDBRANCH  19  21
ENDBRANCH  15  19
ENDBRANCH   1  13
BRANCH   7  28
HETATM   28  C8  UNL     1      -0.505  52.034 -20.391  1.00  0.00     0.009 A 
HETATM   29  C9  UNL     1      -0.668  50.991 -19.492  1.00  0.00     0.019 A 
HETATM   30  C10 UNL     1       0.004  51.022 -18.267  1.00  0.00     0.049 A 
HETATM   31  C11 UNL     1       0.822  52.102 -17.932  1.00  0.00     0.102 A 
HETATM   32  N6  UNL     1       0.978  53.121 -18.807  1.00  0.00    -0.352 N 
HETATM   33  C17 UNL     1       0.321  53.075 -19.993  1.00  0.00     0.103 A 
ATOM     34  H6  UNL     1       1.580  53.913 -18.579  1.00  0.00     0.166 HD
BRANCH  31  35
HETATM   35  N5  UNL     1       1.517  52.140 -16.729  1.00  0.00    -0.367 N 
HETATM   36  C12 UNL     1       1.259  51.050 -15.787  1.00  0.00     0.124 C 
HETATM   37  C13 UNL     1       1.723  51.465 -14.393  1.00  0.00     0.020 C 
HETATM   38  C14 UNL     1       3.208  51.820 -14.356  1.00  0.00     0.003 C 
HETATM   39  C15 UNL     1       3.782  52.122 -15.736  1.00  0.00     0.020 C 
HETATM   40  C16 UNL     1       2.790  52.857 -16.636  1.00  0.00     0.124 C 
ENDBRANCH  31  35
ENDBRANCH   7  28
TORSDOF 5
ENDMDL
MODEL 9
REMARK minimizedAffinity -8.6979847
REMARK CNNscore 0.115495317
REMARK CNNaffinity 6.69812584
REMARK  5 active torsions:
REMARK  status: ('A' for Active; 'I' for Inactive)
REMARK    1  A    between atoms: C2_2  and  N1_3 
REMARK    2  A    between atoms: C2_2  and  C20_31 
REMARK       I    between atoms: N1_3  and  C3_4 
REMARK       I    between atoms: C3_4  and  N2_6 
REMARK    3  A    between atoms: N2_6  and  C4_7 
REMARK    4  A    between atoms: C7_13  and  C8_14 
REMARK    5  A    between atoms: C11_17  and  N5_18 
ROOT
HETATM    1  C4  UNL     1      -0.637  50.291 -20.223  1.00  0.00     0.111 A 
HETATM    2  C5  UNL     1      -0.121  51.201 -21.145  1.00  0.00     0.080 A 
HETATM    3  C6  UNL     1      -0.641  51.110 -22.436  1.00  0.00     0.065 A 
HETATM    4  N3  UNL     1      -0.371  51.794 -23.585  1.00  0.00    -0.299 N 
HETATM    5  N4  UNL     1      -1.085  51.392 -24.648  1.00  0.00    -0.299 N 
ATOM      6  H4  UNL     1      -1.035  51.744 -25.604  1.00  0.00     0.187 HD
HETATM    7  C7  UNL     1      -1.879  50.420 -24.168  1.00  0.00     0.073 A 
HETATM    8  C18 UNL     1      -1.625  50.193 -22.782  1.00  0.00     0.036 A 
HETATM    9  C19 UNL     1      -2.092  49.324 -21.796  1.00  0.00     0.105 A 
HETATM   10  N7  UNL     1      -1.597  49.399 -20.534  1.00  0.00    -0.351 N 
ATOM     11  H7  UNL     1      -1.957  48.773 -19.813  1.00  0.00     0.166 HD
HETATM   12  H8  UNL     1       0.294  52.546 -23.718  1.00  0.00     0.187 HD
ENDROOT
BRANCH   1  13
HETATM   13  N2  UNL     1      -0.133  50.357 -18.917  1.00  0.00    -0.295 N 
HETATM   14  C3  UNL     1       0.217  51.510 -18.259  1.00  0.00     0.322 C 
HETATM   15  N1  UNL     1       0.779  51.215 -17.032  1.00  0.00    -0.335 N 
HETATM   16  O1  UNL     1       0.044  52.662 -18.629  1.00  0.00    -0.247 OA
HETATM   17  H5  UNL     1       1.277  50.341 -16.970  1.00  0.00     0.165 HD
HETATM   18  H6  UNL     1      -0.244  49.543 -18.337  1.00  0.00     0.172 HD
BRANCH  15  19
HETATM   19  C2  UNL     1       1.230  52.270 -16.138  1.00  0.00     0.115 C 
HETATM   20  C1  UNL     1       2.685  52.662 -16.428  1.00  0.00     0.037 C 
BRANCH  19  21
HETATM   21  C20 UNL     1       0.972  51.838 -14.702  1.00  0.00    -0.036 A 
HETATM   22  C21 UNL     1       2.071  51.691 -13.834  1.00  0.00     0.012 A 
HETATM   23  C22 UNL     1       1.888  51.307 -12.506  1.00  0.00     0.043 A 
HETATM   24  C23 UNL     1       0.604  51.075 -12.031  1.00  0.00     0.116 A 
HETATM   25  F1  UNL     1       0.428  50.697 -10.758  1.00  0.00    -0.206 F 
HETATM   26  C24 UNL     1      -0.499  51.230 -12.860  1.00  0.00     0.043 A 
HETATM   27  C25 UNL     1      -0.318  51.617 -14.191  1.00  0.00     0.012 A 
ENDBRANCH  19  21
ENDBRANCH  15  19
ENDBRANCH   1  13
BRANCH   7  28
HETATM   28  C8  UNL     1      -2.834  49.741 -25.033  1.00  0.00     0.009 A 
HETATM   29  C9  UNL     1      -2.426  49.066 -26.173  1.00  0.00     0.019 A 
HETATM   30  C10 UNL     1      -3.373  48.407 -26.963  1.00  0.00     0.049 A 
HETATM   31  C11 UNL     1      -4.727  48.440 -26.624  1.00  0.00     0.102 A 
HETATM   32  N6  UNL     1      -5.125  49.101 -25.514  1.00  0.00    -0.352 N 
HETATM   33  C17 UNL     1      -4.193  49.733 -24.757  1.00  0.00     0.103 A 
ATOM     34  H6  UNL     1      -6.109  49.124 -25.249  1.00  0.00     0.166 HD
BRANCH  31  35
HETATM   35  N5  UNL     1      -5.680  47.771 -27.382  1.00  0.00    -0.367 N 
HETATM   36  C12 UNL     1      -6.958  47.485 -26.728  1.00  0.00     0.124 C 
HETATM   37  C13 UNL     1      -7.688  46.389 -27.500  1.00  0.00     0.020 C 
HETATM   38  C14 UNL     1      -7.945  46.775 -28.956  1.00  0.00     0.003 C 
HETATM   39  C15 UNL     1      -7.054  47.916 -29.434  1.00  0.00     0.020 C 
HETATM   40  C16 UNL     1      -5.647  47.849 -28.844  1.00  0.00     0.124 C 
ENDBRANCH  31  35
ENDBRANCH   7  28
TORSDOF 5
ENDMDL
