MODEL 1
REMARK minimizedAffinity -8.87169075
REMARK CNNscore 0.487320334
REMARK CNNaffinity 6.12929773
REMARK  7 active torsions:
REMARK  status: ('A' for Active; 'I' for Inactive)
REMARK       I    between atoms: C1_2  and  N1_3 
REMARK    1  A    between atoms: C1_2  and  C8_12 
REMARK    2  A    between atoms: N1_3  and  C2_4 
REMARK    3  A    between atoms: C5_7  and  O2_8 
REMARK    4  A    between atoms: N2_15  and  C11_16 
REMARK    5  A    between atoms: C11_16  and  C12_17 
REMARK       I    between atoms: C12_17  and  N3_19 
REMARK    6  A    between atoms: N4_22  and  C15_23 
REMARK    7  A    between atoms: C18_26  and  C19_27 
ROOT
HETATM    1  C12 UNL     1      -7.896  47.600 -32.255  1.00  0.00     0.248 C 
HETATM    2  O3  UNL     1      -7.381  47.751 -33.369  1.00  0.00    -0.271 OA
HETATM    3  N3  UNL     1      -7.138  47.616 -31.093  1.00  0.00    -0.348 N 
HETATM    4  C13 UNL     1      -7.692  47.514 -29.737  1.00  0.00     0.145 C 
HETATM    5  C14 UNL     1      -6.663  47.046 -28.689  1.00  0.00     0.143 C 
HETATM    6  N4  UNL     1      -5.440  47.871 -28.701  1.00  0.00    -0.378 N 
HETATM    7  C25 UNL     1      -5.141  48.605 -29.944  1.00  0.00     0.143 C 
HETATM    8  C26 UNL     1      -5.701  47.878 -31.181  1.00  0.00     0.145 C 
ENDROOT
BRANCH   1   9
HETATM    9  C11 UNL     1      -9.413  47.371 -32.144  1.00  0.00     0.374 C 
BRANCH   9  10
HETATM   10  N2  UNL     1      -9.872  46.290 -33.049  1.00  0.00     0.098 N 
HETATM   11  C10 UNL     1      -8.974  45.126 -33.018  1.00  0.00     0.274 C 
HETATM   12  C9  UNL     1      -9.426  44.296 -31.831  1.00  0.00     0.046 C 
HETATM   13  C8  UNL     1     -10.938  44.497 -31.801  1.00  0.00     0.108 C 
HETATM   14  C27 UNL     1     -11.184  45.776 -32.605  1.00  0.00     0.287 C 
BRANCH  13  15
HETATM   15  C1  UNL     1     -11.475  44.555 -30.375  1.00  0.00     0.228 C 
HETATM   16  O1  UNL     1     -11.321  43.635 -29.582  1.00  0.00    -0.273 OA
HETATM   17  N1  UNL     1     -12.118  45.759 -30.118  1.00  0.00    -0.327 N 
HETATM   18  H1  UNL     1     -12.114  46.441 -30.867  1.00  0.00     0.169 HD
BRANCH  17  19
HETATM   19  C2  UNL     1     -12.729  46.171 -28.915  1.00  0.00     0.036 A 
HETATM   20  C3  UNL     1     -12.159  47.085 -28.023  1.00  0.00     0.032 A 
HETATM   21  C4  UNL     1     -12.833  47.452 -26.851  1.00  0.00     0.040 A 
HETATM   22  C5  UNL     1     -14.074  46.899 -26.566  1.00  0.00     0.087 A 
HETATM   23  C6  UNL     1     -14.649  45.981 -27.444  1.00  0.00     0.069 A 
HETATM   24 CL1  UNL     1     -16.184  45.277 -27.091  1.00  0.00    -0.081 Cl
HETATM   25  C7  UNL     1     -13.979  45.614 -28.611  1.00  0.00     0.056 A 
BRANCH  22  26
HETATM   26  O2  UNL     1     -14.693  47.294 -25.413  1.00  0.00    -0.359 OA
HETATM   27  H4  UNL     1     -15.541  46.813 -25.358  1.00  0.00     0.217 HD
ENDBRANCH  22  26
ENDBRANCH  17  19
ENDBRANCH  13  15
ENDBRANCH   9  10
ENDBRANCH   1   9
BRANCH   6  28
HETATM   28  C15 UNL     1      -4.764  48.143 -27.520  1.00  0.00     0.030 A 
HETATM   29  C16 UNL     1      -5.428  48.207 -26.287  1.00  0.00     0.030 A 
HETATM   30  C17 UNL     1      -4.755  48.493 -25.088  1.00  0.00     0.017 A 
HETATM   31  C18 UNL     1      -3.372  48.722 -25.056  1.00  0.00     0.008 A 
HETATM   32  C23 UNL     1      -2.700  48.639 -26.284  1.00  0.00     0.017 A 
HETATM   33  C24 UNL     1      -3.380  48.355 -27.481  1.00  0.00     0.030 A 
BRANCH  31  34
HETATM   34  C19 UNL     1      -2.662  49.030 -23.799  1.00  0.00     0.115 A 
HETATM   35  N5  UNL     1      -1.966  50.189 -23.733  1.00  0.00    -0.349 N 
HETATM   36  C20 UNL     1      -1.319  50.441 -22.572  1.00  0.00     0.133 A 
ATOM     37  H5  UNL     1      -1.932  50.840 -24.518  1.00  0.00     0.167 HD
HETATM   38  C21 UNL     1      -1.343  49.591 -21.497  1.00  0.00     0.147 A 
HETATM   39  F1  UNL     1      -0.694  49.868 -20.361  1.00  0.00    -0.203 F 
HETATM   40  C22 UNL     1      -2.074  48.442 -21.654  1.00  0.00     0.133 A 
HETATM   41  N6  UNL     1      -2.741  48.135 -22.788  1.00  0.00    -0.349 N 
ATOM     42  H6  UNL     1      -3.277  47.272 -22.877  1.00  0.00     0.167 HD
ENDBRANCH  31  34
ENDBRANCH   6  28
TORSDOF 7
ENDMDL
MODEL 2
REMARK minimizedAffinity -8.30041313
REMARK CNNscore 0.442314982
REMARK CNNaffinity 6.24312735
REMARK  7 active torsions:
REMARK  status: ('A' for Active; 'I' for Inactive)
REMARK       I    between atoms: C1_2  and  N1_3 
REMARK    1  A    between atoms: C1_2  and  C8_12 
REMARK    2  A    between atoms: N1_3  and  C2_4 
REMARK    3  A    between atoms: C5_7  and  O2_8 
REMARK    4  A    between atoms: N2_15  and  C11_16 
REMARK    5  A    between atoms: C11_16  and  C12_17 
REMARK       I    between atoms: C12_17  and  N3_19 
REMARK    6  A    between atoms: N4_22  and  C15_23 
REMARK    7  A    between atoms: C18_26  and  C19_27 
ROOT
HETATM    1  C12 UNL     1      -7.098  48.499 -19.243  1.00  0.00     0.248 C 
HETATM    2  O3  UNL     1      -6.871  48.551 -18.029  1.00  0.00    -0.271 OA
HETATM    3  N3  UNL     1      -8.321  48.070 -19.739  1.00  0.00    -0.348 N 
HETATM    4  C13 UNL     1      -8.681  48.051 -21.162  1.00  0.00     0.145 C 
HETATM    5  C14 UNL     1      -9.838  47.086 -21.488  1.00  0.00     0.143 C 
HETATM    6  N4  UNL     1     -11.024  47.333 -20.645  1.00  0.00    -0.378 N 
HETATM    7  C25 UNL     1     -10.798  48.016 -19.358  1.00  0.00     0.143 C 
HETATM    8  C26 UNL     1      -9.392  47.728 -18.801  1.00  0.00     0.145 C 
ENDROOT
BRANCH   1   9
HETATM    9  C11 UNL     1      -5.998  48.901 -20.240  1.00  0.00     0.374 C 
BRANCH   9  10
HETATM   10  N2  UNL     1      -5.032  47.798 -20.464  1.00  0.00     0.098 N 
HETATM   11  C10 UNL     1      -5.129  47.248 -21.824  1.00  0.00     0.274 C 
HETATM   12  C9  UNL     1      -4.269  48.149 -22.690  1.00  0.00     0.046 C 
HETATM   13  C8  UNL     1      -3.125  48.555 -21.766  1.00  0.00     0.108 C 
HETATM   14  C27 UNL     1      -3.648  48.301 -20.350  1.00  0.00     0.287 C 
BRANCH  13  15
HETATM   15  C1  UNL     1      -2.683  49.995 -22.009  1.00  0.00     0.228 C 
HETATM   16  O1  UNL     1      -3.344  50.953 -21.627  1.00  0.00    -0.273 OA
HETATM   17  N1  UNL     1      -1.468  50.053 -22.678  1.00  0.00    -0.327 N 
HETATM   18  H1  UNL     1      -1.020  49.166 -22.878  1.00  0.00     0.169 HD
BRANCH  17  19
HETATM   19  C2  UNL     1      -0.749  51.204 -23.064  1.00  0.00     0.036 A 
HETATM   20  C3  UNL     1      -0.702  51.692 -24.374  1.00  0.00     0.032 A 
HETATM   21  C4  UNL     1       0.028  52.848 -24.678  1.00  0.00     0.040 A 
HETATM   22  C5  UNL     1       0.717  53.514 -23.675  1.00  0.00     0.087 A 
HETATM   23  C6  UNL     1       0.684  53.033 -22.365  1.00  0.00     0.069 A 
HETATM   24 CL1  UNL     1       1.550  53.845 -21.114  1.00  0.00    -0.081 Cl
HETATM   25  C7  UNL     1      -0.042  51.881 -22.061  1.00  0.00     0.056 A 
BRANCH  22  26
HETATM   26  O2  UNL     1       1.409  54.641 -24.021  1.00  0.00    -0.359 OA
HETATM   27  H4  UNL     1       1.838  54.980 -23.213  1.00  0.00     0.217 HD
ENDBRANCH  22  26
ENDBRANCH  17  19
ENDBRANCH  13  15
ENDBRANCH   9  10
ENDBRANCH   1   9
BRANCH   6  28
HETATM   28  C15 UNL     1     -12.301  47.168 -21.161  1.00  0.00     0.030 A 
HETATM   29  C16 UNL     1     -12.558  46.292 -22.226  1.00  0.00     0.030 A 
HETATM   30  C17 UNL     1     -13.845  46.126 -22.764  1.00  0.00     0.017 A 
HETATM   31  C18 UNL     1     -14.951  46.823 -22.256  1.00  0.00     0.008 A 
HETATM   32  C23 UNL     1     -14.702  47.685 -21.179  1.00  0.00     0.017 A 
HETATM   33  C24 UNL     1     -13.412  47.848 -20.647  1.00  0.00     0.030 A 
BRANCH  31  34
HETATM   34  C19 UNL     1     -16.304  46.657 -22.824  1.00  0.00     0.115 A 
HETATM   35  N5  UNL     1     -16.484  46.958 -24.131  1.00  0.00    -0.349 N 
HETATM   36  C20 UNL     1     -17.734  46.805 -24.622  1.00  0.00     0.133 A 
ATOM     37  H5  UNL     1     -15.715  47.284 -24.717  1.00  0.00     0.167 HD
HETATM   38  C21 UNL     1     -18.792  46.370 -23.865  1.00  0.00     0.147 A 
HETATM   39  F1  UNL     1     -20.018  46.227 -24.377  1.00  0.00    -0.203 F 
HETATM   40  C22 UNL     1     -18.517  46.087 -22.552  1.00  0.00     0.133 A 
HETATM   41  N6  UNL     1     -17.288  46.221 -22.005  1.00  0.00    -0.349 N 
ATOM     42  H6  UNL     1     -17.112  46.003 -21.025  1.00  0.00     0.167 HD
ENDBRANCH  31  34
ENDBRANCH   6  28
TORSDOF 7
ENDMDL
MODEL 3
REMARK minimizedAffinity -8.39206696
REMARK CNNscore 0.426767379
REMARK CNNaffinity 6.09164667
REMARK  7 active torsions:
REMARK  status: ('A' for Active; 'I' for Inactive)
REMARK       I    between atoms: C1_2  and  N1_3 
REMARK    1  A    between atoms: C1_2  and  C8_12 
REMARK    2  A    between atoms: N1_3  and  C2_4 
REMARK    3  A    between atoms: C5_7  and  O2_8 
REMARK    4  A    between atoms: N2_15  and  C11_16 
REMARK    5  A    between atoms: C11_16  and  C12_17 
REMARK       I    between atoms: C12_17  and  N3_19 
REMARK    6  A    between atoms: N4_22  and  C15_23 
REMARK    7  A    between atoms: C18_26  and  C19_27 
ROOT
HETATM    1  C12 UNL     1      -8.030  46.689 -31.132  1.00  0.00     0.248 C 
HETATM    2  O3  UNL     1      -7.776  46.509 -32.328  1.00  0.00    -0.271 OA
HETATM    3  N3  UNL     1      -7.058  47.110 -30.235  1.00  0.00    -0.348 N 
HETATM    4  C13 UNL     1      -7.306  47.411 -28.819  1.00  0.00     0.145 C 
HETATM    5  C14 UNL     1      -6.035  47.352 -27.950  1.00  0.00     0.143 C 
HETATM    6  N4  UNL     1      -4.951  48.196 -28.488  1.00  0.00    -0.378 N 
HETATM    7  C25 UNL     1      -5.006  48.516 -29.926  1.00  0.00     0.143 C 
HETATM    8  C26 UNL     1      -5.712  47.408 -30.728  1.00  0.00     0.145 C 
ENDROOT
BRANCH   1   9
HETATM    9  C11 UNL     1      -9.452  46.426 -30.608  1.00  0.00     0.374 C 
BRANCH   9  10
HETATM   10  N2  UNL     1      -9.916  45.058 -30.945  1.00  0.00     0.098 N 
HETATM   11  C10 UNL     1      -9.543  44.079 -29.914  1.00  0.00     0.274 C 
HETATM   12  C9  UNL     1     -10.631  44.165 -28.860  1.00  0.00     0.046 C 
HETATM   13  C8  UNL     1     -11.893  44.462 -29.663  1.00  0.00     0.108 C 
HETATM   14  C27 UNL     1     -11.392  45.019 -30.998  1.00  0.00     0.287 C 
BRANCH  13  15
HETATM   15  C1  UNL     1     -12.831  45.406 -28.918  1.00  0.00     0.228 C 
HETATM   16  O1  UNL     1     -12.946  46.586 -29.223  1.00  0.00    -0.273 OA
HETATM   17  N1  UNL     1     -13.517  44.753 -27.903  1.00  0.00    -0.327 N 
HETATM   18  H1  UNL     1     -13.348  43.758 -27.812  1.00  0.00     0.169 HD
BRANCH  17  19
HETATM   19  C2  UNL     1     -14.468  45.297 -27.014  1.00  0.00     0.036 A 
HETATM   20  C3  UNL     1     -14.144  46.126 -25.936  1.00  0.00     0.032 A 
HETATM   21  C4  UNL     1     -15.147  46.635 -25.101  1.00  0.00     0.040 A 
HETATM   22  C5  UNL     1     -16.475  46.309 -25.340  1.00  0.00     0.087 A 
HETATM   23  C6  UNL     1     -16.811  45.477 -26.408  1.00  0.00     0.069 A 
HETATM   24 CL1  UNL     1     -18.456  45.053 -26.703  1.00  0.00    -0.081 Cl
HETATM   25  C7  UNL     1     -15.812  44.968 -27.239  1.00  0.00     0.056 A 
BRANCH  22  26
HETATM   26  O2  UNL     1     -17.418  46.835 -24.501  1.00  0.00    -0.359 OA
HETATM   27  H4  UNL     1     -18.287  46.507 -24.797  1.00  0.00     0.217 HD
ENDBRANCH  22  26
ENDBRANCH  17  19
ENDBRANCH  13  15
ENDBRANCH   9  10
ENDBRANCH   1   9
BRANCH   6  28
HETATM   28  C15 UNL     1      -4.086  48.861 -27.632  1.00  0.00     0.030 A 
HETATM   29  C16 UNL     1      -3.780  48.362 -26.358  1.00  0.00     0.030 A 
HETATM   30  C17 UNL     1      -2.915  49.033 -25.478  1.00  0.00     0.017 A 
HETATM   31  C18 UNL     1      -2.298  50.242 -25.832  1.00  0.00     0.008 A 
HETATM   32  C23 UNL     1      -2.586  50.736 -27.113  1.00  0.00     0.017 A 
HETATM   33  C24 UNL     1      -3.454  50.060 -27.987  1.00  0.00     0.030 A 
BRANCH  31  34
HETATM   34  C19 UNL     1      -1.395  50.955 -24.908  1.00  0.00     0.115 A 
HETATM   35  N5  UNL     1      -1.744  51.018 -23.602  1.00  0.00    -0.349 N 
HETATM   36  C20 UNL     1      -0.902  51.684 -22.780  1.00  0.00     0.133 A 
ATOM     37  H5  UNL     1      -2.600  50.584 -23.255  1.00  0.00     0.167 HD
HETATM   38  C21 UNL     1       0.256  52.280 -23.211  1.00  0.00     0.147 A 
HETATM   39  F1  UNL     1       1.070  52.932 -22.375  1.00  0.00    -0.203 F 
HETATM   40  C22 UNL     1       0.531  52.164 -24.549  1.00  0.00     0.133 A 
HETATM   41  N6  UNL     1      -0.272  51.511 -25.418  1.00  0.00    -0.349 N 
ATOM     42  H6  UNL     1      -0.043  51.441 -26.410  1.00  0.00     0.167 HD
ENDBRANCH  31  34
ENDBRANCH   6  28
TORSDOF 7
ENDMDL
MODEL 4
REMARK minimizedAffinity -9.45648861
REMARK CNNscore 0.349295467
REMARK CNNaffinity 7.59614944
REMARK  7 active torsions:
REMARK  status: ('A' for Active; 'I' for Inactive)
REMARK       I    between atoms: C1_2  and  N1_3 
REMARK    1  A    between atoms: C1_2  and  C8_12 
REMARK    2  A    between atoms: N1_3  and  C2_4 
REMARK    3  A    between atoms: C5_7  and  O2_8 
REMARK    4  A    between atoms: N2_15  and  C11_16 
REMARK    5  A    between atoms: C11_16  and  C12_17 
REMARK       I    between atoms: C12_17  and  N3_19 
REMARK    6  A    between atoms: N4_22  and  C15_23 
REMARK    7  A    between atoms: C18_26  and  C19_27 
ROOT
HETATM    1  C12 UNL     1      -5.933  49.827 -22.714  1.00  0.00     0.248 C 
HETATM    2  O3  UNL     1      -7.108  49.529 -22.471  1.00  0.00    -0.271 OA
HETATM    3  N3  UNL     1      -5.045  50.174 -21.706  1.00  0.00    -0.348 N 
HETATM    4  C13 UNL     1      -3.622  50.469 -21.915  1.00  0.00     0.145 C 
HETATM    5  C14 UNL     1      -2.996  51.301 -20.779  1.00  0.00     0.143 C 
HETATM    6  N4  UNL     1      -3.220  50.692 -19.453  1.00  0.00    -0.378 N 
HETATM    7  C25 UNL     1      -4.364  49.770 -19.327  1.00  0.00     0.143 C 
HETATM    8  C26 UNL     1      -5.492  50.126 -20.312  1.00  0.00     0.145 C 
ENDROOT
BRANCH   1   9
HETATM    9  C11 UNL     1      -5.436  49.835 -24.169  1.00  0.00     0.374 C 
BRANCH   9  10
HETATM   10  N2  UNL     1      -4.887  48.516 -24.568  1.00  0.00     0.098 N 
HETATM   11  C10 UNL     1      -5.243  48.165 -25.951  1.00  0.00     0.274 C 
HETATM   12  C9  UNL     1      -4.200  48.840 -26.822  1.00  0.00     0.046 C 
HETATM   13  C8  UNL     1      -2.928  48.775 -25.983  1.00  0.00     0.108 C 
HETATM   14  C27 UNL     1      -3.410  48.552 -24.547  1.00  0.00     0.287 C 
BRANCH  13  15
HETATM   15  C1  UNL     1      -2.070  50.024 -26.155  1.00  0.00     0.228 C 
HETATM   16  O1  UNL     1      -1.835  50.508 -27.255  1.00  0.00    -0.273 OA
HETATM   17  N1  UNL     1      -1.632  50.518 -24.933  1.00  0.00    -0.327 N 
HETATM   18  H1  UNL     1      -1.959  50.031 -24.107  1.00  0.00     0.169 HD
BRANCH  17  19
HETATM   19  C2  UNL     1      -0.830  51.655 -24.699  1.00  0.00     0.036 A 
HETATM   20  C3  UNL     1      -0.554  52.628 -25.665  1.00  0.00     0.032 A 
HETATM   21  C4  UNL     1       0.245  53.735 -25.353  1.00  0.00     0.040 A 
HETATM   22  C5  UNL     1       0.777  53.866 -24.078  1.00  0.00     0.087 A 
HETATM   23  C6  UNL     1       0.516  52.898 -23.108  1.00  0.00     0.069 A 
HETATM   24 CL1  UNL     1       1.184  53.043 -21.525  1.00  0.00    -0.081 Cl
HETATM   25  C7  UNL     1      -0.280  51.794 -23.417  1.00  0.00     0.056 A 
BRANCH  22  26
HETATM   26  O2  UNL     1       1.546  54.967 -23.821  1.00  0.00    -0.359 OA
HETATM   27  H4  UNL     1       1.845  54.904 -22.895  1.00  0.00     0.217 HD
ENDBRANCH  22  26
ENDBRANCH  17  19
ENDBRANCH  13  15
ENDBRANCH   9  10
ENDBRANCH   1   9
BRANCH   6  28
HETATM   28  C15 UNL     1      -2.251  50.782 -18.465  1.00  0.00     0.030 A 
HETATM   29  C16 UNL     1      -2.553  50.565 -17.113  1.00  0.00     0.030 A 
HETATM   30  C17 UNL     1      -1.582  50.666 -16.103  1.00  0.00     0.017 A 
HETATM   31  C18 UNL     1      -0.246  50.979 -16.395  1.00  0.00     0.008 A 
HETATM   32  C23 UNL     1       0.065  51.177 -17.748  1.00  0.00     0.017 A 
HETATM   33  C24 UNL     1      -0.913  51.078 -18.753  1.00  0.00     0.030 A 
BRANCH  31  34
HETATM   34  C19 UNL     1       0.776  51.093 -15.336  1.00  0.00     0.115 A 
HETATM   35  N5  UNL     1       0.440  50.701 -14.086  1.00  0.00    -0.349 N 
HETATM   36  C20 UNL     1       1.393  50.824 -13.135  1.00  0.00     0.133 A 
ATOM     37  H5  UNL     1      -0.486  50.330 -13.871  1.00  0.00     0.167 HD
HETATM   38  C21 UNL     1       2.648  51.318 -13.386  1.00  0.00     0.147 A 
HETATM   39  F1  UNL     1       3.571  51.427 -12.426  1.00  0.00    -0.203 F 
HETATM   40  C22 UNL     1       2.901  51.689 -14.682  1.00  0.00     0.133 A 
HETATM   41  N6  UNL     1       1.989  51.589 -15.674  1.00  0.00    -0.349 N 
ATOM     42  H6  UNL     1       2.204  51.873 -16.630  1.00  0.00     0.167 HD
ENDBRANCH  31  34
ENDBRANCH   6  28
TORSDOF 7
ENDMDL
MODEL 5
REMARK minimizedAffinity -8.26841164
REMARK CNNscore 0.280299187
REMARK CNNaffinity 6.03048134
REMARK  7 active torsions:
REMARK  status: ('A' for Active; 'I' for Inactive)
REMARK       I    between atoms: C1_2  and  N1_3 
REMARK    1  A    between atoms: C1_2  and  C8_12 
REMARK    2  A    between atoms: N1_3  and  C2_4 
REMARK    3  A    between atoms: C5_7  and  O2_8 
REMARK    4  A    between atoms: N2_15  and  C11_16 
REMARK    5  A    between atoms: C11_16  and  C12_17 
REMARK       I    between atoms: C12_17  and  N3_19 
REMARK    6  A    between atoms: N4_22  and  C15_23 
REMARK    7  A    between atoms: C18_26  and  C19_27 
ROOT
HETATM    1  C12 UNL     1      -5.916  48.715 -19.231  1.00  0.00     0.248 C 
HETATM    2  O3  UNL     1      -5.505  48.859 -18.075  1.00  0.00    -0.271 OA
HETATM    3  N3  UNL     1      -7.202  48.267 -19.499  1.00  0.00    -0.348 N 
HETATM    4  C13 UNL     1      -7.777  48.141 -20.844  1.00  0.00     0.145 C 
HETATM    5  C14 UNL     1      -8.972  47.172 -20.911  1.00  0.00     0.143 C 
HETATM    6  N4  UNL     1     -10.014  47.501 -19.918  1.00  0.00    -0.378 N 
HETATM    7  C25 UNL     1      -9.591  48.279 -18.740  1.00  0.00     0.143 C 
HETATM    8  C26 UNL     1      -8.117  48.015 -18.384  1.00  0.00     0.145 C 
ENDROOT
BRANCH   1   9
HETATM    9  C11 UNL     1      -4.981  49.022 -20.414  1.00  0.00     0.374 C 
BRANCH   9  10
HETATM   10  N2  UNL     1      -4.483  47.781 -21.055  1.00  0.00     0.098 N 
HETATM   11  C10 UNL     1      -4.697  47.786 -22.509  1.00  0.00     0.274 C 
HETATM   12  C9  UNL     1      -3.514  48.537 -23.091  1.00  0.00     0.046 C 
HETATM   13  C8  UNL     1      -2.358  48.163 -22.170  1.00  0.00     0.108 C 
HETATM   14  C27 UNL     1      -3.020  47.670 -20.881  1.00  0.00     0.287 C 
BRANCH  13  15
HETATM   15  C1  UNL     1      -1.400  49.331 -21.959  1.00  0.00     0.228 C 
HETATM   16  O1  UNL     1      -0.699  49.428 -20.959  1.00  0.00    -0.273 OA
HETATM   17  N1  UNL     1      -1.425  50.216 -23.029  1.00  0.00    -0.327 N 
HETATM   18  H1  UNL     1      -2.023  49.965 -23.808  1.00  0.00     0.169 HD
BRANCH  17  19
HETATM   19  C2  UNL     1      -0.674  51.399 -23.189  1.00  0.00     0.036 A 
HETATM   20  C3  UNL     1      -0.009  52.049 -22.145  1.00  0.00     0.032 A 
HETATM   21  C4  UNL     1       0.726  53.217 -22.385  1.00  0.00     0.040 A 
HETATM   22  C5  UNL     1       0.790  53.741 -23.669  1.00  0.00     0.087 A 
HETATM   23  C6  UNL     1       0.125  53.106 -24.718  1.00  0.00     0.069 A 
HETATM   24 CL1  UNL     1       0.185  53.758 -26.314  1.00  0.00    -0.081 Cl
HETATM   25  C7  UNL     1      -0.608  51.943 -24.480  1.00  0.00     0.056 A 
BRANCH  22  26
HETATM   26  O2  UNL     1       1.524  54.879 -23.853  1.00  0.00    -0.359 OA
HETATM   27  H4  UNL     1       1.461  55.117 -24.797  1.00  0.00     0.217 HD
ENDBRANCH  22  26
ENDBRANCH  17  19
ENDBRANCH  13  15
ENDBRANCH   9  10
ENDBRANCH   1   9
BRANCH   6  28
HETATM   28  C15 UNL     1     -11.355  47.314 -20.219  1.00  0.00     0.030 A 
HETATM   29  C16 UNL     1     -12.356  48.126 -19.665  1.00  0.00     0.030 A 
HETATM   30  C17 UNL     1     -13.718  47.938 -19.953  1.00  0.00     0.017 A 
HETATM   31  C18 UNL     1     -14.153  46.929 -20.825  1.00  0.00     0.008 A 
HETATM   32  C23 UNL     1     -13.155  46.127 -21.397  1.00  0.00     0.017 A 
HETATM   33  C24 UNL     1     -11.794  46.319 -21.101  1.00  0.00     0.030 A 
BRANCH  31  34
HETATM   34  C19 UNL     1     -15.584  46.723 -21.124  1.00  0.00     0.115 A 
HETATM   35  N5  UNL     1     -16.470  46.862 -20.111  1.00  0.00    -0.349 N 
HETATM   36  C20 UNL     1     -17.772  46.660 -20.413  1.00  0.00     0.133 A 
ATOM     37  H5  UNL     1     -16.171  47.107 -19.167  1.00  0.00     0.167 HD
HETATM   38  C21 UNL     1     -18.211  46.328 -21.669  1.00  0.00     0.147 A 
HETATM   39  F1  UNL     1     -19.507  46.135 -21.938  1.00  0.00    -0.203 F 
HETATM   40  C22 UNL     1     -17.244  46.211 -22.633  1.00  0.00     0.133 A 
HETATM   41  N6  UNL     1     -15.928  46.401 -22.392  1.00  0.00    -0.349 N 
ATOM     42  H6  UNL     1     -15.229  46.307 -23.129  1.00  0.00     0.167 HD
ENDBRANCH  31  34
ENDBRANCH   6  28
TORSDOF 7
ENDMDL
MODEL 6
REMARK minimizedAffinity -8.39023304
REMARK CNNscore 0.242332533
REMARK CNNaffinity 5.9310813
REMARK  7 active torsions:
REMARK  status: ('A' for Active; 'I' for Inactive)
REMARK       I    between atoms: C1_2  and  N1_3 
REMARK    1  A    between atoms: C1_2  and  C8_12 
REMARK    2  A    between atoms: N1_3  and  C2_4 
REMARK    3  A    between atoms: C5_7  and  O2_8 
REMARK    4  A    between atoms: N2_15  and  C11_16 
REMARK    5  A    between atoms: C11_16  and  C12_17 
REMARK       I    between atoms: C12_17  and  N3_19 
REMARK    6  A    between atoms: N4_22  and  C15_23 
REMARK    7  A    between atoms: C18_26  and  C19_27 
ROOT
HETATM    1  C12 UNL     1      -5.787  48.746 -19.442  1.00  0.00     0.248 C 
HETATM    2  O3  UNL     1      -5.229  48.833 -18.343  1.00  0.00    -0.271 OA
HETATM    3  N3  UNL     1      -7.106  48.331 -19.560  1.00  0.00    -0.348 N 
HETATM    4  C13 UNL     1      -7.851  48.272 -20.824  1.00  0.00     0.145 C 
HETATM    5  C14 UNL     1      -9.067  47.327 -20.774  1.00  0.00     0.143 C 
HETATM    6  N4  UNL     1      -9.965  47.632 -19.643  1.00  0.00    -0.378 N 
HETATM    7  C25 UNL     1      -9.378  48.353 -18.500  1.00  0.00     0.143 C 
HETATM    8  C26 UNL     1      -7.876  48.048 -18.347  1.00  0.00     0.145 C 
ENDROOT
BRANCH   1   9
HETATM    9  C11 UNL     1      -5.005  49.086 -20.722  1.00  0.00     0.374 C 
BRANCH   9  10
HETATM   10  N2  UNL     1      -4.473  47.867 -21.380  1.00  0.00     0.098 N 
HETATM   11  C10 UNL     1      -4.944  47.739 -22.767  1.00  0.00     0.274 C 
HETATM   12  C9  UNL     1      -3.993  48.577 -23.599  1.00  0.00     0.046 C 
HETATM   13  C8  UNL     1      -2.651  48.412 -22.893  1.00  0.00     0.108 C 
HETATM   14  C27 UNL     1      -3.001  47.942 -21.478  1.00  0.00     0.287 C 
BRANCH  13  15
HETATM   15  C1  UNL     1      -1.830  49.697 -22.927  1.00  0.00     0.228 C 
HETATM   16  O1  UNL     1      -1.666  50.340 -23.956  1.00  0.00    -0.273 OA
HETATM   17  N1  UNL     1      -1.336  50.024 -21.670  1.00  0.00    -0.327 N 
HETATM   18  H1  UNL     1      -1.606  49.414 -20.907  1.00  0.00     0.169 HD
BRANCH  17  19
HETATM   19  C2  UNL     1      -0.546  51.138 -21.316  1.00  0.00     0.036 A 
HETATM   20  C3  UNL     1      -0.048  52.066 -22.236  1.00  0.00     0.032 A 
HETATM   21  C4  UNL     1       0.723  53.152 -21.805  1.00  0.00     0.040 A 
HETATM   22  C5  UNL     1       1.005  53.309 -20.455  1.00  0.00     0.087 A 
HETATM   23  C6  UNL     1       0.520  52.385 -19.529  1.00  0.00     0.069 A 
HETATM   24 CL1  UNL     1       0.877  52.561 -17.850  1.00  0.00    -0.081 Cl
HETATM   25  C7  UNL     1      -0.248  51.301 -19.956  1.00  0.00     0.056 A 
BRANCH  22  26
HETATM   26  O2  UNL     1       1.756  54.388 -20.084  1.00  0.00    -0.359 OA
HETATM   27  H4  UNL     1       1.868  54.347 -19.116  1.00  0.00     0.217 HD
ENDBRANCH  22  26
ENDBRANCH  17  19
ENDBRANCH  13  15
ENDBRANCH   9  10
ENDBRANCH   1   9
BRANCH   6  28
HETATM   28  C15 UNL     1     -11.338  47.481 -19.776  1.00  0.00     0.030 A 
HETATM   29  C16 UNL     1     -12.239  48.390 -19.203  1.00  0.00     0.030 A 
HETATM   30  C17 UNL     1     -13.631  48.241 -19.321  1.00  0.00     0.017 A 
HETATM   31  C18 UNL     1     -14.199  47.173 -20.031  1.00  0.00     0.008 A 
HETATM   32  C23 UNL     1     -13.301  46.272 -20.623  1.00  0.00     0.017 A 
HETATM   33  C24 UNL     1     -11.910  46.426 -20.498  1.00  0.00     0.030 A 
BRANCH  31  34
HETATM   34  C19 UNL     1     -15.660  47.007 -20.151  1.00  0.00     0.115 A 
HETATM   35  N5  UNL     1     -16.430  47.399 -19.109  1.00  0.00    -0.349 N 
HETATM   36  C20 UNL     1     -17.765  47.227 -19.244  1.00  0.00     0.133 A 
ATOM     37  H5  UNL     1     -16.025  47.802 -18.265  1.00  0.00     0.167 HD
HETATM   38  C21 UNL     1     -18.345  46.688 -20.363  1.00  0.00     0.147 A 
HETATM   39  F1  UNL     1     -19.669  46.532 -20.468  1.00  0.00    -0.203 F 
HETATM   40  C22 UNL     1     -17.489  46.322 -21.369  1.00  0.00     0.133 A 
HETATM   41  N6  UNL     1     -16.148  46.468 -21.292  1.00  0.00    -0.349 N 
ATOM     42  H6  UNL     1     -15.534  46.187 -22.057  1.00  0.00     0.167 HD
ENDBRANCH  31  34
ENDBRANCH   6  28
TORSDOF 7
ENDMDL
MODEL 7
REMARK minimizedAffinity -9.40793324
REMARK CNNscore 0.239824712
REMARK CNNaffinity 6.27142859
REMARK  7 active torsions:
REMARK  status: ('A' for Active; 'I' for Inactive)
REMARK       I    between atoms: C1_2  and  N1_3 
REMARK    1  A    between atoms: C1_2  and  C8_12 
REMARK    2  A    between atoms: N1_3  and  C2_4 
REMARK    3  A    between atoms: C5_7  and  O2_8 
REMARK    4  A    between atoms: N2_15  and  C11_16 
REMARK    5  A    between atoms: C11_16  and  C12_17 
REMARK       I    between atoms: C12_17  and  N3_19 
REMARK    6  A    between atoms: N4_22  and  C15_23 
REMARK    7  A    between atoms: C18_26  and  C19_27 
ROOT
HETATM    1  C12 UNL     1      -6.687  48.706 -20.115  1.00  0.00     0.248 C 
HETATM    2  O3  UNL     1      -7.680  48.287 -19.512  1.00  0.00    -0.271 OA
HETATM    3  N3  UNL     1      -6.469  48.414 -21.454  1.00  0.00    -0.348 N 
HETATM    4  C13 UNL     1      -5.351  48.937 -22.249  1.00  0.00     0.145 C 
HETATM    5  C14 UNL     1      -5.043  48.093 -23.501  1.00  0.00     0.143 C 
HETATM    6  N4  UNL     1      -6.238  47.885 -24.342  1.00  0.00    -0.378 N 
HETATM    7  C25 UNL     1      -7.550  48.013 -23.680  1.00  0.00     0.143 C 
HETATM    8  C26 UNL     1      -7.472  47.641 -22.188  1.00  0.00     0.145 C 
ENDROOT
BRANCH   1   9
HETATM    9  C11 UNL     1      -5.648  49.561 -19.369  1.00  0.00     0.374 C 
BRANCH   9  10
HETATM   10  N2  UNL     1      -4.795  48.734 -18.480  1.00  0.00     0.098 N 
HETATM   11  C10 UNL     1      -3.935  47.815 -19.241  1.00  0.00     0.274 C 
HETATM   12  C9  UNL     1      -2.713  48.627 -19.625  1.00  0.00     0.046 C 
HETATM   13  C8  UNL     1      -2.511  49.565 -18.440  1.00  0.00     0.108 C 
HETATM   14  C27 UNL     1      -3.864  49.595 -17.723  1.00  0.00     0.287 C 
BRANCH  13  15
HETATM   15  C1  UNL     1      -2.019  50.940 -18.880  1.00  0.00     0.228 C 
HETATM   16  O1  UNL     1      -2.583  51.973 -18.545  1.00  0.00    -0.273 OA
HETATM   17  N1  UNL     1      -0.877  50.848 -19.665  1.00  0.00    -0.327 N 
HETATM   18  H1  UNL     1      -0.502  49.918 -19.809  1.00  0.00     0.169 HD
BRANCH  17  19
HETATM   19  C2  UNL     1      -0.141  51.904 -20.244  1.00  0.00     0.036 A 
HETATM   20  C3  UNL     1       0.537  52.879 -19.505  1.00  0.00     0.032 A 
HETATM   21  C4  UNL     1       1.255  53.892 -20.153  1.00  0.00     0.040 A 
HETATM   22  C5  UNL     1       1.290  53.937 -21.539  1.00  0.00     0.087 A 
HETATM   23  C6  UNL     1       0.611  52.974 -22.287  1.00  0.00     0.069 A 
HETATM   24 CL1  UNL     1       0.635  53.029 -24.011  1.00  0.00    -0.081 Cl
HETATM   25  C7  UNL     1      -0.105  51.964 -21.644  1.00  0.00     0.056 A 
BRANCH  22  26
HETATM   26  O2  UNL     1       2.009  54.941 -22.124  1.00  0.00    -0.359 OA
HETATM   27  H4  UNL     1       1.926  54.836 -23.090  1.00  0.00     0.217 HD
ENDBRANCH  22  26
ENDBRANCH  17  19
ENDBRANCH  13  15
ENDBRANCH   9  10
ENDBRANCH   1   9
BRANCH   6  28
HETATM   28  C15 UNL     1      -6.127  47.838 -25.724  1.00  0.00     0.030 A 
HETATM   29  C16 UNL     1      -4.950  48.221 -26.382  1.00  0.00     0.030 A 
HETATM   30  C17 UNL     1      -4.830  48.188 -27.781  1.00  0.00     0.017 A 
HETATM   31  C18 UNL     1      -5.883  47.757 -28.601  1.00  0.00     0.008 A 
HETATM   32  C23 UNL     1      -7.056  47.353 -27.945  1.00  0.00     0.017 A 
HETATM   33  C24 UNL     1      -7.170  47.392 -26.545  1.00  0.00     0.030 A 
BRANCH  31  34
HETATM   34  C19 UNL     1      -5.765  47.727 -30.072  1.00  0.00     0.115 A 
HETATM   35  N5  UNL     1      -6.167  46.609 -30.718  1.00  0.00    -0.349 N 
HETATM   36  C20 UNL     1      -6.039  46.607 -32.064  1.00  0.00     0.133 A 
ATOM     37  H5  UNL     1      -6.548  45.807 -30.216  1.00  0.00     0.167 HD
HETATM   38  C21 UNL     1      -5.531  47.665 -32.773  1.00  0.00     0.147 A 
HETATM   39  F1  UNL     1      -5.417  47.636 -34.105  1.00  0.00    -0.203 F 
HETATM   40  C22 UNL     1      -5.151  48.757 -32.036  1.00  0.00     0.133 A 
HETATM   41  N6  UNL     1      -5.254  48.817 -30.690  1.00  0.00    -0.349 N 
ATOM     42  H6  UNL     1      -4.963  49.642 -30.167  1.00  0.00     0.167 HD
ENDBRANCH  31  34
ENDBRANCH   6  28
TORSDOF 7
ENDMDL
MODEL 8
REMARK minimizedAffinity -8.96474743
REMARK CNNscore 0.237907097
REMARK CNNaffinity 6.5452919
REMARK  7 active torsions:
REMARK  status: ('A' for Active; 'I' for Inactive)
REMARK       I    between atoms: C1_2  and  N1_3 
REMARK    1  A    between atoms: C1_2  and  C8_12 
REMARK    2  A    between atoms: N1_3  and  C2_4 
REMARK    3  A    between atoms: C5_7  and  O2_8 
REMARK    4  A    between atoms: N2_15  and  C11_16 
REMARK    5  A    between atoms: C11_16  and  C12_17 
REMARK       I    between atoms: C12_17  and  N3_19 
REMARK    6  A    between atoms: N4_22  and  C15_23 
REMARK    7  A    between atoms: C18_26  and  C19_27 
ROOT
HETATM    1  C12 UNL     1      -0.411  50.825 -12.152  1.00  0.00     0.248 C 
HETATM    2  O3  UNL     1      -0.979  49.826 -11.697  1.00  0.00    -0.271 OA
HETATM    3  N3  UNL     1      -0.160  50.968 -13.509  1.00  0.00    -0.348 N 
HETATM    4  C13 UNL     1       0.446  52.156 -14.124  1.00  0.00     0.145 C 
HETATM    5  C14 UNL     1       1.074  51.878 -15.502  1.00  0.00     0.143 C 
HETATM    6  N4  UNL     1       0.125  51.229 -16.428  1.00  0.00    -0.378 N 
HETATM    7  C25 UNL     1      -1.001  50.495 -15.823  1.00  0.00     0.143 C 
HETATM    8  C26 UNL     1      -0.636  49.938 -14.435  1.00  0.00     0.145 C 
ENDROOT
BRANCH   1   9
HETATM    9  C11 UNL     1       0.052  51.937 -11.195  1.00  0.00     0.374 C 
BRANCH   9  10
HETATM   10  N2  UNL     1      -0.892  53.081 -11.188  1.00  0.00     0.098 N 
HETATM   11  C10 UNL     1      -1.869  52.983 -10.094  1.00  0.00     0.274 C 
HETATM   12  C9  UNL     1      -1.178  53.571  -8.878  1.00  0.00     0.046 C 
HETATM   13  C8  UNL     1      -0.311  54.684  -9.456  1.00  0.00     0.108 C 
HETATM   14  C27 UNL     1      -0.162  54.342 -10.941  1.00  0.00     0.287 C 
BRANCH  13  15
HETATM   15  C1  UNL     1       1.019  54.809  -8.719  1.00  0.00     0.228 C 
HETATM   16  O1  UNL     1       1.087  54.838  -7.497  1.00  0.00    -0.273 OA
HETATM   17  N1  UNL     1       2.091  54.862  -9.600  1.00  0.00    -0.327 N 
HETATM   18  H1  UNL     1       1.870  54.773 -10.585  1.00  0.00     0.169 HD
BRANCH  17  19
HETATM   19  C2  UNL     1       3.462  54.969  -9.286  1.00  0.00     0.036 A 
HETATM   20  C3  UNL     1       4.451  54.132  -9.813  1.00  0.00     0.032 A 
HETATM   21  C4  UNL     1       5.795  54.306  -9.459  1.00  0.00     0.040 A 
HETATM   22  C5  UNL     1       6.151  55.313  -8.572  1.00  0.00     0.087 A 
HETATM   23  C6  UNL     1       5.172  56.149  -8.033  1.00  0.00     0.069 A 
HETATM   24 CL1  UNL     1       5.602  57.393  -6.918  1.00  0.00    -0.081 Cl
HETATM   25  C7  UNL     1       3.833  55.976  -8.384  1.00  0.00     0.056 A 
BRANCH  22  26
HETATM   26  O2  UNL     1       7.475  55.446  -8.262  1.00  0.00    -0.359 OA
HETATM   27  H4  UNL     1       7.554  56.184  -7.629  1.00  0.00     0.217 HD
ENDBRANCH  22  26
ENDBRANCH  17  19
ENDBRANCH  13  15
ENDBRANCH   9  10
ENDBRANCH   1   9
BRANCH   6  28
HETATM   28  C15 UNL     1       0.152  51.523 -17.784  1.00  0.00     0.030 A 
HETATM   29  C16 UNL     1       0.827  52.647 -18.281  1.00  0.00     0.030 A 
HETATM   30  C17 UNL     1       0.851  52.961 -19.650  1.00  0.00     0.017 A 
HETATM   31  C18 UNL     1       0.206  52.156 -20.601  1.00  0.00     0.008 A 
HETATM   32  C23 UNL     1      -0.453  51.020 -20.110  1.00  0.00     0.017 A 
HETATM   33  C24 UNL     1      -0.476  50.714 -18.739  1.00  0.00     0.030 A 
BRANCH  31  34
HETATM   34  C19 UNL     1       0.222  52.486 -22.040  1.00  0.00     0.115 A 
HETATM   35  N5  UNL     1       0.947  53.558 -22.436  1.00  0.00    -0.349 N 
HETATM   36  C20 UNL     1       0.936  53.841 -23.758  1.00  0.00     0.133 A 
ATOM     37  H5  UNL     1       1.474  54.124 -21.772  1.00  0.00     0.167 HD
HETATM   38  C21 UNL     1       0.239  53.104 -24.681  1.00  0.00     0.147 A 
HETATM   39  F1  UNL     1       0.248  53.407 -25.983  1.00  0.00    -0.203 F 
HETATM   40  C22 UNL     1      -0.465  52.035 -24.189  1.00  0.00     0.133 A 
HETATM   41  N6  UNL     1      -0.493  51.703 -22.880  1.00  0.00    -0.349 N 
ATOM     42  H6  UNL     1      -1.026  50.902 -22.542  1.00  0.00     0.167 HD
ENDBRANCH  31  34
ENDBRANCH   6  28
TORSDOF 7
ENDMDL
MODEL 9
REMARK minimizedAffinity -8.1190443
REMARK CNNscore 0.178507432
REMARK CNNaffinity 6.71096563
REMARK  7 active torsions:
REMARK  status: ('A' for Active; 'I' for Inactive)
REMARK       I    between atoms: C1_2  and  N1_3 
REMARK    1  A    between atoms: C1_2  and  C8_12 
REMARK    2  A    between atoms: N1_3  and  C2_4 
REMARK    3  A    between atoms: C5_7  and  O2_8 
REMARK    4  A    between atoms: N2_15  and  C11_16 
REMARK    5  A    between atoms: C11_16  and  C12_17 
REMARK       I    between atoms: C12_17  and  N3_19 
REMARK    6  A    between atoms: N4_22  and  C15_23 
REMARK    7  A    between atoms: C18_26  and  C19_27 
ROOT
HETATM    1  C12 UNL     1      -3.058  48.900 -22.841  1.00  0.00     0.248 C 
HETATM    2  O3  UNL     1      -2.070  49.242 -23.500  1.00  0.00    -0.271 OA
HETATM    3  N3  UNL     1      -4.310  48.755 -23.424  1.00  0.00    -0.348 N 
HETATM    4  C13 UNL     1      -5.508  48.284 -22.717  1.00  0.00     0.145 C 
HETATM    5  C14 UNL     1      -6.824  48.691 -23.407  1.00  0.00     0.143 C 
HETATM    6  N4  UNL     1      -6.856  48.292 -24.827  1.00  0.00    -0.378 N 
HETATM    7  C25 UNL     1      -5.557  48.080 -25.491  1.00  0.00     0.143 C 
HETATM    8  C26 UNL     1      -4.452  48.952 -24.867  1.00  0.00     0.145 C 
ENDROOT
BRANCH   1   9
HETATM    9  C11 UNL     1      -2.914  48.642 -21.331  1.00  0.00     0.374 C 
BRANCH   9  10
HETATM   10  N2  UNL     1      -3.261  49.844 -20.535  1.00  0.00     0.098 N 
HETATM   11  C10 UNL     1      -2.370  50.016 -19.378  1.00  0.00     0.274 C 
HETATM   12  C9  UNL     1      -1.151  50.746 -19.909  1.00  0.00     0.046 C 
HETATM   13  C8  UNL     1      -1.719  51.668 -20.983  1.00  0.00     0.108 C 
HETATM   14  C27 UNL     1      -3.078  51.064 -21.347  1.00  0.00     0.287 C 
BRANCH  13  15
HETATM   15  C1  UNL     1      -0.772  51.807 -22.170  1.00  0.00     0.228 C 
HETATM   16  O1  UNL     1       0.445  51.747 -22.046  1.00  0.00    -0.273 OA
HETATM   17  N1  UNL     1      -1.464  51.985 -23.361  1.00  0.00    -0.327 N 
HETATM   18  H1  UNL     1      -2.475  51.959 -23.302  1.00  0.00     0.169 HD
BRANCH  17  19
HETATM   19  C2  UNL     1      -0.928  52.142 -24.656  1.00  0.00     0.036 A 
HETATM   20  C3  UNL     1      -1.621  52.723 -25.723  1.00  0.00     0.032 A 
HETATM   21  C4  UNL     1      -1.017  52.851 -26.980  1.00  0.00     0.040 A 
HETATM   22  C5  UNL     1       0.278  52.391 -27.175  1.00  0.00     0.087 A 
HETATM   23  C6  UNL     1       0.977  51.803 -26.120  1.00  0.00     0.069 A 
HETATM   24 CL1  UNL     1       2.581  51.214 -26.355  1.00  0.00    -0.081 Cl
HETATM   25  C7  UNL     1       0.377  51.674 -24.867  1.00  0.00     0.056 A 
BRANCH  22  26
HETATM   26  O2  UNL     1       0.826  52.544 -28.417  1.00  0.00    -0.359 OA
HETATM   27  H4  UNL     1       1.725  52.167 -28.389  1.00  0.00     0.217 HD
ENDBRANCH  22  26
ENDBRANCH  17  19
ENDBRANCH  13  15
ENDBRANCH   9  10
ENDBRANCH   1   9
BRANCH   6  28
HETATM   28  C15 UNL     1      -8.044  47.885 -25.416  1.00  0.00     0.030 A 
HETATM   29  C16 UNL     1      -9.113  48.771 -25.611  1.00  0.00     0.030 A 
HETATM   30  C17 UNL     1     -10.325  48.366 -26.195  1.00  0.00     0.017 A 
HETATM   31  C18 UNL     1     -10.529  47.048 -26.629  1.00  0.00     0.008 A 
HETATM   32  C23 UNL     1      -9.455  46.163 -26.455  1.00  0.00     0.017 A 
HETATM   33  C24 UNL     1      -8.247  46.574 -25.867  1.00  0.00     0.030 A 
BRANCH  31  34
HETATM   34  C19 UNL     1     -11.803  46.617 -27.237  1.00  0.00     0.115 A 
HETATM   35  N5  UNL     1     -11.750  45.942 -28.409  1.00  0.00    -0.349 N 
HETATM   36  C20 UNL     1     -12.932  45.566 -28.946  1.00  0.00     0.133 A 
ATOM     37  H5  UNL     1     -10.862  45.727 -28.864  1.00  0.00     0.167 HD
HETATM   38  C21 UNL     1     -14.144  45.838 -28.364  1.00  0.00     0.147 A 
HETATM   39  F1  UNL     1     -15.298  45.453 -28.918  1.00  0.00    -0.203 F 
HETATM   40  C22 UNL     1     -14.102  46.524 -27.178  1.00  0.00     0.133 A 
HETATM   41  N6  UNL     1     -12.952  46.926 -26.593  1.00  0.00    -0.349 N 
ATOM     42  H6  UNL     1     -12.950  47.435 -25.709  1.00  0.00     0.167 HD
ENDBRANCH  31  34
ENDBRANCH   6  28
TORSDOF 7
ENDMDL
