MODEL 1
REMARK minimizedAffinity -8.37776566
REMARK  9 active torsions:
REMARK  status: ('A' for Active; 'I' for Inactive)
REMARK    1  A    between atoms: O1_2  and  C2_3 
REMARK    2  A    between atoms: C2_3  and  C3_4 
REMARK    3  A    between atoms: C3_4  and  O2_5 
REMARK    4  A    between atoms: O2_5  and  C4_6 
REMARK    5  A    between atoms: C7_12  and  N3_13 
REMARK       I    between atoms: N3_13  and  C8_14 
REMARK       I    between atoms: C8_14  and  N4_16 
REMARK    6  A    between atoms: N4_16  and  C9_17 
REMARK    7  A    between atoms: C9_17  and  C10_18 
REMARK    8  A    between atoms: C9_17  and  C16_25 
REMARK    9  A    between atoms: C16_25  and  O4_28 
ROOT
HETATM    1  N3  UNL     1      -0.728  52.230 -20.212  1.00  0.00    -0.295 N 
HETATM    2  C8  UNL     1      -1.081  51.332 -21.194  1.00  0.00     0.322 C 
HETATM    3  O3  UNL     1      -1.020  50.114 -21.148  1.00  0.00    -0.247 OA
HETATM    4  N4  UNL     1      -1.564  52.016 -22.300  1.00  0.00    -0.331 N 
HETATM    5  H10 UNL     1      -1.083  53.164 -20.320  1.00  0.00     0.172 HD
HETATM    6  H11 UNL     1      -1.007  52.836 -22.488  1.00  0.00     0.165 HD
ENDROOT
BRANCH   1   7
HETATM    7  C7  UNL     1      -0.110  51.909 -18.995  1.00  0.00     0.111 A 
HETATM    8  C6  UNL     1       0.755  52.866 -18.461  1.00  0.00     0.080 A 
HETATM    9  C5  UNL     1       1.368  52.519 -17.258  1.00  0.00     0.067 A 
HETATM   10  N2  UNL     1       2.251  53.176 -16.445  1.00  0.00    -0.298 N 
HETATM   11  C20 UNL     1       1.136  51.299 -16.634  1.00  0.00     0.060 A 
HETATM   12  N1  UNL     1       2.615  52.483 -15.349  1.00  0.00    -0.279 N 
HETATM   13  H8  UNL     1       2.648  54.100 -16.579  1.00  0.00     0.187 HD
HETATM   14  C4  UNL     1       1.927  51.344 -15.470  1.00  0.00     0.171 A 
ATOM     15  H1  UNL     1       3.259  52.760 -14.607  1.00  0.00     0.189 HD
HETATM   16  C19 UNL     1       0.265  50.395 -17.236  1.00  0.00     0.108 A 
HETATM   17  N5  UNL     1      -0.339  50.718 -18.409  1.00  0.00    -0.351 N 
ATOM     18  H5  UNL     1      -0.972  50.052 -18.851  1.00  0.00     0.166 HD
BRANCH  14  19
HETATM   19  O2  UNL     1       2.016  50.363 -14.546  1.00  0.00    -0.332 OA
BRANCH  19  20
HETATM   20  C3  UNL     1       3.003  50.557 -13.527  1.00  0.00     0.203 C 
BRANCH  20  21
HETATM   21  C2  UNL     1       4.299  49.805 -13.837  1.00  0.00     0.193 C 
BRANCH  21  22
HETATM   22  O1  UNL     1       5.066  49.662 -12.634  1.00  0.00    -0.394 OA
HETATM   23  C1  UNL     1       4.310  50.019 -11.486  1.00  0.00     0.201 C 
ENDBRANCH  21  22
ENDBRANCH  20  21
ENDBRANCH  19  20
ENDBRANCH  14  19
ENDBRANCH   1   7
BRANCH   4  24
HETATM   24  C9  UNL     1      -1.979  51.286 -23.508  1.00  0.00     0.153 C 
BRANCH  24  25
HETATM   25  C10 UNL     1      -0.870  51.385 -24.566  1.00  0.00    -0.032 A 
HETATM   26  C11 UNL     1       0.174  52.309 -24.382  1.00  0.00     0.011 A 
HETATM   27  C12 UNL     1       1.198  52.431 -25.325  1.00  0.00     0.024 A 
HETATM   28  C13 UNL     1       1.191  51.627 -26.461  1.00  0.00     0.034 A 
HETATM   29 CL1  UNL     1       2.450  51.776 -27.624  1.00  0.00    -0.084 Cl
HETATM   30  C14 UNL     1       0.171  50.701 -26.661  1.00  0.00     0.024 A 
HETATM   31  C15 UNL     1      -0.853  50.578 -25.719  1.00  0.00     0.011 A 
ENDBRANCH  24  25
BRANCH  24  32
HETATM   32  C16 UNL     1      -3.398  51.699 -24.067  1.00  0.00     0.075 C 
HETATM   33  C17 UNL     1      -4.128  50.519 -24.723  1.00  0.00     0.048 C 
HETATM   34  C18 UNL     1      -4.314  52.315 -23.002  1.00  0.00     0.048 C 
BRANCH  32  35
HETATM   35  O4  UNL     1      -3.219  52.682 -25.108  1.00  0.00    -0.388 OA
HETATM   36  H23 UNL     1      -4.097  52.913 -25.457  1.00  0.00     0.210 HD
ENDBRANCH  32  35
ENDBRANCH  24  32
ENDBRANCH   4  24
TORSDOF 9
ENDMDL
MODEL 2
REMARK minimizedAffinity -7.87222958
REMARK  9 active torsions:
REMARK  status: ('A' for Active; 'I' for Inactive)
REMARK    1  A    between atoms: O1_2  and  C2_3 
REMARK    2  A    between atoms: C2_3  and  C3_4 
REMARK    3  A    between atoms: C3_4  and  O2_5 
REMARK    4  A    between atoms: O2_5  and  C4_6 
REMARK    5  A    between atoms: C7_12  and  N3_13 
REMARK       I    between atoms: N3_13  and  C8_14 
REMARK       I    between atoms: C8_14  and  N4_16 
REMARK    6  A    between atoms: N4_16  and  C9_17 
REMARK    7  A    between atoms: C9_17  and  C10_18 
REMARK    8  A    between atoms: C9_17  and  C16_25 
REMARK    9  A    between atoms: C16_25  and  O4_28 
ROOT
HETATM    1  N3  UNL     1      -0.852  52.150 -20.079  1.00  0.00    -0.295 N 
HETATM    2  C8  UNL     1      -1.171  51.271 -21.089  1.00  0.00     0.322 C 
HETATM    3  O3  UNL     1      -1.102  50.052 -21.067  1.00  0.00    -0.247 OA
HETATM    4  N4  UNL     1      -1.629  51.974 -22.194  1.00  0.00    -0.331 N 
HETATM    5  H10 UNL     1      -1.211  53.083 -20.177  1.00  0.00     0.172 HD
HETATM    6  H11 UNL     1      -1.072  52.802 -22.349  1.00  0.00     0.165 HD
ENDROOT
BRANCH   1   7
HETATM    7  C7  UNL     1      -0.266  51.808 -18.852  1.00  0.00     0.111 A 
HETATM    8  C6  UNL     1       0.626  52.732 -18.306  1.00  0.00     0.080 A 
HETATM    9  C5  UNL     1       1.206  52.363 -17.093  1.00  0.00     0.067 A 
HETATM   10  N2  UNL     1       2.101  52.988 -16.266  1.00  0.00    -0.298 N 
HETATM   11  C20 UNL     1       0.919  51.154 -16.472  1.00  0.00     0.060 A 
HETATM   12  N1  UNL     1       2.422  52.283 -15.164  1.00  0.00    -0.279 N 
HETATM   13  H8  UNL     1       2.534  53.896 -16.395  1.00  0.00     0.187 HD
HETATM   14  C4  UNL     1       1.693  51.171 -15.296  1.00  0.00     0.171 A 
ATOM     15  H1  UNL     1       3.064  52.536 -14.413  1.00  0.00     0.189 HD
HETATM   16  C19 UNL     1       0.024  50.283 -17.087  1.00  0.00     0.108 A 
HETATM   17  N5  UNL     1      -0.549  50.626 -18.269  1.00  0.00    -0.351 N 
ATOM     18  H5  UNL     1      -1.200  49.984 -18.721  1.00  0.00     0.166 HD
BRANCH  14  19
HETATM   19  O2  UNL     1       1.730  50.187 -14.369  1.00  0.00    -0.332 OA
BRANCH  19  20
HETATM   20  C3  UNL     1       0.695  50.227 -13.381  1.00  0.00     0.203 C 
BRANCH  20  21
HETATM   21  C2  UNL     1       0.751  51.508 -12.546  1.00  0.00     0.193 C 
BRANCH  21  22
HETATM   22  O1  UNL     1      -0.157  52.473 -13.093  1.00  0.00    -0.394 OA
HETATM   23  C1  UNL     1      -1.462  51.934 -13.247  1.00  0.00     0.201 C 
ENDBRANCH  21  22
ENDBRANCH  20  21
ENDBRANCH  19  20
ENDBRANCH  14  19
ENDBRANCH   1   7
BRANCH   4  24
HETATM   24  C9  UNL     1      -2.005  51.267 -23.428  1.00  0.00     0.153 C 
BRANCH  24  25
HETATM   25  C10 UNL     1      -0.877  51.417 -24.461  1.00  0.00    -0.032 A 
HETATM   26  C11 UNL     1      -0.850  50.563 -25.576  1.00  0.00     0.011 A 
HETATM   27  C12 UNL     1       0.162  50.667 -26.534  1.00  0.00     0.024 A 
HETATM   28  C13 UNL     1       1.157  51.628 -26.387  1.00  0.00     0.034 A 
HETATM   29 CL1  UNL     1       2.405  51.757 -27.565  1.00  0.00    -0.084 Cl
HETATM   30  C14 UNL     1       1.147  52.489 -25.294  1.00  0.00     0.024 A 
HETATM   31  C15 UNL     1       0.135  52.387 -24.336  1.00  0.00     0.011 A 
ENDBRANCH  24  25
BRANCH  24  32
HETATM   32  C16 UNL     1      -3.421  51.665 -24.004  1.00  0.00     0.075 C 
HETATM   33  C17 UNL     1      -4.119  50.483 -24.692  1.00  0.00     0.048 C 
HETATM   34  C18 UNL     1      -4.366  52.248 -22.945  1.00  0.00     0.048 C 
BRANCH  32  35
HETATM   35  O4  UNL     1      -3.242  52.668 -25.026  1.00  0.00    -0.388 OA
HETATM   36  H23 UNL     1      -4.118  52.890 -25.386  1.00  0.00     0.210 HD
ENDBRANCH  32  35
ENDBRANCH  24  32
ENDBRANCH   4  24
TORSDOF 9
ENDMDL
MODEL 3
REMARK minimizedAffinity -7.71314716
REMARK  9 active torsions:
REMARK  status: ('A' for Active; 'I' for Inactive)
REMARK    1  A    between atoms: O1_2  and  C2_3 
REMARK    2  A    between atoms: C2_3  and  C3_4 
REMARK    3  A    between atoms: C3_4  and  O2_5 
REMARK    4  A    between atoms: O2_5  and  C4_6 
REMARK    5  A    between atoms: C7_12  and  N3_13 
REMARK       I    between atoms: N3_13  and  C8_14 
REMARK       I    between atoms: C8_14  and  N4_16 
REMARK    6  A    between atoms: N4_16  and  C9_17 
REMARK    7  A    between atoms: C9_17  and  C10_18 
REMARK    8  A    between atoms: C9_17  and  C16_25 
REMARK    9  A    between atoms: C16_25  and  O4_28 
ROOT
HETATM    1  N3  UNL     1      -2.903  48.790 -23.106  1.00  0.00    -0.295 N 
HETATM    2  C8  UNL     1      -3.016  49.906 -22.307  1.00  0.00     0.322 C 
HETATM    3  O3  UNL     1      -3.622  50.938 -22.549  1.00  0.00    -0.247 OA
HETATM    4  N4  UNL     1      -2.338  49.698 -21.115  1.00  0.00    -0.331 N 
HETATM    5  H10 UNL     1      -2.593  47.951 -22.648  1.00  0.00     0.172 HD
HETATM    6  H11 UNL     1      -1.456  49.234 -21.278  1.00  0.00     0.165 HD
ENDROOT
BRANCH   1   7
HETATM    7  C7  UNL     1      -3.375  48.675 -24.420  1.00  0.00     0.111 A 
HETATM    8  C6  UNL     1      -4.730  48.374 -24.574  1.00  0.00     0.080 A 
HETATM    9  C5  UNL     1      -5.173  48.251 -25.891  1.00  0.00     0.067 A 
HETATM   10  N2  UNL     1      -6.399  47.976 -26.433  1.00  0.00    -0.298 N 
HETATM   11  C20 UNL     1      -4.321  48.412 -26.976  1.00  0.00     0.060 A 
HETATM   12  N1  UNL     1      -6.413  47.941 -27.780  1.00  0.00    -0.279 N 
HETATM   13  H8  UNL     1      -7.269  47.800 -25.942  1.00  0.00     0.187 HD
HETATM   14  C4  UNL     1      -5.145  48.213 -28.101  1.00  0.00     0.171 A 
ATOM     15  H1  UNL     1      -7.199  47.752 -28.402  1.00  0.00     0.189 HD
HETATM   16  C19 UNL     1      -2.981  48.703 -26.738  1.00  0.00     0.108 A 
HETATM   17  N5  UNL     1      -2.533  48.825 -25.461  1.00  0.00    -0.351 N 
ATOM     18  H5  UNL     1      -1.550  49.032 -25.289  1.00  0.00     0.166 HD
BRANCH  14  19
HETATM   19  O2  UNL     1      -4.740  48.277 -29.389  1.00  0.00    -0.332 OA
BRANCH  19  20
HETATM   20  C3  UNL     1      -5.418  47.402 -30.297  1.00  0.00     0.203 C 
BRANCH  20  21
HETATM   21  C2  UNL     1      -5.598  48.039 -31.677  1.00  0.00     0.193 C 
BRANCH  21  22
HETATM   22  O1  UNL     1      -4.329  48.098 -32.342  1.00  0.00    -0.394 OA
HETATM   23  C1  UNL     1      -4.281  47.221 -33.458  1.00  0.00     0.201 C 
ENDBRANCH  21  22
ENDBRANCH  20  21
ENDBRANCH  19  20
ENDBRANCH  14  19
ENDBRANCH   1   7
BRANCH   4  24
HETATM   24  C9  UNL     1      -2.274  50.757 -20.096  1.00  0.00     0.153 C 
BRANCH  24  25
HETATM   25  C10 UNL     1      -1.115  51.709 -20.427  1.00  0.00    -0.032 A 
HETATM   26  C11 UNL     1      -0.343  51.478 -21.578  1.00  0.00     0.011 A 
HETATM   27  C12 UNL     1       0.722  52.320 -21.909  1.00  0.00     0.024 A 
HETATM   28  C13 UNL     1       1.025  53.405 -21.092  1.00  0.00     0.034 A 
HETATM   29 CL1  UNL     1       2.337  54.442 -21.498  1.00  0.00    -0.084 Cl
HETATM   30  C14 UNL     1       0.271  53.657 -19.951  1.00  0.00     0.024 A 
HETATM   31  C15 UNL     1      -0.795  52.816 -19.619  1.00  0.00     0.011 A 
ENDBRANCH  24  25
BRANCH  24  32
HETATM   32  C16 UNL     1      -2.229  50.231 -18.607  1.00  0.00     0.075 C 
HETATM   33  C17 UNL     1      -3.165  49.035 -18.387  1.00  0.00     0.048 C 
HETATM   34  C18 UNL     1      -0.817  49.845 -18.142  1.00  0.00     0.048 C 
BRANCH  32  35
HETATM   35  O4  UNL     1      -2.704  51.273 -17.731  1.00  0.00    -0.388 OA
HETATM   36  H23 UNL     1      -2.691  50.931 -16.820  1.00  0.00     0.210 HD
ENDBRANCH  32  35
ENDBRANCH  24  32
ENDBRANCH   4  24
TORSDOF 9
ENDMDL
MODEL 4
REMARK minimizedAffinity -7.68353319
REMARK  9 active torsions:
REMARK  status: ('A' for Active; 'I' for Inactive)
REMARK    1  A    between atoms: O1_2  and  C2_3 
REMARK    2  A    between atoms: C2_3  and  C3_4 
REMARK    3  A    between atoms: C3_4  and  O2_5 
REMARK    4  A    between atoms: O2_5  and  C4_6 
REMARK    5  A    between atoms: C7_12  and  N3_13 
REMARK       I    between atoms: N3_13  and  C8_14 
REMARK       I    between atoms: C8_14  and  N4_16 
REMARK    6  A    between atoms: N4_16  and  C9_17 
REMARK    7  A    between atoms: C9_17  and  C10_18 
REMARK    8  A    between atoms: C9_17  and  C16_25 
REMARK    9  A    between atoms: C16_25  and  O4_28 
ROOT
HETATM    1  N3  UNL     1       4.208  66.779 -36.481  1.00  0.00    -0.295 N 
HETATM    2  C8  UNL     1       4.686  65.578 -36.010  1.00  0.00     0.322 C 
HETATM    3  O3  UNL     1       4.760  64.517 -36.610  1.00  0.00    -0.247 OA
HETATM    4  N4  UNL     1       5.122  65.728 -34.702  1.00  0.00    -0.331 N 
HETATM    5  H10 UNL     1       4.460  67.593 -35.948  1.00  0.00     0.172 HD
HETATM    6  H11 UNL     1       4.482  66.303 -34.174  1.00  0.00     0.165 HD
ENDROOT
BRANCH   1   7
HETATM    7  C7  UNL     1       3.596  66.984 -37.726  1.00  0.00     0.111 A 
HETATM    8  C6  UNL     1       2.322  66.438 -37.893  1.00  0.00     0.080 A 
HETATM    9  C5  UNL     1       1.740  66.643 -39.144  1.00  0.00     0.067 A 
HETATM   10  N2  UNL     1       0.532  66.276 -39.675  1.00  0.00    -0.298 N 
HETATM   11  C20 UNL     1       2.386  67.341 -40.156  1.00  0.00     0.060 A 
HETATM   12  N1  UNL     1       0.345  66.673 -40.948  1.00  0.00    -0.279 N 
HETATM   13  H8  UNL     1      -0.210  65.752 -39.224  1.00  0.00     0.187 HD
HETATM   14  C4  UNL     1       1.476  67.325 -41.231  1.00  0.00     0.171 A 
ATOM     15  H1  UNL     1      -0.464  66.515 -41.550  1.00  0.00     0.189 HD
HETATM   16  C19 UNL     1       3.659  67.848 -39.911  1.00  0.00     0.108 A 
HETATM   17  N5  UNL     1       4.242  67.655 -38.699  1.00  0.00    -0.351 N 
ATOM     18  H5  UNL     1       5.177  68.022 -38.524  1.00  0.00     0.166 HD
BRANCH  14  19
HETATM   19  O2  UNL     1       1.682  67.893 -42.439  1.00  0.00    -0.332 OA
BRANCH  19  20
HETATM   20  C3  UNL     1       1.411  69.297 -42.519  1.00  0.00     0.203 C 
BRANCH  20  21
HETATM   21  C2  UNL     1       0.262  69.710 -41.597  1.00  0.00     0.193 C 
BRANCH  21  22
HETATM   22  O1  UNL     1      -0.988  69.376 -42.215  1.00  0.00    -0.394 OA
HETATM   23  C1  UNL     1      -2.059  69.414 -41.283  1.00  0.00     0.201 C 
ENDBRANCH  21  22
ENDBRANCH  20  21
ENDBRANCH  19  20
ENDBRANCH  14  19
ENDBRANCH   1   7
BRANCH   4  24
HETATM   24  C9  UNL     1       5.649  64.578 -33.951  1.00  0.00     0.153 C 
BRANCH  24  25
HETATM   25  C10 UNL     1       6.970  64.120 -34.589  1.00  0.00    -0.032 A 
HETATM   26  C11 UNL     1       7.632  64.975 -35.485  1.00  0.00     0.011 A 
HETATM   27  C12 UNL     1       8.833  64.590 -36.088  1.00  0.00     0.024 A 
HETATM   28  C13 UNL     1       9.386  63.347 -35.797  1.00  0.00     0.034 A 
HETATM   29 CL1  UNL     1      10.864  62.872 -36.539  1.00  0.00    -0.084 Cl
HETATM   30  C14 UNL     1       8.750  62.486 -34.907  1.00  0.00     0.024 A 
HETATM   31  C15 UNL     1       7.550  62.870 -34.304  1.00  0.00     0.011 A 
ENDBRANCH  24  25
BRANCH  24  32
HETATM   32  C16 UNL     1       4.619  63.396 -33.758  1.00  0.00     0.075 C 
HETATM   33  C17 UNL     1       5.065  62.115 -34.478  1.00  0.00     0.048 C 
HETATM   34  C18 UNL     1       4.347  63.063 -32.284  1.00  0.00     0.048 C 
BRANCH  32  35
HETATM   35  O4  UNL     1       3.362  63.771 -34.358  1.00  0.00    -0.388 OA
HETATM   36  H23 UNL     1       2.744  63.028 -34.250  1.00  0.00     0.210 HD
ENDBRANCH  32  35
ENDBRANCH  24  32
ENDBRANCH   4  24
TORSDOF 9
ENDMDL
MODEL 5
REMARK minimizedAffinity -7.67959261
REMARK  9 active torsions:
REMARK  status: ('A' for Active; 'I' for Inactive)
REMARK    1  A    between atoms: O1_2  and  C2_3 
REMARK    2  A    between atoms: C2_3  and  C3_4 
REMARK    3  A    between atoms: C3_4  and  O2_5 
REMARK    4  A    between atoms: O2_5  and  C4_6 
REMARK    5  A    between atoms: C7_12  and  N3_13 
REMARK       I    between atoms: N3_13  and  C8_14 
REMARK       I    between atoms: C8_14  and  N4_16 
REMARK    6  A    between atoms: N4_16  and  C9_17 
REMARK    7  A    between atoms: C9_17  and  C10_18 
REMARK    8  A    between atoms: C9_17  and  C16_25 
REMARK    9  A    between atoms: C16_25  and  O4_28 
ROOT
HETATM    1  N3  UNL     1      -5.296  47.969 -27.911  1.00  0.00    -0.295 N 
HETATM    2  C8  UNL     1      -5.634  47.723 -29.223  1.00  0.00     0.322 C 
HETATM    3  O3  UNL     1      -5.088  48.153 -30.227  1.00  0.00    -0.247 OA
HETATM    4  N4  UNL     1      -6.719  46.860 -29.273  1.00  0.00    -0.331 N 
HETATM    5  H10 UNL     1      -5.682  47.337 -27.231  1.00  0.00     0.172 HD
HETATM    6  H11 UNL     1      -7.404  47.102 -28.572  1.00  0.00     0.165 HD
ENDROOT
BRANCH   1   7
HETATM    7  C7  UNL     1      -4.315  48.870 -27.475  1.00  0.00     0.111 A 
HETATM    8  C6  UNL     1      -3.813  48.672 -26.188  1.00  0.00     0.080 A 
HETATM    9  C5  UNL     1      -2.848  49.590 -25.771  1.00  0.00     0.067 A 
HETATM   10  N2  UNL     1      -2.135  49.720 -24.610  1.00  0.00    -0.298 N 
HETATM   11  C20 UNL     1      -2.420  50.633 -26.582  1.00  0.00     0.060 A 
HETATM   12  N1  UNL     1      -1.284  50.764 -24.599  1.00  0.00    -0.279 N 
HETATM   13  H8  UNL     1      -2.181  49.133 -23.785  1.00  0.00     0.187 HD
HETATM   14  C4  UNL     1      -1.460  51.310 -25.805  1.00  0.00     0.171 A 
ATOM     15  H1  UNL     1      -0.657  51.064 -23.852  1.00  0.00     0.189 HD
HETATM   16  C19 UNL     1      -2.977  50.766 -27.851  1.00  0.00     0.108 A 
HETATM   17  N5  UNL     1      -3.919  49.882 -28.271  1.00  0.00    -0.351 N 
ATOM     18  H5  UNL     1      -4.329  49.985 -29.199  1.00  0.00     0.166 HD
BRANCH  14  19
HETATM   19  O2  UNL     1      -0.767  52.403 -26.195  1.00  0.00    -0.332 OA
BRANCH  19  20
HETATM   20  C3  UNL     1      -0.485  52.491 -27.596  1.00  0.00     0.203 C 
BRANCH  20  21
HETATM   21  C2  UNL     1       0.969  52.134 -27.909  1.00  0.00     0.193 C 
BRANCH  21  22
HETATM   22  O1  UNL     1       1.786  52.418 -26.765  1.00  0.00    -0.394 OA
HETATM   23  C1  UNL     1       2.546  51.285 -26.371  1.00  0.00     0.201 C 
ENDBRANCH  21  22
ENDBRANCH  20  21
ENDBRANCH  19  20
ENDBRANCH  14  19
ENDBRANCH   1   7
BRANCH   4  24
HETATM   24  C9  UNL     1      -7.302  46.464 -30.564  1.00  0.00     0.153 C 
BRANCH  24  25
HETATM   25  C10 UNL     1      -6.408  45.399 -31.218  1.00  0.00    -0.032 A 
HETATM   26  C11 UNL     1      -5.209  45.793 -31.835  1.00  0.00     0.011 A 
HETATM   27  C12 UNL     1      -4.373  44.854 -32.444  1.00  0.00     0.024 A 
HETATM   28  C13 UNL     1      -4.727  43.508 -32.440  1.00  0.00     0.034 A 
HETATM   29 CL1  UNL     1      -3.699  42.349 -33.189  1.00  0.00    -0.084 Cl
HETATM   30  C14 UNL     1      -5.906  43.093 -31.828  1.00  0.00     0.024 A 
HETATM   31  C15 UNL     1      -6.742  44.032 -31.219  1.00  0.00     0.011 A 
ENDBRANCH  24  25
BRANCH  24  32
HETATM   32  C16 UNL     1      -7.627  47.669 -31.532  1.00  0.00     0.075 C 
HETATM   33  C17 UNL     1      -8.614  47.274 -32.639  1.00  0.00     0.048 C 
HETATM   34  C18 UNL     1      -8.173  48.904 -30.802  1.00  0.00     0.048 C 
BRANCH  32  35
HETATM   35  O4  UNL     1      -6.414  48.065 -32.206  1.00  0.00    -0.388 OA
HETATM   36  H23 UNL     1      -6.631  48.793 -32.813  1.00  0.00     0.210 HD
ENDBRANCH  32  35
ENDBRANCH  24  32
ENDBRANCH   4  24
TORSDOF 9
ENDMDL
MODEL 6
REMARK minimizedAffinity -7.67384624
REMARK  9 active torsions:
REMARK  status: ('A' for Active; 'I' for Inactive)
REMARK    1  A    between atoms: O1_2  and  C2_3 
REMARK    2  A    between atoms: C2_3  and  C3_4 
REMARK    3  A    between atoms: C3_4  and  O2_5 
REMARK    4  A    between atoms: O2_5  and  C4_6 
REMARK    5  A    between atoms: C7_12  and  N3_13 
REMARK       I    between atoms: N3_13  and  C8_14 
REMARK       I    between atoms: C8_14  and  N4_16 
REMARK    6  A    between atoms: N4_16  and  C9_17 
REMARK    7  A    between atoms: C9_17  and  C10_18 
REMARK    8  A    between atoms: C9_17  and  C16_25 
REMARK    9  A    between atoms: C16_25  and  O4_28 
ROOT
HETATM    1  N3  UNL     1       1.107  53.049 -17.529  1.00  0.00    -0.295 N 
HETATM    2  C8  UNL     1       1.043  52.013 -16.624  1.00  0.00     0.322 C 
HETATM    3  O3  UNL     1       0.874  50.826 -16.859  1.00  0.00    -0.247 OA
HETATM    4  N4  UNL     1       1.226  52.502 -15.339  1.00  0.00    -0.331 N 
HETATM    5  H10 UNL     1       1.505  53.906 -17.189  1.00  0.00     0.172 HD
HETATM    6  H11 UNL     1       0.725  53.369 -15.210  1.00  0.00     0.165 HD
ENDROOT
BRANCH   1   7
HETATM    7  C7  UNL     1       0.869  52.947 -18.907  1.00  0.00     0.111 A 
HETATM    8  C6  UNL     1      -0.058  51.985 -19.312  1.00  0.00     0.080 A 
HETATM    9  C5  UNL     1      -0.268  51.893 -20.687  1.00  0.00     0.067 A 
HETATM   10  N2  UNL     1      -1.081  51.097 -21.449  1.00  0.00    -0.298 N 
HETATM   11  C20 UNL     1       0.404  52.702 -21.594  1.00  0.00     0.060 A 
HETATM   12  N1  UNL     1      -0.988  51.320 -22.774  1.00  0.00    -0.279 N 
HETATM   13  H8  UNL     1      -1.723  50.381 -21.129  1.00  0.00     0.187 HD
HETATM   14  C4  UNL     1      -0.086  52.302 -22.852  1.00  0.00     0.171 A 
ATOM     15  H1  UNL     1      -1.485  50.853 -23.533  1.00  0.00     0.189 HD
HETATM   16  C19 UNL     1       1.320  53.632 -21.110  1.00  0.00     0.108 A 
HETATM   17  N5  UNL     1       1.537  53.733 -19.772  1.00  0.00    -0.351 N 
ATOM     18  H5  UNL     1       2.213  54.411 -19.420  1.00  0.00     0.166 HD
BRANCH  14  19
HETATM   19  O2  UNL     1       0.289  52.825 -24.041  1.00  0.00    -0.332 OA
BRANCH  19  20
HETATM   20  C3  UNL     1       0.195  51.943 -25.165  1.00  0.00     0.203 C 
BRANCH  20  21
HETATM   21  C2  UNL     1      -0.638  52.548 -26.296  1.00  0.00     0.193 C 
BRANCH  21  22
HETATM   22  O1  UNL     1      -1.864  53.065 -25.761  1.00  0.00    -0.394 OA
HETATM   23  C1  UNL     1      -2.921  52.122 -25.868  1.00  0.00     0.201 C 
ENDBRANCH  21  22
ENDBRANCH  20  21
ENDBRANCH  19  20
ENDBRANCH  14  19
ENDBRANCH   1   7
BRANCH   4  24
HETATM   24  C9  UNL     1       1.168  51.599 -14.180  1.00  0.00     0.153 C 
BRANCH  24  25
HETATM   25  C10 UNL     1       0.026  52.040 -13.252  1.00  0.00    -0.032 A 
HETATM   26  C11 UNL     1      -1.246  51.462 -13.405  1.00  0.00     0.011 A 
HETATM   27  C12 UNL     1      -2.310  51.842 -12.583  1.00  0.00     0.024 A 
HETATM   28  C13 UNL     1      -2.112  52.802 -11.595  1.00  0.00     0.034 A 
HETATM   29 CL1  UNL     1      -3.422  53.271 -10.582  1.00  0.00    -0.084 Cl
HETATM   30  C14 UNL     1      -0.860  53.383 -11.421  1.00  0.00     0.024 A 
HETATM   31  C15 UNL     1       0.204  53.005 -12.242  1.00  0.00     0.011 A 
ENDBRANCH  24  25
BRANCH  24  32
HETATM   32  C16 UNL     1       2.541  51.421 -13.419  1.00  0.00     0.075 C 
HETATM   33  C17 UNL     1       2.403  50.536 -12.173  1.00  0.00     0.048 C 
HETATM   34  C18 UNL     1       3.657  50.852 -14.307  1.00  0.00     0.048 C 
BRANCH  32  35
HETATM   35  O4  UNL     1       2.980  52.710 -12.943  1.00  0.00    -0.388 OA
HETATM   36  H23 UNL     1       3.815  52.584 -12.460  1.00  0.00     0.210 HD
ENDBRANCH  32  35
ENDBRANCH  24  32
ENDBRANCH   4  24
TORSDOF 9
ENDMDL
MODEL 7
REMARK minimizedAffinity -7.58234501
REMARK  9 active torsions:
REMARK  status: ('A' for Active; 'I' for Inactive)
REMARK    1  A    between atoms: O1_2  and  C2_3 
REMARK    2  A    between atoms: C2_3  and  C3_4 
REMARK    3  A    between atoms: C3_4  and  O2_5 
REMARK    4  A    between atoms: O2_5  and  C4_6 
REMARK    5  A    between atoms: C7_12  and  N3_13 
REMARK       I    between atoms: N3_13  and  C8_14 
REMARK       I    between atoms: C8_14  and  N4_16 
REMARK    6  A    between atoms: N4_16  and  C9_17 
REMARK    7  A    between atoms: C9_17  and  C10_18 
REMARK    8  A    between atoms: C9_17  and  C16_25 
REMARK    9  A    between atoms: C16_25  and  O4_28 
ROOT
HETATM    1  N3  UNL     1      -0.433  50.465 -21.110  1.00  0.00    -0.295 N 
HETATM    2  C8  UNL     1      -1.073  50.860 -19.958  1.00  0.00     0.322 C 
HETATM    3  O3  UNL     1      -1.855  51.788 -19.819  1.00  0.00    -0.247 OA
HETATM    4  N4  UNL     1      -0.722  50.015 -18.915  1.00  0.00    -0.331 N 
HETATM    5  H10 UNL     1      -0.037  49.541 -21.100  1.00  0.00     0.172 HD
HETATM    6  H11 UNL     1       0.264  49.800 -18.942  1.00  0.00     0.165 HD
ENDROOT
BRANCH   1   7
HETATM    7  C7  UNL     1      -0.469  51.140 -22.338  1.00  0.00     0.111 A 
HETATM    8  C6  UNL     1       0.354  52.261 -22.460  1.00  0.00     0.080 A 
HETATM    9  C5  UNL     1       0.290  52.923 -23.686  1.00  0.00     0.067 A 
HETATM   10  N2  UNL     1       0.933  54.029 -24.176  1.00  0.00    -0.298 N 
HETATM   11  C20 UNL     1      -0.541  52.499 -24.714  1.00  0.00     0.060 A 
HETATM   12  N1  UNL     1       0.584  54.358 -25.434  1.00  0.00    -0.279 N 
HETATM   13  H8  UNL     1       1.620  54.606 -23.704  1.00  0.00     0.187 HD
HETATM   14  C4  UNL     1      -0.310  53.419 -25.756  1.00  0.00     0.171 A 
ATOM     15  H1  UNL     1       0.919  55.136 -26.003  1.00  0.00     0.189 HD
HETATM   16  C19 UNL     1      -1.338  51.376 -24.510  1.00  0.00     0.108 A 
HETATM   17  N5  UNL     1      -1.288  50.719 -23.321  1.00  0.00    -0.351 N 
ATOM     18  H5  UNL     1      -1.877  49.901 -23.172  1.00  0.00     0.166 HD
BRANCH  14  19
HETATM   19  O2  UNL     1      -0.907  53.395 -26.968  1.00  0.00    -0.332 OA
BRANCH  19  20
HETATM   20  C3  UNL     1      -0.051  53.092 -28.075  1.00  0.00     0.203 C 
BRANCH  20  21
HETATM   21  C2  UNL     1       0.611  51.720 -27.927  1.00  0.00     0.193 C 
BRANCH  21  22
HETATM   22  O1  UNL     1       2.035  51.881 -27.881  1.00  0.00    -0.394 OA
HETATM   23  C1  UNL     1       2.572  51.434 -26.645  1.00  0.00     0.201 C 
ENDBRANCH  21  22
ENDBRANCH  20  21
ENDBRANCH  19  20
ENDBRANCH  14  19
ENDBRANCH   1   7
BRANCH   4  24
HETATM   24  C9  UNL     1      -1.246  50.243 -17.559  1.00  0.00     0.153 C 
BRANCH  24  25
HETATM   25  C10 UNL     1      -0.071  50.443 -16.589  1.00  0.00    -0.032 A 
HETATM   26  C11 UNL     1       0.341  49.371 -15.780  1.00  0.00     0.011 A 
HETATM   27  C12 UNL     1       1.403  49.517 -14.882  1.00  0.00     0.024 A 
HETATM   28  C13 UNL     1       2.065  50.737 -14.788  1.00  0.00     0.034 A 
HETATM   29 CL1  UNL     1       3.372  50.919 -13.683  1.00  0.00    -0.084 Cl
HETATM   30  C14 UNL     1       1.678  51.811 -15.584  1.00  0.00     0.024 A 
HETATM   31  C15 UNL     1       0.617  51.665 -16.482  1.00  0.00     0.011 A 
ENDBRANCH  24  25
BRANCH  24  32
HETATM   32  C16 UNL     1      -2.271  49.149 -17.062  1.00  0.00     0.075 C 
HETATM   33  C17 UNL     1      -2.589  49.289 -15.567  1.00  0.00     0.048 C 
HETATM   34  C18 UNL     1      -3.590  49.151 -17.848  1.00  0.00     0.048 C 
BRANCH  32  35
HETATM   35  O4  UNL     1      -1.674  47.845 -17.219  1.00  0.00    -0.388 OA
HETATM   36  H23 UNL     1      -2.307  47.183 -16.891  1.00  0.00     0.210 HD
ENDBRANCH  32  35
ENDBRANCH  24  32
ENDBRANCH   4  24
TORSDOF 9
ENDMDL
MODEL 8
REMARK minimizedAffinity -7.57254553
REMARK  9 active torsions:
REMARK  status: ('A' for Active; 'I' for Inactive)
REMARK    1  A    between atoms: O1_2  and  C2_3 
REMARK    2  A    between atoms: C2_3  and  C3_4 
REMARK    3  A    between atoms: C3_4  and  O2_5 
REMARK    4  A    between atoms: O2_5  and  C4_6 
REMARK    5  A    between atoms: C7_12  and  N3_13 
REMARK       I    between atoms: N3_13  and  C8_14 
REMARK       I    between atoms: C8_14  and  N4_16 
REMARK    6  A    between atoms: N4_16  and  C9_17 
REMARK    7  A    between atoms: C9_17  and  C10_18 
REMARK    8  A    between atoms: C9_17  and  C16_25 
REMARK    9  A    between atoms: C16_25  and  O4_28 
ROOT
HETATM    1  N3  UNL     1      -0.679  50.828 -22.125  1.00  0.00    -0.295 N 
HETATM    2  C8  UNL     1      -1.136  51.582 -23.182  1.00  0.00     0.322 C 
HETATM    3  O3  UNL     1      -1.925  52.514 -23.148  1.00  0.00    -0.247 OA
HETATM    4  N4  UNL     1      -0.543  51.147 -24.358  1.00  0.00    -0.331 N 
HETATM    5  H10 UNL     1       0.149  50.285 -22.298  1.00  0.00     0.172 HD
HETATM    6  H11 UNL     1      -0.501  50.139 -24.389  1.00  0.00     0.165 HD
ENDROOT
BRANCH   1   7
HETATM    7  C7  UNL     1      -1.132  50.916 -20.802  1.00  0.00     0.111 A 
HETATM    8  C6  UNL     1      -0.195  50.655 -19.801  1.00  0.00     0.080 A 
HETATM    9  C5  UNL     1      -0.673  50.735 -18.493  1.00  0.00     0.067 A 
HETATM   10  N2  UNL     1      -0.073  50.557 -17.275  1.00  0.00    -0.298 N 
HETATM   11  C20 UNL     1      -1.995  51.048 -18.207  1.00  0.00     0.060 A 
HETATM   12  N1  UNL     1      -0.897  50.725 -16.224  1.00  0.00    -0.279 N 
HETATM   13  H8  UNL     1       0.895  50.319 -17.090  1.00  0.00     0.187 HD
HETATM   14  C4  UNL     1      -2.064  51.029 -16.800  1.00  0.00     0.171 A 
ATOM     15  H1  UNL     1      -0.684  50.639 -15.230  1.00  0.00     0.189 HD
HETATM   16  C19 UNL     1      -2.870  51.287 -19.263  1.00  0.00     0.108 A 
HETATM   17  N5  UNL     1      -2.421  51.212 -20.543  1.00  0.00    -0.351 N 
ATOM     18  H5  UNL     1      -3.065  51.381 -21.315  1.00  0.00     0.166 HD
BRANCH  14  19
HETATM   19  O2  UNL     1      -3.170  51.281 -16.067  1.00  0.00    -0.332 OA
BRANCH  19  20
HETATM   20  C3  UNL     1      -3.094  50.921 -14.683  1.00  0.00     0.203 C 
BRANCH  20  21
HETATM   21  C2  UNL     1      -3.139  52.148 -13.770  1.00  0.00     0.193 C 
BRANCH  21  22
HETATM   22  O1  UNL     1      -2.621  51.799 -12.479  1.00  0.00    -0.394 OA
HETATM   23  C1  UNL     1      -3.643  51.326 -11.615  1.00  0.00     0.201 C 
ENDBRANCH  21  22
ENDBRANCH  20  21
ENDBRANCH  19  20
ENDBRANCH  14  19
ENDBRANCH   1   7
BRANCH   4  24
HETATM   24  C9  UNL     1      -0.890  51.769 -25.646  1.00  0.00     0.153 C 
BRANCH  24  25
HETATM   25  C10 UNL     1      -1.874  50.860 -26.398  1.00  0.00    -0.032 A 
HETATM   26  C11 UNL     1      -2.018  49.521 -25.995  1.00  0.00     0.011 A 
HETATM   27  C12 UNL     1      -2.900  48.663 -26.658  1.00  0.00     0.024 A 
HETATM   28  C13 UNL     1      -3.650  49.137 -27.730  1.00  0.00     0.034 A 
HETATM   29 CL1  UNL     1      -4.736  48.082 -28.548  1.00  0.00    -0.084 Cl
HETATM   30  C14 UNL     1      -3.529  50.461 -28.142  1.00  0.00     0.024 A 
HETATM   31  C15 UNL     1      -2.648  51.319 -27.480  1.00  0.00     0.011 A 
ENDBRANCH  24  25
BRANCH  24  32
HETATM   32  C16 UNL     1       0.352  52.188 -26.526  1.00  0.00     0.075 C 
HETATM   33  C17 UNL     1       1.680  51.719 -25.915  1.00  0.00     0.048 C 
HETATM   34  C18 UNL     1       0.269  51.682 -27.973  1.00  0.00     0.048 C 
BRANCH  32  35
HETATM   35  O4  UNL     1       0.425  53.628 -26.573  1.00  0.00    -0.388 OA
HETATM   36  H23 UNL     1       1.204  53.873 -27.101  1.00  0.00     0.210 HD
ENDBRANCH  32  35
ENDBRANCH  24  32
ENDBRANCH   4  24
TORSDOF 9
ENDMDL
MODEL 9
REMARK minimizedAffinity -7.55134964
REMARK  9 active torsions:
REMARK  status: ('A' for Active; 'I' for Inactive)
REMARK    1  A    between atoms: O1_2  and  C2_3 
REMARK    2  A    between atoms: C2_3  and  C3_4 
REMARK    3  A    between atoms: C3_4  and  O2_5 
REMARK    4  A    between atoms: O2_5  and  C4_6 
REMARK    5  A    between atoms: C7_12  and  N3_13 
REMARK       I    between atoms: N3_13  and  C8_14 
REMARK       I    between atoms: C8_14  and  N4_16 
REMARK    6  A    between atoms: N4_16  and  C9_17 
REMARK    7  A    between atoms: C9_17  and  C10_18 
REMARK    8  A    between atoms: C9_17  and  C16_25 
REMARK    9  A    between atoms: C16_25  and  O4_28 
ROOT
HETATM    1  N3  UNL     1      -4.259  48.141 -27.859  1.00  0.00    -0.295 N 
HETATM    2  C8  UNL     1      -4.676  48.576 -29.096  1.00  0.00     0.322 C 
HETATM    3  O3  UNL     1      -4.361  49.607 -29.670  1.00  0.00    -0.247 OA
HETATM    4  N4  UNL     1      -5.532  47.640 -29.658  1.00  0.00    -0.331 N 
HETATM    5  H10 UNL     1      -4.410  47.167 -27.661  1.00  0.00     0.172 HD
HETATM    6  H11 UNL     1      -6.171  47.275 -28.966  1.00  0.00     0.165 HD
ENDROOT
BRANCH   1   7
HETATM    7  C7  UNL     1      -3.468  48.870 -26.960  1.00  0.00     0.111 A 
HETATM    8  C6  UNL     1      -3.558  48.509 -25.614  1.00  0.00     0.080 A 
HETATM    9  C5  UNL     1      -2.773  49.258 -24.737  1.00  0.00     0.067 A 
HETATM   10  N2  UNL     1      -2.592  49.205 -23.381  1.00  0.00    -0.298 N 
HETATM   11  C20 UNL     1      -1.961  50.296 -25.174  1.00  0.00     0.060 A 
HETATM   12  N1  UNL     1      -1.732  50.124 -22.903  1.00  0.00    -0.279 N 
HETATM   13  H8  UNL     1      -3.024  48.566 -22.722  1.00  0.00     0.187 HD
HETATM   14  C4  UNL     1      -1.349  50.780 -24.001  1.00  0.00     0.171 A 
ATOM     15  H1  UNL     1      -1.444  50.282 -21.936  1.00  0.00     0.189 HD
HETATM   16  C19 UNL     1      -1.933  50.598 -26.532  1.00  0.00     0.108 A 
HETATM   17  N5  UNL     1      -2.693  49.879 -27.400  1.00  0.00    -0.351 N 
ATOM     18  H5  UNL     1      -2.676  50.106 -28.394  1.00  0.00     0.166 HD
BRANCH  14  19
HETATM   19  O2  UNL     1      -0.464  51.800 -23.944  1.00  0.00    -0.332 OA
BRANCH  19  20
HETATM   20  C3  UNL     1      -0.832  52.982 -24.664  1.00  0.00     0.203 C 
BRANCH  20  21
HETATM   21  C2  UNL     1       0.324  53.981 -24.751  1.00  0.00     0.193 C 
BRANCH  21  22
HETATM   22  O1  UNL     1       0.270  54.662 -26.011  1.00  0.00    -0.394 OA
HETATM   23  C1  UNL     1      -0.091  53.782 -27.067  1.00  0.00     0.201 C 
ENDBRANCH  21  22
ENDBRANCH  20  21
ENDBRANCH  19  20
ENDBRANCH  14  19
ENDBRANCH   1   7
BRANCH   4  24
HETATM   24  C9  UNL     1      -6.150  47.882 -30.970  1.00  0.00     0.153 C 
BRANCH  24  25
HETATM   25  C10 UNL     1      -7.515  47.181 -31.025  1.00  0.00    -0.032 A 
HETATM   26  C11 UNL     1      -7.611  45.832 -30.642  1.00  0.00     0.011 A 
HETATM   27  C12 UNL     1      -8.835  45.160 -30.683  1.00  0.00     0.024 A 
HETATM   28  C13 UNL     1      -9.979  45.831 -31.105  1.00  0.00     0.034 A 
HETATM   29 CL1  UNL     1     -11.487  45.004 -31.156  1.00  0.00    -0.084 Cl
HETATM   30  C14 UNL     1      -9.910  47.168 -31.482  1.00  0.00     0.024 A 
HETATM   31  C15 UNL     1      -8.686  47.842 -31.442  1.00  0.00     0.011 A 
ENDBRANCH  24  25
BRANCH  24  32
HETATM   32  C16 UNL     1      -5.229  47.526 -32.203  1.00  0.00     0.075 C 
HETATM   33  C17 UNL     1      -4.412  46.248 -31.967  1.00  0.00     0.048 C 
HETATM   34  C18 UNL     1      -6.005  47.380 -33.519  1.00  0.00     0.048 C 
BRANCH  32  35
HETATM   35  O4  UNL     1      -4.264  48.584 -32.384  1.00  0.00    -0.388 OA
HETATM   36  H23 UNL     1      -3.691  48.344 -33.132  1.00  0.00     0.210 HD
ENDBRANCH  32  35
ENDBRANCH  24  32
ENDBRANCH   4  24
TORSDOF 9
ENDMDL
