MODEL 1
REMARK minimizedAffinity -8.32843685
REMARK  5 active torsions:
REMARK  status: ('A' for Active; 'I' for Inactive)
REMARK    1  A    between atoms: C2_2  and  C3_3 
REMARK       I    between atoms: C3_3  and  N1_5 
REMARK    2  A    between atoms: N1_5  and  C4_6 
REMARK    3  A    between atoms: C9_11  and  N2_12 
REMARK    4  A    between atoms: N2_12  and  C10_13 
REMARK    5  A    between atoms: C11_16  and  N4_17 
ROOT
HETATM    1  C10 UNL     1      -2.037  50.394 -22.426  1.00  0.00     0.124 A 
HETATM    2  N3  UNL     1      -3.066  50.021 -23.218  1.00  0.00    -0.179 N 
ATOM      3  H3  UNL     1      -3.588  50.716 -23.753  1.00  0.00     0.185 HD
HETATM    4  C11 UNL     1      -3.392  48.720 -23.290  1.00  0.00     0.684 A 
HETATM    5  N7  UNL     1      -2.748  47.764 -22.604  1.00  0.00    -0.200 N 
ATOM      6  H7  UNL     1      -3.010  46.782 -22.689  1.00  0.00     0.183 HD
HETATM    7  C16 UNL     1      -1.742  48.156 -21.800  1.00  0.00     0.133 A 
HETATM    8  C17 UNL     1      -1.346  49.463 -21.661  1.00  0.00     0.089 A 
HETATM    9 CL1  UNL     1      -0.053  49.886 -20.610  1.00  0.00    -0.079 Cl
ENDROOT
BRANCH   1  10
HETATM   10  N2  UNL     1      -1.734  51.779 -22.283  1.00  0.00    -0.241 NA
HETATM   11  H9  UNL     1      -2.582  52.256 -21.968  1.00  0.00     0.135 HD
BRANCH  10  12
HETATM   12  C9  UNL     1      -0.650  52.319 -21.525  1.00  0.00     0.041 A 
HETATM   13  C4  UNL     1       0.535  52.691 -22.205  1.00  0.00     0.056 A 
HETATM   14  C5  UNL     1       1.555  53.346 -21.512  1.00  0.00     0.031 A 
HETATM   15  C6  UNL     1       1.404  53.647 -20.156  1.00  0.00     0.002 A 
HETATM   16  C7  UNL     1       0.234  53.304 -19.487  1.00  0.00     0.002 A 
HETATM   17  C8  UNL     1      -0.795  52.655 -20.171  1.00  0.00     0.026 A 
BRANCH  13  18
HETATM   18  N1  UNL     1       0.616  52.339 -23.573  1.00  0.00    -0.322 N 
HETATM   19  C3  UNL     1       0.699  53.181 -24.659  1.00  0.00     0.244 C 
HETATM   20  O1  UNL     1       0.667  54.404 -24.653  1.00  0.00    -0.268 OA
HETATM   21  H4  UNL     1       0.646  51.339 -23.728  1.00  0.00     0.169 HD
BRANCH  19  22
HETATM   22  C2  UNL     1       0.827  52.419 -25.936  1.00  0.00     0.064 C 
HETATM   23  C1  UNL     1       1.795  51.505 -26.091  1.00  0.00     0.017 C 
ENDBRANCH  19  22
ENDBRANCH  13  18
ENDBRANCH  10  12
ENDBRANCH   1  10
BRANCH   4  24
HETATM   24  N4  UNL     1      -4.463  48.434 -24.138  1.00  0.00    -0.175 N 
HETATM   25  C12 UNL     1      -4.487  48.393 -25.491  1.00  0.00     0.138 A 
HETATM   26  C13 UNL     1      -3.533  48.628 -26.458  1.00  0.00     0.069 A 
HETATM   27  N6  UNL     1      -5.628  48.063 -26.191  1.00  0.00    -0.281 N 
HETATM   28  C14 UNL     1      -4.186  48.419 -27.686  1.00  0.00     0.111 A 
HETATM   29  N5  UNL     1      -5.464  48.076 -27.530  1.00  0.00    -0.308 N 
ATOM     30  H5  UNL     1      -6.156  47.873 -28.253  1.00  0.00     0.186 HD
HETATM   31  C15 UNL     1      -6.920  47.719 -25.648  1.00  0.00     0.179 C 
HETATM   32  H10 UNL     1      -5.268  48.225 -23.558  1.00  0.00     0.186 HD
ENDBRANCH   4  24
TORSDOF 5
ENDMDL
MODEL 2
REMARK minimizedAffinity -8.27691078
REMARK  5 active torsions:
REMARK  status: ('A' for Active; 'I' for Inactive)
REMARK    1  A    between atoms: C2_2  and  C3_3 
REMARK       I    between atoms: C3_3  and  N1_5 
REMARK    2  A    between atoms: N1_5  and  C4_6 
REMARK    3  A    between atoms: C9_11  and  N2_12 
REMARK    4  A    between atoms: N2_12  and  C10_13 
REMARK    5  A    between atoms: C11_16  and  N4_17 
ROOT
HETATM    1  C10 UNL     1      -2.916  51.380 -22.970  1.00  0.00     0.124 A 
HETATM    2  N3  UNL     1      -2.047  51.586 -21.956  1.00  0.00    -0.179 N 
ATOM      3  H3  UNL     1      -1.182  52.103 -22.112  1.00  0.00     0.185 HD
HETATM    4  C11 UNL     1      -2.341  51.097 -20.740  1.00  0.00     0.684 A 
HETATM    5  N7  UNL     1      -3.459  50.403 -20.479  1.00  0.00    -0.200 N 
ATOM      6  H7  UNL     1      -3.661  50.055 -19.542  1.00  0.00     0.183 HD
HETATM    7  C16 UNL     1      -4.301  50.185 -21.507  1.00  0.00     0.133 A 
HETATM    8  C17 UNL     1      -4.078  50.642 -22.782  1.00  0.00     0.089 A 
HETATM    9 CL1  UNL     1      -5.200  50.319 -24.043  1.00  0.00    -0.079 Cl
ENDROOT
BRANCH   1  10
HETATM   10  N2  UNL     1      -2.578  51.827 -24.280  1.00  0.00    -0.241 NA
HETATM   11  H9  UNL     1      -2.865  52.805 -24.363  1.00  0.00     0.135 HD
BRANCH  10  12
HETATM   12  C9  UNL     1      -1.290  51.721 -24.888  1.00  0.00     0.041 A 
HETATM   13  C4  UNL     1      -1.085  50.728 -25.877  1.00  0.00     0.056 A 
HETATM   14  C5  UNL     1       0.119  50.692 -26.584  1.00  0.00     0.031 A 
HETATM   15  C6  UNL     1       1.115  51.637 -26.327  1.00  0.00     0.002 A 
HETATM   16  C7  UNL     1       0.912  52.629 -25.372  1.00  0.00     0.002 A 
HETATM   17  C8  UNL     1      -0.290  52.680 -24.666  1.00  0.00     0.026 A 
BRANCH  13  18
HETATM   18  N1  UNL     1      -2.136  49.799 -26.068  1.00  0.00    -0.322 N 
HETATM   19  C3  UNL     1      -2.955  49.664 -27.166  1.00  0.00     0.244 C 
HETATM   20  O1  UNL     1      -2.966  50.358 -28.173  1.00  0.00    -0.268 OA
HETATM   21  H4  UNL     1      -2.245  49.155 -25.295  1.00  0.00     0.169 HD
BRANCH  19  22
HETATM   22  C2  UNL     1      -3.905  48.524 -27.004  1.00  0.00     0.064 C 
HETATM   23  C1  UNL     1      -4.750  48.194 -27.990  1.00  0.00     0.017 C 
ENDBRANCH  19  22
ENDBRANCH  13  18
ENDBRANCH  10  12
ENDBRANCH   1  10
BRANCH   4  24
HETATM   24  N4  UNL     1      -1.386  51.366 -19.759  1.00  0.00    -0.175 N 
HETATM   25  C12 UNL     1      -0.345  52.230 -19.802  1.00  0.00     0.138 A 
HETATM   26  C13 UNL     1       0.134  53.082 -20.775  1.00  0.00     0.069 A 
HETATM   27  N6  UNL     1       0.502  52.406 -18.729  1.00  0.00    -0.281 N 
HETATM   28  C14 UNL     1       1.252  53.714 -20.202  1.00  0.00     0.111 A 
HETATM   29  N5  UNL     1       1.484  53.304 -18.955  1.00  0.00    -0.308 N 
ATOM     30  H5  UNL     1       2.227  53.600 -18.322  1.00  0.00     0.186 HD
HETATM   31  C15 UNL     1       0.439  51.750 -17.445  1.00  0.00     0.179 C 
HETATM   32  H10 UNL     1      -1.611  50.803 -18.947  1.00  0.00     0.186 HD
ENDBRANCH   4  24
TORSDOF 5
ENDMDL
MODEL 3
REMARK minimizedAffinity -8.23158455
REMARK  5 active torsions:
REMARK  status: ('A' for Active; 'I' for Inactive)
REMARK    1  A    between atoms: C2_2  and  C3_3 
REMARK       I    between atoms: C3_3  and  N1_5 
REMARK    2  A    between atoms: N1_5  and  C4_6 
REMARK    3  A    between atoms: C9_11  and  N2_12 
REMARK    4  A    between atoms: N2_12  and  C10_13 
REMARK    5  A    between atoms: C11_16  and  N4_17 
ROOT
HETATM    1  C10 UNL     1      -2.186  50.450 -21.871  1.00  0.00     0.124 A 
HETATM    2  N3  UNL     1      -2.381  50.114 -23.165  1.00  0.00    -0.179 N 
ATOM      3  H3  UNL     1      -1.596  49.833 -23.752  1.00  0.00     0.185 HD
HETATM    4  C11 UNL     1      -3.627  50.156 -23.666  1.00  0.00     0.684 A 
HETATM    5  N7  UNL     1      -4.695  50.525 -22.944  1.00  0.00    -0.200 N 
ATOM      6  H7  UNL     1      -5.632  50.536 -23.348  1.00  0.00     0.183 HD
HETATM    7  C16 UNL     1      -4.479  50.882 -21.664  1.00  0.00     0.133 A 
HETATM    8  C17 UNL     1      -3.240  50.873 -21.072  1.00  0.00     0.089 A 
HETATM    9 CL1  UNL     1      -3.044  51.347 -19.432  1.00  0.00    -0.079 Cl
ENDROOT
BRANCH   1  10
HETATM   10  N2  UNL     1      -0.859  50.483 -21.352  1.00  0.00    -0.241 NA
HETATM   11  H9  UNL     1      -0.265  49.929 -21.973  1.00  0.00     0.135 HD
BRANCH  10  12
HETATM   12  C9  UNL     1      -0.125  51.662 -21.019  1.00  0.00     0.041 A 
HETATM   13  C4  UNL     1       0.455  52.419 -22.067  1.00  0.00     0.056 A 
HETATM   14  C5  UNL     1       1.058  53.646 -21.782  1.00  0.00     0.031 A 
HETATM   15  C6  UNL     1       1.080  54.134 -20.473  1.00  0.00     0.002 A 
HETATM   16  C7  UNL     1       0.493  53.406 -19.443  1.00  0.00     0.002 A 
HETATM   17  C8  UNL     1      -0.120  52.182 -19.716  1.00  0.00     0.026 A 
BRANCH  13  18
HETATM   18  N1  UNL     1       0.403  51.850 -23.361  1.00  0.00    -0.322 N 
HETATM   19  C3  UNL     1       0.661  52.465 -24.565  1.00  0.00     0.244 C 
HETATM   20  O1  UNL     1       0.936  53.642 -24.753  1.00  0.00    -0.268 OA
HETATM   21  H4  UNL     1       0.178  50.863 -23.356  1.00  0.00     0.169 HD
BRANCH  19  22
HETATM   22  C2  UNL     1       0.556  51.506 -25.704  1.00  0.00     0.064 C 
HETATM   23  C1  UNL     1       1.619  51.243 -26.476  1.00  0.00     0.017 C 
ENDBRANCH  19  22
ENDBRANCH  13  18
ENDBRANCH  10  12
ENDBRANCH   1  10
BRANCH   4  24
HETATM   24  N4  UNL     1      -3.727  49.787 -25.008  1.00  0.00    -0.175 N 
HETATM   25  C12 UNL     1      -3.414  50.505 -26.112  1.00  0.00     0.138 A 
HETATM   26  C13 UNL     1      -2.938  51.786 -26.299  1.00  0.00     0.069 A 
HETATM   27  N6  UNL     1      -3.542  49.985 -27.382  1.00  0.00    -0.281 N 
HETATM   28  C14 UNL     1      -2.817  51.940 -27.692  1.00  0.00     0.111 A 
HETATM   29  N5  UNL     1      -3.187  50.846 -28.359  1.00  0.00    -0.308 N 
ATOM     30  H5  UNL     1      -3.198  50.695 -29.368  1.00  0.00     0.186 HD
HETATM   31  C15 UNL     1      -4.001  48.666 -27.747  1.00  0.00     0.179 C 
HETATM   32  H10 UNL     1      -4.069  48.833 -25.041  1.00  0.00     0.186 HD
ENDBRANCH   4  24
TORSDOF 5
ENDMDL
MODEL 4
REMARK minimizedAffinity -8.1746912
REMARK  5 active torsions:
REMARK  status: ('A' for Active; 'I' for Inactive)
REMARK    1  A    between atoms: C2_2  and  C3_3 
REMARK       I    between atoms: C3_3  and  N1_5 
REMARK    2  A    between atoms: N1_5  and  C4_6 
REMARK    3  A    between atoms: C9_11  and  N2_12 
REMARK    4  A    between atoms: N2_12  and  C10_13 
REMARK    5  A    between atoms: C11_16  and  N4_17 
ROOT
HETATM    1  C10 UNL     1       0.144  52.284 -21.655  1.00  0.00     0.124 A 
HETATM    2  N3  UNL     1      -0.057  51.851 -20.391  1.00  0.00    -0.179 N 
ATOM      3  H3  UNL     1      -0.583  50.996 -20.213  1.00  0.00     0.185 HD
HETATM    4  C11 UNL     1       0.447  52.566 -19.372  1.00  0.00     0.684 A 
HETATM    5  N7  UNL     1       1.140  53.702 -19.545  1.00  0.00    -0.200 N 
ATOM      6  H7  UNL     1       1.522  54.218 -18.751  1.00  0.00     0.183 HD
HETATM    7  C16 UNL     1       1.308  54.133 -20.809  1.00  0.00     0.133 A 
HETATM    8  C17 UNL     1       0.823  53.469 -21.909  1.00  0.00     0.089 A 
HETATM    9 CL1  UNL     1       1.076  54.086 -23.493  1.00  0.00    -0.079 Cl
ENDROOT
BRANCH   1  10
HETATM   10  N2  UNL     1      -0.452  51.576 -22.738  1.00  0.00    -0.241 NA
HETATM   11  H9  UNL     1      -0.423  50.578 -22.515  1.00  0.00     0.135 HD
BRANCH  10  12
HETATM   12  C9  UNL     1      -1.741  51.839 -23.295  1.00  0.00     0.041 A 
HETATM   13  C4  UNL     1      -1.891  51.812 -24.703  1.00  0.00     0.056 A 
HETATM   14  C5  UNL     1      -3.163  51.929 -25.266  1.00  0.00     0.031 A 
HETATM   15  C6  UNL     1      -4.287  52.059 -24.446  1.00  0.00     0.002 A 
HETATM   16  C7  UNL     1      -4.150  52.064 -23.062  1.00  0.00     0.002 A 
HETATM   17  C8  UNL     1      -2.884  51.940 -22.487  1.00  0.00     0.026 A 
BRANCH  13  18
HETATM   18  N1  UNL     1      -0.704  51.691 -25.462  1.00  0.00    -0.322 N 
HETATM   19  C3  UNL     1      -0.162  52.607 -26.336  1.00  0.00     0.244 C 
HETATM   20  O1  UNL     1      -0.633  53.687 -26.663  1.00  0.00    -0.268 OA
HETATM   21  H4  UNL     1      -0.205  50.826 -25.291  1.00  0.00     0.169 HD
BRANCH  19  22
HETATM   22  C2  UNL     1       1.135  52.128 -26.898  1.00  0.00     0.064 C 
HETATM   23  C1  UNL     1       1.235  51.788 -28.191  1.00  0.00     0.017 C 
ENDBRANCH  19  22
ENDBRANCH  13  18
ENDBRANCH  10  12
ENDBRANCH   1  10
BRANCH   4  24
HETATM   24  N4  UNL     1       0.192  52.036 -18.106  1.00  0.00    -0.175 N 
HETATM   25  C12 UNL     1       1.011  51.977 -17.030  1.00  0.00     0.138 A 
HETATM   26  C13 UNL     1       2.316  52.369 -16.815  1.00  0.00     0.069 A 
HETATM   27  N6  UNL     1       0.600  51.443 -15.828  1.00  0.00    -0.281 N 
HETATM   28  C14 UNL     1       2.593  52.033 -15.478  1.00  0.00     0.111 A 
HETATM   29  N5  UNL     1       1.551  51.465 -14.871  1.00  0.00    -0.308 N 
ATOM     30  H5  UNL     1       1.487  51.127 -13.910  1.00  0.00     0.186 HD
HETATM   31  C15 UNL     1      -0.695  50.888 -15.513  1.00  0.00     0.179 C 
HETATM   32  H10 UNL     1      -0.764  51.701 -18.099  1.00  0.00     0.186 HD
ENDBRANCH   4  24
TORSDOF 5
ENDMDL
MODEL 5
REMARK minimizedAffinity -8.17022133
REMARK  5 active torsions:
REMARK  status: ('A' for Active; 'I' for Inactive)
REMARK    1  A    between atoms: C2_2  and  C3_3 
REMARK       I    between atoms: C3_3  and  N1_5 
REMARK    2  A    between atoms: N1_5  and  C4_6 
REMARK    3  A    between atoms: C9_11  and  N2_12 
REMARK    4  A    between atoms: N2_12  and  C10_13 
REMARK    5  A    between atoms: C11_16  and  N4_17 
ROOT
HETATM    1  C10 UNL     1       0.306  52.320 -22.126  1.00  0.00     0.124 A 
HETATM    2  N3  UNL     1      -0.071  51.489 -21.130  1.00  0.00    -0.179 N 
ATOM      3  H3  UNL     1      -0.583  50.631 -21.337  1.00  0.00     0.185 HD
HETATM    4  C11 UNL     1       0.237  51.811 -19.863  1.00  0.00     0.684 A 
HETATM    5  N7  UNL     1       0.900  52.929 -19.531  1.00  0.00    -0.200 N 
ATOM      6  H7  UNL     1       1.131  53.142 -18.561  1.00  0.00     0.183 HD
HETATM    7  C16 UNL     1       1.245  53.760 -20.534  1.00  0.00     0.133 A 
HETATM    8  C17 UNL     1       0.966  53.512 -21.855  1.00  0.00     0.089 A 
HETATM    9 CL1  UNL     1       1.437  54.624 -23.078  1.00  0.00    -0.079 Cl
ENDROOT
BRANCH   1  10
HETATM   10  N2  UNL     1      -0.084  52.027 -23.465  1.00  0.00    -0.241 NA
HETATM   11  H9  UNL     1       0.256  51.089 -23.693  1.00  0.00     0.135 HD
BRANCH  10  12
HETATM   12  C9  UNL     1      -1.410  52.125 -23.985  1.00  0.00     0.041 A 
HETATM   13  C4  UNL     1      -1.622  51.853 -25.359  1.00  0.00     0.056 A 
HETATM   14  C5  UNL     1      -2.924  51.807 -25.863  1.00  0.00     0.031 A 
HETATM   15  C6  UNL     1      -4.015  52.016 -25.016  1.00  0.00     0.002 A 
HETATM   16  C7  UNL     1      -3.814  52.262 -23.661  1.00  0.00     0.002 A 
HETATM   17  C8  UNL     1      -2.519  52.302 -23.145  1.00  0.00     0.026 A 
BRANCH  13  18
HETATM   18  N1  UNL     1      -0.466  51.666 -26.152  1.00  0.00    -0.322 N 
HETATM   19  C3  UNL     1       0.465  52.610 -26.525  1.00  0.00     0.244 C 
HETATM   20  O1  UNL     1       0.444  53.808 -26.282  1.00  0.00    -0.268 OA
HETATM   21  H4  UNL     1      -0.325  50.704 -26.434  1.00  0.00     0.169 HD
BRANCH  19  22
HETATM   22  C2  UNL     1       1.574  52.002 -27.318  1.00  0.00     0.064 C 
HETATM   23  C1  UNL     1       2.627  51.444 -26.703  1.00  0.00     0.017 C 
ENDBRANCH  19  22
ENDBRANCH  13  18
ENDBRANCH  10  12
ENDBRANCH   1  10
BRANCH   4  24
HETATM   24  N4  UNL     1      -0.190  50.888 -18.907  1.00  0.00    -0.175 N 
HETATM   25  C12 UNL     1      -0.816  49.702 -19.093  1.00  0.00     0.138 A 
HETATM   26  C13 UNL     1      -1.253  49.033 -20.216  1.00  0.00     0.069 A 
HETATM   27  N6  UNL     1      -1.150  48.881 -18.038  1.00  0.00    -0.281 N 
HETATM   28  C14 UNL     1      -1.829  47.841 -19.741  1.00  0.00     0.111 A 
HETATM   29  N5  UNL     1      -1.772  47.743 -18.413  1.00  0.00    -0.308 N 
ATOM     30  H5  UNL     1      -2.116  46.987 -17.821  1.00  0.00     0.186 HD
HETATM   31  C15 UNL     1      -0.908  49.114 -16.634  1.00  0.00     0.179 C 
HETATM   32  H10 UNL     1       0.074  51.244 -17.996  1.00  0.00     0.186 HD
ENDBRANCH   4  24
TORSDOF 5
ENDMDL
MODEL 6
REMARK minimizedAffinity -8.02218628
REMARK  5 active torsions:
REMARK  status: ('A' for Active; 'I' for Inactive)
REMARK    1  A    between atoms: C2_2  and  C3_3 
REMARK       I    between atoms: C3_3  and  N1_5 
REMARK    2  A    between atoms: N1_5  and  C4_6 
REMARK    3  A    between atoms: C9_11  and  N2_12 
REMARK    4  A    between atoms: N2_12  and  C10_13 
REMARK    5  A    between atoms: C11_16  and  N4_17 
ROOT
HETATM    1  C10 UNL     1      -0.298  52.144 -20.732  1.00  0.00     0.124 A 
HETATM    2  N3  UNL     1      -0.224  52.003 -19.390  1.00  0.00    -0.179 N 
ATOM      3  H3  UNL     1      -0.883  51.401 -18.895  1.00  0.00     0.185 HD
HETATM    4  C11 UNL     1       0.730  52.669 -18.719  1.00  0.00     0.684 A 
HETATM    5  N7  UNL     1       1.616  53.480 -19.315  1.00  0.00    -0.200 N 
ATOM      6  H7  UNL     1       2.338  53.963 -18.781  1.00  0.00     0.183 HD
HETATM    7  C16 UNL     1       1.512  53.629 -20.650  1.00  0.00     0.133 A 
HETATM    8  C17 UNL     1       0.566  52.992 -21.413  1.00  0.00     0.089 A 
HETATM    9 CL1  UNL     1       0.494  53.237 -23.113  1.00  0.00    -0.079 Cl
ENDROOT
BRANCH   1  10
HETATM   10  N2  UNL     1      -1.354  51.504 -21.444  1.00  0.00    -0.241 NA
HETATM   11  H9  UNL     1      -1.316  51.822 -22.415  1.00  0.00     0.135 HD
BRANCH  10  12
HETATM   12  C9  UNL     1      -1.601  50.097 -21.477  1.00  0.00     0.041 A 
HETATM   13  C4  UNL     1      -2.267  49.552 -22.602  1.00  0.00     0.056 A 
HETATM   14  C5  UNL     1      -2.398  48.167 -22.723  1.00  0.00     0.031 A 
HETATM   15  C6  UNL     1      -1.866  47.320 -21.748  1.00  0.00     0.002 A 
HETATM   16  C7  UNL     1      -1.192  47.848 -20.652  1.00  0.00     0.002 A 
HETATM   17  C8  UNL     1      -1.047  49.230 -20.524  1.00  0.00     0.026 A 
BRANCH  13  18
HETATM   18  N1  UNL     1      -2.789  50.476 -23.537  1.00  0.00    -0.322 N 
HETATM   19  C3  UNL     1      -2.192  50.945 -24.685  1.00  0.00     0.244 C 
HETATM   20  O1  UNL     1      -1.067  50.691 -25.093  1.00  0.00    -0.268 OA
HETATM   21  H4  UNL     1      -3.730  50.780 -23.316  1.00  0.00     0.169 HD
BRANCH  19  22
HETATM   22  C2  UNL     1      -3.095  51.867 -25.435  1.00  0.00     0.064 C 
HETATM   23  C1  UNL     1      -2.803  52.238 -26.689  1.00  0.00     0.017 C 
ENDBRANCH  19  22
ENDBRANCH  13  18
ENDBRANCH  10  12
ENDBRANCH   1  10
BRANCH   4  24
HETATM   24  N4  UNL     1       0.728  52.455 -17.340  1.00  0.00    -0.175 N 
HETATM   25  C12 UNL     1       1.780  52.389 -16.490  1.00  0.00     0.138 A 
HETATM   26  C13 UNL     1       3.144  52.477 -16.670  1.00  0.00     0.069 A 
HETATM   27  N6  UNL     1       1.613  52.199 -15.135  1.00  0.00    -0.281 N 
HETATM   28  C14 UNL     1       3.701  52.329 -15.387  1.00  0.00     0.111 A 
HETATM   29  N5  UNL     1       2.773  52.156 -14.447  1.00  0.00    -0.308 N 
ATOM     30  H5  UNL     1       2.907  52.023 -13.444  1.00  0.00     0.186 HD
HETATM   31  C15 UNL     1       0.369  52.048 -14.418  1.00  0.00     0.179 C 
HETATM   32  H10 UNL     1      -0.237  52.374 -17.041  1.00  0.00     0.186 HD
ENDBRANCH   4  24
TORSDOF 5
ENDMDL
MODEL 7
REMARK minimizedAffinity -7.95574999
REMARK  5 active torsions:
REMARK  status: ('A' for Active; 'I' for Inactive)
REMARK    1  A    between atoms: C2_2  and  C3_3 
REMARK       I    between atoms: C3_3  and  N1_5 
REMARK    2  A    between atoms: N1_5  and  C4_6 
REMARK    3  A    between atoms: C9_11  and  N2_12 
REMARK    4  A    between atoms: N2_12  and  C10_13 
REMARK    5  A    between atoms: C11_16  and  N4_17 
ROOT
HETATM    1  C10 UNL     1       0.124  52.892 -22.130  1.00  0.00     0.124 A 
HETATM    2  N3  UNL     1      -0.176  52.997 -23.444  1.00  0.00    -0.179 N 
ATOM      3  H3  UNL     1      -0.891  52.402 -23.861  1.00  0.00     0.185 HD
HETATM    4  C11 UNL     1       0.484  53.898 -24.190  1.00  0.00     0.684 A 
HETATM    5  N7  UNL     1       1.438  54.701 -23.697  1.00  0.00    -0.200 N 
ATOM      6  H7  UNL     1       1.914  55.385 -24.286  1.00  0.00     0.183 HD
HETATM    7  C16 UNL     1       1.742  54.565 -22.392  1.00  0.00     0.133 A 
HETATM    8  C17 UNL     1       1.124  53.668 -21.558  1.00  0.00     0.089 A 
HETATM    9 CL1  UNL     1       1.571  53.551 -19.902  1.00  0.00    -0.079 Cl
ENDROOT
BRANCH   1  10
HETATM   10  N2  UNL     1      -0.514  51.887 -21.347  1.00  0.00    -0.241 NA
HETATM   11  H9  UNL     1      -1.242  52.339 -20.788  1.00  0.00     0.135 HD
BRANCH  10  12
HETATM   12  C9  UNL     1      -1.072  50.672 -21.849  1.00  0.00     0.041 A 
HETATM   13  C4  UNL     1      -1.139  49.549 -20.988  1.00  0.00     0.056 A 
HETATM   14  C5  UNL     1      -1.802  48.394 -21.407  1.00  0.00     0.031 A 
HETATM   15  C6  UNL     1      -2.410  48.346 -22.664  1.00  0.00     0.002 A 
HETATM   16  C7  UNL     1      -2.367  49.453 -23.506  1.00  0.00     0.002 A 
HETATM   17  C8  UNL     1      -1.714  50.616 -23.095  1.00  0.00     0.026 A 
BRANCH  13  18
HETATM   18  N1  UNL     1      -0.488  49.671 -19.738  1.00  0.00    -0.322 N 
HETATM   19  C3  UNL     1      -0.910  50.369 -18.629  1.00  0.00     0.244 C 
HETATM   20  O1  UNL     1      -1.912  51.064 -18.528  1.00  0.00    -0.268 OA
HETATM   21  H4  UNL     1       0.374  49.142 -19.682  1.00  0.00     0.169 HD
BRANCH  19  22
HETATM   22  C2  UNL     1       0.033  50.204 -17.484  1.00  0.00     0.064 C 
HETATM   23  C1  UNL     1      -0.048  49.133 -16.683  1.00  0.00     0.017 C 
ENDBRANCH  19  22
ENDBRANCH  13  18
ENDBRANCH  10  12
ENDBRANCH   1  10
BRANCH   4  24
HETATM   24  N4  UNL     1       0.100  53.935 -25.531  1.00  0.00    -0.175 N 
HETATM   25  C12 UNL     1       0.359  53.040 -26.513  1.00  0.00     0.138 A 
HETATM   26  C13 UNL     1       1.071  51.860 -26.549  1.00  0.00     0.069 A 
HETATM   27  N6  UNL     1      -0.119  53.205 -27.796  1.00  0.00    -0.281 N 
HETATM   28  C14 UNL     1       0.965  51.398 -27.873  1.00  0.00     0.111 A 
HETATM   29  N5  UNL     1       0.243  52.216 -28.640  1.00  0.00    -0.308 N 
ATOM     30  H5  UNL     1       0.017  52.117 -29.630  1.00  0.00     0.186 HD
HETATM   31  C15 UNL     1      -0.933  54.286 -28.295  1.00  0.00     0.179 C 
HETATM   32  H10 UNL     1      -0.457  54.771 -25.670  1.00  0.00     0.186 HD
ENDBRANCH   4  24
TORSDOF 5
ENDMDL
MODEL 8
REMARK minimizedAffinity -7.91527319
REMARK  5 active torsions:
REMARK  status: ('A' for Active; 'I' for Inactive)
REMARK    1  A    between atoms: C2_2  and  C3_3 
REMARK       I    between atoms: C3_3  and  N1_5 
REMARK    2  A    between atoms: N1_5  and  C4_6 
REMARK    3  A    between atoms: C9_11  and  N2_12 
REMARK    4  A    between atoms: N2_12  and  C10_13 
REMARK    5  A    between atoms: C11_16  and  N4_17 
ROOT
HETATM    1  C10 UNL     1      -2.366  51.746 -25.367  1.00  0.00     0.124 A 
HETATM    2  N3  UNL     1      -2.381  51.598 -24.025  1.00  0.00    -0.179 N 
ATOM      3  H3  UNL     1      -1.810  52.199 -23.430  1.00  0.00     0.185 HD
HETATM    4  C11 UNL     1      -3.161  50.647 -23.485  1.00  0.00     0.684 A 
HETATM    5  N7  UNL     1      -3.926  49.823 -24.217  1.00  0.00    -0.200 N 
ATOM      6  H7  UNL     1      -4.517  49.117 -23.778  1.00  0.00     0.183 HD
HETATM    7  C16 UNL     1      -3.879  49.967 -25.555  1.00  0.00     0.133 A 
HETATM    8  C17 UNL     1      -3.107  50.908 -26.191  1.00  0.00     0.089 A 
HETATM    9 CL1  UNL     1      -3.098  51.027 -27.905  1.00  0.00    -0.079 Cl
ENDROOT
BRANCH   1  10
HETATM   10  N2  UNL     1      -1.485  52.700 -25.954  1.00  0.00    -0.241 NA
HETATM   11  H9  UNL     1      -1.352  53.460 -25.283  1.00  0.00     0.135 HD
BRANCH  10  12
HETATM   12  C9  UNL     1      -0.203  52.413 -26.515  1.00  0.00     0.041 A 
HETATM   13  C4  UNL     1       0.862  52.085 -25.642  1.00  0.00     0.056 A 
HETATM   14  C5  UNL     1       2.086  51.667 -26.169  1.00  0.00     0.031 A 
HETATM   15  C6  UNL     1       2.258  51.561 -27.551  1.00  0.00     0.002 A 
HETATM   16  C7  UNL     1       1.209  51.861 -28.414  1.00  0.00     0.002 A 
HETATM   17  C8  UNL     1      -0.021  52.271 -27.899  1.00  0.00     0.026 A 
BRANCH  13  18
HETATM   18  N1  UNL     1       0.613  52.232 -24.257  1.00  0.00    -0.322 N 
HETATM   19  C3  UNL     1       0.812  53.348 -23.476  1.00  0.00     0.244 C 
HETATM   20  O1  UNL     1       1.294  54.418 -23.821  1.00  0.00    -0.268 OA
HETATM   21  H4  UNL     1       0.210  51.405 -23.833  1.00  0.00     0.169 HD
BRANCH  19  22
HETATM   22  C2  UNL     1       0.369  53.118 -22.069  1.00  0.00     0.064 C 
HETATM   23  C1  UNL     1       0.707  51.994 -21.422  1.00  0.00     0.017 C 
ENDBRANCH  19  22
ENDBRANCH  13  18
ENDBRANCH  10  12
ENDBRANCH   1  10
BRANCH   4  24
HETATM   24  N4  UNL     1      -3.112  50.576 -22.092  1.00  0.00    -0.175 N 
HETATM   25  C12 UNL     1      -2.367  49.761 -21.309  1.00  0.00     0.138 A 
HETATM   26  C13 UNL     1      -1.464  48.756 -21.585  1.00  0.00     0.069 A 
HETATM   27  N6  UNL     1      -2.409  49.832 -19.933  1.00  0.00    -0.281 N 
HETATM   28  C14 UNL     1      -1.028  48.291 -20.331  1.00  0.00     0.111 A 
HETATM   29  N5  UNL     1      -1.602  48.941 -19.319  1.00  0.00    -0.308 N 
ATOM     30  H5  UNL     1      -1.464  48.800 -18.318  1.00  0.00     0.186 HD
HETATM   31  C15 UNL     1      -3.199  50.731 -19.125  1.00  0.00     0.179 C 
HETATM   32  H10 UNL     1      -3.738  51.283 -21.725  1.00  0.00     0.186 HD
ENDBRANCH   4  24
TORSDOF 5
ENDMDL
MODEL 9
REMARK minimizedAffinity -7.88106489
REMARK  5 active torsions:
REMARK  status: ('A' for Active; 'I' for Inactive)
REMARK    1  A    between atoms: C2_2  and  C3_3 
REMARK       I    between atoms: C3_3  and  N1_5 
REMARK    2  A    between atoms: N1_5  and  C4_6 
REMARK    3  A    between atoms: C9_11  and  N2_12 
REMARK    4  A    between atoms: N2_12  and  C10_13 
REMARK    5  A    between atoms: C11_16  and  N4_17 
ROOT
HETATM    1  C10 UNL     1      -1.261  51.498 -23.444  1.00  0.00     0.124 A 
HETATM    2  N3  UNL     1      -1.610  50.601 -22.496  1.00  0.00    -0.179 N 
ATOM      3  H3  UNL     1      -2.439  50.019 -22.614  1.00  0.00     0.185 HD
HETATM    4  C11 UNL     1      -0.848  50.489 -21.396  1.00  0.00     0.684 A 
HETATM    5  N7  UNL     1       0.247  51.234 -21.184  1.00  0.00    -0.200 N 
ATOM      6  H7  UNL     1       0.814  51.118 -20.344  1.00  0.00     0.183 HD
HETATM    7  C16 UNL     1       0.566  52.141 -22.126  1.00  0.00     0.133 A 
HETATM    8  C17 UNL     1      -0.158  52.327 -23.278  1.00  0.00     0.089 A 
HETATM    9 CL1  UNL     1       0.311  53.510 -24.433  1.00  0.00    -0.079 Cl
ENDROOT
BRANCH   1  10
HETATM   10  N2  UNL     1      -2.105  51.679 -24.578  1.00  0.00    -0.241 NA
HETATM   11  H9  UNL     1      -1.570  52.180 -25.292  1.00  0.00     0.135 HD
BRANCH  10  12
HETATM   12  C9  UNL     1      -2.827  50.647 -25.251  1.00  0.00     0.041 A 
HETATM   13  C4  UNL     1      -2.363  50.206 -26.514  1.00  0.00     0.056 A 
HETATM   14  C5  UNL     1      -2.968  49.107 -27.128  1.00  0.00     0.031 A 
HETATM   15  C6  UNL     1      -4.018  48.436 -26.497  1.00  0.00     0.002 A 
HETATM   16  C7  UNL     1      -4.464  48.851 -25.246  1.00  0.00     0.002 A 
HETATM   17  C8  UNL     1      -3.863  49.942 -24.618  1.00  0.00     0.026 A 
BRANCH  13  18
HETATM   18  N1  UNL     1      -1.306  50.946 -27.093  1.00  0.00    -0.322 N 
HETATM   19  C3  UNL     1      -1.307  52.272 -27.464  1.00  0.00     0.244 C 
HETATM   20  O1  UNL     1      -2.244  53.056 -27.411  1.00  0.00    -0.268 OA
HETATM   21  H4  UNL     1      -0.454  50.410 -27.202  1.00  0.00     0.169 HD
BRANCH  19  22
HETATM   22  C2  UNL     1       0.025  52.696 -27.986  1.00  0.00     0.064 C 
HETATM   23  C1  UNL     1       1.041  51.824 -28.055  1.00  0.00     0.017 C 
ENDBRANCH  19  22
ENDBRANCH  13  18
ENDBRANCH  10  12
ENDBRANCH   1  10
BRANCH   4  24
HETATM   24  N4  UNL     1      -1.286  49.533 -20.479  1.00  0.00    -0.175 N 
HETATM   25  C12 UNL     1      -1.016  49.439 -19.156  1.00  0.00     0.138 A 
HETATM   26  C13 UNL     1      -0.241  50.189 -18.297  1.00  0.00     0.069 A 
HETATM   27  N6  UNL     1      -1.554  48.443 -18.370  1.00  0.00    -0.281 N 
HETATM   28  C14 UNL     1      -0.373  49.573 -17.039  1.00  0.00     0.111 A 
HETATM   29  N5  UNL     1      -1.171  48.506 -17.077  1.00  0.00    -0.308 N 
ATOM     30  H5  UNL     1      -1.430  47.884 -16.311  1.00  0.00     0.186 HD
HETATM   31  C15 UNL     1      -2.448  47.387 -18.783  1.00  0.00     0.179 C 
HETATM   32  H10 UNL     1      -1.895  48.889 -20.972  1.00  0.00     0.186 HD
ENDBRANCH   4  24
TORSDOF 5
ENDMDL
