MODEL 1
REMARK minimizedAffinity -8.74665546
REMARK  7 active torsions:
REMARK  status: ('A' for Active; 'I' for Inactive)
REMARK    1  A    between atoms: O1_2  and  C2_3 
REMARK    2  A    between atoms: C2_3  and  C3_4 
REMARK    3  A    between atoms: C3_4  and  N1_5 
REMARK    4  A    between atoms: C3_4  and  C17_29 
REMARK       I    between atoms: N1_5  and  C4_6 
REMARK       I    between atoms: C4_6  and  N2_8 
REMARK    5  A    between atoms: N2_8  and  C5_9 
REMARK    6  A    between atoms: C8_15  and  C9_16 
REMARK    7  A    between atoms: C12_21  and  O3_22 
ROOT
HETATM    1  C5  UNL     1      -3.342  49.178 -25.535  1.00  0.00     0.111 A 
HETATM    2  C6  UNL     1      -4.599  48.758 -25.121  1.00  0.00     0.080 A 
HETATM    3  C7  UNL     1      -5.413  48.238 -26.127  1.00  0.00     0.065 A 
HETATM    4  N3  UNL     1      -6.680  47.730 -26.101  1.00  0.00    -0.299 N 
HETATM    5  N4  UNL     1      -7.127  47.307 -27.292  1.00  0.00    -0.299 N 
ATOM      6  H4  UNL     1      -8.029  46.881 -27.506  1.00  0.00     0.187 HD
HETATM    7  C8  UNL     1      -6.120  47.572 -28.143  1.00  0.00     0.073 A 
HETATM    8  C15 UNL     1      -5.007  48.143 -27.451  1.00  0.00     0.036 A 
HETATM    9  C16 UNL     1      -3.718  48.570 -27.774  1.00  0.00     0.105 A 
HETATM   10  N6  UNL     1      -2.906  49.085 -26.814  1.00  0.00    -0.351 N 
ATOM     11  H6  UNL     1      -1.967  49.402 -27.057  1.00  0.00     0.166 HD
HETATM   12  H10 UNL     1      -7.293  47.639 -25.296  1.00  0.00     0.187 HD
ENDROOT
BRANCH   1  13
HETATM   13  N2  UNL     1      -2.388  49.724 -24.677  1.00  0.00    -0.295 N 
HETATM   14  C4  UNL     1      -1.906  51.005 -24.643  1.00  0.00     0.322 C 
HETATM   15  N1  UNL     1      -0.990  51.163 -23.627  1.00  0.00    -0.332 N 
HETATM   16  O2  UNL     1      -2.209  51.911 -25.409  1.00  0.00    -0.247 OA
HETATM   17  H7  UNL     1      -1.096  50.543 -22.839  1.00  0.00     0.165 HD
HETATM   18  H8  UNL     1      -1.961  49.029 -24.087  1.00  0.00     0.172 HD
BRANCH  15  19
HETATM   19  C3  UNL     1      -0.404  52.471 -23.325  1.00  0.00     0.143 C 
BRANCH  19  20
HETATM   20  C2  UNL     1       0.772  52.745 -24.293  1.00  0.00     0.197 C 
BRANCH  20  21
HETATM   21  O1  UNL     1       0.614  54.008 -24.942  1.00  0.00    -0.394 OA
HETATM   22  C1  UNL     1       0.252  53.859 -26.308  1.00  0.00     0.201 C 
ENDBRANCH  20  21
ENDBRANCH  19  20
BRANCH  19  23
HETATM   23  C17 UNL     1      -0.074  52.517 -21.834  1.00  0.00    -0.033 A 
HETATM   24  C18 UNL     1      -0.757  51.754 -20.872  1.00  0.00     0.012 A 
HETATM   25  C19 UNL     1      -0.430  51.862 -19.517  1.00  0.00     0.043 A 
HETATM   26  C20 UNL     1       0.571  52.737 -19.116  1.00  0.00     0.116 A 
HETATM   27  F1  UNL     1       0.879  52.839 -17.816  1.00  0.00    -0.206 F 
HETATM   28  C21 UNL     1       1.255  53.509 -20.044  1.00  0.00     0.043 A 
HETATM   29  C22 UNL     1       0.933  53.401 -21.398  1.00  0.00     0.012 A 
ENDBRANCH  19  23
ENDBRANCH  15  19
ENDBRANCH   1  13
BRANCH   7  30
HETATM   30  C9  UNL     1      -6.248  47.264 -29.562  1.00  0.00     0.011 A 
HETATM   31  C10 UNL     1      -7.470  46.919 -30.128  1.00  0.00     0.101 A 
HETATM   32  N5  UNL     1      -7.651  46.643 -31.443  1.00  0.00    -0.372 N 
HETATM   33  C11 UNL     1      -6.547  46.693 -32.228  1.00  0.00     0.124 A 
ATOM     34  H5  UNL     1      -8.570  46.411 -31.822  1.00  0.00     0.164 HD
HETATM   35  C12 UNL     1      -5.274  47.006 -31.767  1.00  0.00     0.084 A 
HETATM   36  C14 UNL     1      -5.135  47.292 -30.410  1.00  0.00     0.053 A 
BRANCH  35  37
HETATM   37  O3  UNL     1      -4.126  47.071 -32.503  1.00  0.00    -0.355 OA
HETATM   38  C13 UNL     1      -4.191  47.803 -33.722  1.00  0.00     0.210 C 
ENDBRANCH  35  37
ENDBRANCH   7  30
TORSDOF 7
ENDMDL
MODEL 2
REMARK minimizedAffinity -8.69741249
REMARK  7 active torsions:
REMARK  status: ('A' for Active; 'I' for Inactive)
REMARK    1  A    between atoms: O1_2  and  C2_3 
REMARK    2  A    between atoms: C2_3  and  C3_4 
REMARK    3  A    between atoms: C3_4  and  N1_5 
REMARK    4  A    between atoms: C3_4  and  C17_29 
REMARK       I    between atoms: N1_5  and  C4_6 
REMARK       I    between atoms: C4_6  and  N2_8 
REMARK    5  A    between atoms: N2_8  and  C5_9 
REMARK    6  A    between atoms: C8_15  and  C9_16 
REMARK    7  A    between atoms: C12_21  and  O3_22 
ROOT
HETATM    1  C5  UNL     1      -2.352  51.064 -26.921  1.00  0.00     0.111 A 
HETATM    2  C6  UNL     1      -1.176  51.638 -27.386  1.00  0.00     0.080 A 
HETATM    3  C7  UNL     1      -0.340  52.160 -26.400  1.00  0.00     0.065 A 
HETATM    4  N3  UNL     1       0.875  52.781 -26.472  1.00  0.00    -0.299 N 
HETATM    5  N4  UNL     1       1.381  53.136 -25.282  1.00  0.00    -0.299 N 
ATOM      6  H4  UNL     1       2.274  53.593 -25.094  1.00  0.00     0.187 HD
HETATM    7  C8  UNL     1       0.447  52.757 -24.392  1.00  0.00     0.073 A 
HETATM    8  C15 UNL     1      -0.650  52.118 -25.048  1.00  0.00     0.036 A 
HETATM    9  C16 UNL     1      -1.845  51.503 -24.669  1.00  0.00     0.105 A 
HETATM   10  N6  UNL     1      -2.680  50.989 -25.610  1.00  0.00    -0.351 N 
ATOM     11  H6  UNL     1      -3.555  50.547 -25.327  1.00  0.00     0.166 HD
HETATM   12  H10 UNL     1       1.416  52.986 -27.306  1.00  0.00     0.187 HD
ENDROOT
BRANCH   1  13
HETATM   13  N2  UNL     1      -3.312  50.488 -27.753  1.00  0.00    -0.295 N 
HETATM   14  C4  UNL     1      -3.744  49.189 -27.782  1.00  0.00     0.322 C 
HETATM   15  N1  UNL     1      -4.729  49.016 -28.730  1.00  0.00    -0.332 N 
HETATM   16  O2  UNL     1      -3.323  48.272 -27.090  1.00  0.00    -0.247 OA
HETATM   17  H7  UNL     1      -5.276  49.835 -28.950  1.00  0.00     0.165 HD
HETATM   18  H8  UNL     1      -3.631  51.122 -28.467  1.00  0.00     0.172 HD
BRANCH  15  19
HETATM   19  C3  UNL     1      -5.421  47.735 -28.886  1.00  0.00     0.143 C 
BRANCH  19  20
HETATM   20  C2  UNL     1      -5.541  47.394 -30.390  1.00  0.00     0.197 C 
BRANCH  20  21
HETATM   21  O1  UNL     1      -4.827  48.342 -31.187  1.00  0.00    -0.394 OA
HETATM   22  C1  UNL     1      -4.845  47.995 -32.564  1.00  0.00     0.201 C 
ENDBRANCH  20  21
ENDBRANCH  19  20
BRANCH  19  23
HETATM   23  C17 UNL     1      -6.730  47.797 -28.102  1.00  0.00    -0.033 A 
HETATM   24  C18 UNL     1      -6.828  47.467 -26.740  1.00  0.00     0.012 A 
HETATM   25  C19 UNL     1      -8.061  47.513 -26.083  1.00  0.00     0.043 A 
HETATM   26  C20 UNL     1      -9.202  47.881 -26.784  1.00  0.00     0.116 A 
HETATM   27  F1  UNL     1     -10.382  47.922 -26.152  1.00  0.00    -0.206 F 
HETATM   28  C21 UNL     1      -9.136  48.203 -28.132  1.00  0.00     0.043 A 
HETATM   29  C22 UNL     1      -7.906  48.160 -28.790  1.00  0.00     0.012 A 
ENDBRANCH  19  23
ENDBRANCH  15  19
ENDBRANCH   1  13
BRANCH   7  30
HETATM   30  C9  UNL     1       0.638  53.000 -22.968  1.00  0.00     0.011 A 
HETATM   31  C10 UNL     1       1.272  54.146 -22.501  1.00  0.00     0.101 A 
HETATM   32  N5  UNL     1       1.458  54.435 -21.190  1.00  0.00    -0.372 N 
HETATM   33  C11 UNL     1       1.006  53.518 -20.299  1.00  0.00     0.124 A 
ATOM     34  H5  UNL     1       1.914  55.297 -20.888  1.00  0.00     0.164 HD
HETATM   35  C12 UNL     1       0.376  52.331 -20.653  1.00  0.00     0.084 A 
HETATM   36  C14 UNL     1       0.197  52.079 -22.012  1.00  0.00     0.053 A 
BRANCH  35  37
HETATM   37  O3  UNL     1      -0.100  51.369 -19.808  1.00  0.00    -0.355 OA
HETATM   38  C13 UNL     1      -1.280  51.687 -19.080  1.00  0.00     0.210 C 
ENDBRANCH  35  37
ENDBRANCH   7  30
TORSDOF 7
ENDMDL
MODEL 3
REMARK minimizedAffinity -8.64375591
REMARK  7 active torsions:
REMARK  status: ('A' for Active; 'I' for Inactive)
REMARK    1  A    between atoms: O1_2  and  C2_3 
REMARK    2  A    between atoms: C2_3  and  C3_4 
REMARK    3  A    between atoms: C3_4  and  N1_5 
REMARK    4  A    between atoms: C3_4  and  C17_29 
REMARK       I    between atoms: N1_5  and  C4_6 
REMARK       I    between atoms: C4_6  and  N2_8 
REMARK    5  A    between atoms: N2_8  and  C5_9 
REMARK    6  A    between atoms: C8_15  and  C9_16 
REMARK    7  A    between atoms: C12_21  and  O3_22 
ROOT
HETATM    1  C5  UNL     1       0.912  52.941 -19.660  1.00  0.00     0.111 A 
HETATM    2  C6  UNL     1       1.479  54.040 -20.291  1.00  0.00     0.080 A 
HETATM    3  C7  UNL     1       1.323  54.075 -21.677  1.00  0.00     0.065 A 
HETATM    4  N3  UNL     1       1.729  54.981 -22.615  1.00  0.00    -0.299 N 
HETATM    5  N4  UNL     1       1.372  54.669 -23.869  1.00  0.00    -0.299 N 
ATOM      6  H4  UNL     1       1.551  55.202 -24.721  1.00  0.00     0.187 HD
HETATM    7  C8  UNL     1       0.727  53.494 -23.754  1.00  0.00     0.073 A 
HETATM    8  C15 UNL     1       0.653  53.087 -22.386  1.00  0.00     0.036 A 
HETATM    9  C16 UNL     1       0.097  52.028 -21.667  1.00  0.00     0.105 A 
HETATM   10  N6  UNL     1       0.237  51.967 -20.317  1.00  0.00    -0.351 N 
ATOM     11  H6  UNL     1      -0.166  51.187 -19.797  1.00  0.00     0.166 HD
HETATM   12  H10 UNL     1       2.248  55.840 -22.462  1.00  0.00     0.187 HD
ENDROOT
BRANCH   1  13
HETATM   13  N2  UNL     1       0.961  52.730 -18.282  1.00  0.00    -0.295 N 
HETATM   14  C4  UNL     1       0.458  51.680 -17.563  1.00  0.00     0.322 C 
HETATM   15  N1  UNL     1       0.734  51.820 -16.221  1.00  0.00    -0.332 N 
HETATM   16  O2  UNL     1      -0.177  50.734 -18.013  1.00  0.00    -0.247 OA
HETATM   17  H7  UNL     1       1.556  52.361 -15.996  1.00  0.00     0.165 HD
HETATM   18  H8  UNL     1       1.341  53.520 -17.787  1.00  0.00     0.172 HD
BRANCH  15  19
HETATM   19  C3  UNL     1       0.384  50.776 -15.256  1.00  0.00     0.143 C 
BRANCH  19  20
HETATM   20  C2  UNL     1       0.143  49.443 -16.002  1.00  0.00     0.197 C 
BRANCH  20  21
HETATM   21  O1  UNL     1       0.924  48.391 -15.433  1.00  0.00    -0.394 OA
HETATM   22  C1  UNL     1       1.602  48.813 -14.258  1.00  0.00     0.201 C 
ENDBRANCH  20  21
ENDBRANCH  19  20
BRANCH  19  23
HETATM   23  C17 UNL     1      -0.771  51.286 -14.396  1.00  0.00    -0.033 A 
HETATM   24  C18 UNL     1      -0.583  51.999 -13.200  1.00  0.00     0.012 A 
HETATM   25  C19 UNL     1      -1.680  52.413 -12.439  1.00  0.00     0.043 A 
HETATM   26  C20 UNL     1      -2.967  52.110 -12.862  1.00  0.00     0.116 A 
HETATM   27  F1  UNL     1      -4.015  52.506 -12.129  1.00  0.00    -0.206 F 
HETATM   28  C21 UNL     1      -3.182  51.399 -14.035  1.00  0.00     0.043 A 
HETATM   29  C22 UNL     1      -2.088  50.986 -14.797  1.00  0.00     0.012 A 
ENDBRANCH  19  23
ENDBRANCH  15  19
ENDBRANCH   1  13
BRANCH   7  30
HETATM   30  C9  UNL     1       0.200  52.818 -24.933  1.00  0.00     0.011 A 
HETATM   31  C10 UNL     1       1.038  52.221 -25.868  1.00  0.00     0.101 A 
HETATM   32  N5  UNL     1       0.603  51.562 -26.970  1.00  0.00    -0.372 N 
HETATM   33  C11 UNL     1      -0.739  51.518 -27.158  1.00  0.00     0.124 A 
ATOM     34  H5  UNL     1       1.252  51.122 -27.624  1.00  0.00     0.164 HD
HETATM   35  C12 UNL     1      -1.667  52.095 -26.300  1.00  0.00     0.084 A 
HETATM   36  C14 UNL     1      -1.176  52.755 -25.174  1.00  0.00     0.053 A 
BRANCH  35  37
HETATM   37  O3  UNL     1      -3.025  52.088 -26.432  1.00  0.00    -0.355 OA
HETATM   38  C13 UNL     1      -3.783  52.041 -25.228  1.00  0.00     0.210 C 
ENDBRANCH  35  37
ENDBRANCH   7  30
TORSDOF 7
ENDMDL
MODEL 4
REMARK minimizedAffinity -8.63498497
REMARK  7 active torsions:
REMARK  status: ('A' for Active; 'I' for Inactive)
REMARK    1  A    between atoms: O1_2  and  C2_3 
REMARK    2  A    between atoms: C2_3  and  C3_4 
REMARK    3  A    between atoms: C3_4  and  N1_5 
REMARK    4  A    between atoms: C3_4  and  C17_29 
REMARK       I    between atoms: N1_5  and  C4_6 
REMARK       I    between atoms: C4_6  and  N2_8 
REMARK    5  A    between atoms: N2_8  and  C5_9 
REMARK    6  A    between atoms: C8_15  and  C9_16 
REMARK    7  A    between atoms: C12_21  and  O3_22 
ROOT
HETATM    1  C5  UNL     1      -3.666  48.582 -25.125  1.00  0.00     0.111 A 
HETATM    2  C6  UNL     1      -5.021  48.344 -24.945  1.00  0.00     0.080 A 
HETATM    3  C7  UNL     1      -5.748  48.135 -26.117  1.00  0.00     0.065 A 
HETATM    4  N3  UNL     1      -7.071  47.870 -26.333  1.00  0.00    -0.299 N 
HETATM    5  N4  UNL     1      -7.396  47.716 -27.624  1.00  0.00    -0.299 N 
ATOM      6  H4  UNL     1      -8.312  47.498 -28.016  1.00  0.00     0.187 HD
HETATM    7  C8  UNL     1      -6.243  47.914 -28.288  1.00  0.00     0.073 A 
HETATM    8  C15 UNL     1      -5.169  48.163 -27.379  1.00  0.00     0.036 A 
HETATM    9  C16 UNL     1      -3.795  48.390 -27.463  1.00  0.00     0.105 A 
HETATM   10  N6  UNL     1      -3.063  48.601 -26.338  1.00  0.00    -0.351 N 
ATOM     11  H6  UNL     1      -2.060  48.773 -26.407  1.00  0.00     0.166 HD
HETATM   12  H10 UNL     1      -7.804  47.774 -25.637  1.00  0.00     0.187 HD
ENDROOT
BRANCH   1  13
HETATM   13  N2  UNL     1      -2.776  48.812 -24.075  1.00  0.00    -0.295 N 
HETATM   14  C4  UNL     1      -2.819  49.793 -23.122  1.00  0.00     0.322 C 
HETATM   15  N1  UNL     1      -1.772  49.669 -22.236  1.00  0.00    -0.332 N 
HETATM   16  O2  UNL     1      -3.648  50.691 -23.046  1.00  0.00    -0.247 OA
HETATM   17  H7  UNL     1      -1.402  48.737 -22.120  1.00  0.00     0.165 HD
HETATM   18  H8  UNL     1      -1.967  48.214 -24.121  1.00  0.00     0.172 HD
BRANCH  15  19
HETATM   19  C3  UNL     1      -1.653  50.543 -21.067  1.00  0.00     0.143 C 
BRANCH  19  20
HETATM   20  C2  UNL     1      -3.063  50.971 -20.597  1.00  0.00     0.197 C 
BRANCH  20  21
HETATM   21  O1  UNL     1      -3.416  50.313 -19.377  1.00  0.00    -0.394 OA
HETATM   22  C1  UNL     1      -2.804  50.927 -18.251  1.00  0.00     0.201 C 
ENDBRANCH  20  21
ENDBRANCH  19  20
BRANCH  19  23
HETATM   23  C17 UNL     1      -0.685  51.674 -21.409  1.00  0.00    -0.033 A 
HETATM   24  C18 UNL     1      -0.219  51.920 -22.712  1.00  0.00     0.012 A 
HETATM   25  C19 UNL     1       0.691  52.952 -22.958  1.00  0.00     0.043 A 
HETATM   26  C20 UNL     1       1.146  53.736 -21.907  1.00  0.00     0.116 A 
HETATM   27  F1  UNL     1       2.020  54.722 -22.147  1.00  0.00    -0.206 F 
HETATM   28  C21 UNL     1       0.709  53.511 -20.609  1.00  0.00     0.043 A 
HETATM   29  C22 UNL     1      -0.201  52.482 -20.361  1.00  0.00     0.012 A 
ENDBRANCH  19  23
ENDBRANCH  15  19
ENDBRANCH   1  13
BRANCH   7  30
HETATM   30  C9  UNL     1      -6.204  47.847 -29.744  1.00  0.00     0.011 A 
HETATM   31  C10 UNL     1      -7.302  48.201 -30.521  1.00  0.00     0.101 A 
HETATM   32  N5  UNL     1      -7.315  48.178 -31.876  1.00  0.00    -0.372 N 
HETATM   33  C11 UNL     1      -6.179  47.757 -32.485  1.00  0.00     0.124 A 
ATOM     34  H5  UNL     1      -8.137  48.462 -32.410  1.00  0.00     0.164 HD
HETATM   35  C12 UNL     1      -5.031  47.362 -31.809  1.00  0.00     0.084 A 
HETATM   36  C14 UNL     1      -5.058  47.410 -30.416  1.00  0.00     0.053 A 
BRANCH  35  37
HETATM   37  O3  UNL     1      -3.860  46.929 -32.360  1.00  0.00    -0.355 OA
HETATM   38  C13 UNL     1      -3.497  47.497 -33.614  1.00  0.00     0.210 C 
ENDBRANCH  35  37
ENDBRANCH   7  30
TORSDOF 7
ENDMDL
MODEL 5
REMARK minimizedAffinity -8.59269047
REMARK  7 active torsions:
REMARK  status: ('A' for Active; 'I' for Inactive)
REMARK    1  A    between atoms: O1_2  and  C2_3 
REMARK    2  A    between atoms: C2_3  and  C3_4 
REMARK    3  A    between atoms: C3_4  and  N1_5 
REMARK    4  A    between atoms: C3_4  and  C17_29 
REMARK       I    between atoms: N1_5  and  C4_6 
REMARK       I    between atoms: C4_6  and  N2_8 
REMARK    5  A    between atoms: N2_8  and  C5_9 
REMARK    6  A    between atoms: C8_15  and  C9_16 
REMARK    7  A    between atoms: C12_21  and  O3_22 
ROOT
HETATM    1  C5  UNL     1       0.483  52.829 -19.911  1.00  0.00     0.111 A 
HETATM    2  C6  UNL     1       1.120  53.942 -20.441  1.00  0.00     0.080 A 
HETATM    3  C7  UNL     1       1.138  54.009 -21.834  1.00  0.00     0.065 A 
HETATM    4  N3  UNL     1       1.654  54.936 -22.694  1.00  0.00    -0.299 N 
HETATM    5  N4  UNL     1       1.457  54.652 -23.990  1.00  0.00    -0.299 N 
ATOM      6  H4  UNL     1       1.738  55.205 -24.800  1.00  0.00     0.187 HD
HETATM    7  C8  UNL     1       0.807  53.475 -23.982  1.00  0.00     0.073 A 
HETATM    8  C15 UNL     1       0.565  53.037 -22.643  1.00  0.00     0.036 A 
HETATM    9  C16 UNL     1      -0.073  51.962 -22.023  1.00  0.00     0.105 A 
HETATM   10  N6  UNL     1      -0.102  51.870 -20.667  1.00  0.00    -0.351 N 
ATOM     11  H6  UNL     1      -0.564  51.078 -20.220  1.00  0.00     0.166 HD
HETATM   12  H10 UNL     1       2.147  55.791 -22.458  1.00  0.00     0.187 HD
ENDROOT
BRANCH   1  13
HETATM   13  N2  UNL     1       0.361  52.587 -18.542  1.00  0.00    -0.295 N 
HETATM   14  C4  UNL     1       0.131  51.397 -17.905  1.00  0.00     0.322 C 
HETATM   15  N1  UNL     1       0.105  51.564 -16.538  1.00  0.00    -0.332 N 
HETATM   16  O2  UNL     1      -0.052  50.313 -18.443  1.00  0.00    -0.247 OA
HETATM   17  H7  UNL     1       0.639  52.342 -16.180  1.00  0.00     0.165 HD
HETATM   18  H8  UNL     1       0.355  53.437 -18.002  1.00  0.00     0.172 HD
BRANCH  15  19
HETATM   19  C3  UNL     1      -0.028  50.422 -15.632  1.00  0.00     0.143 C 
BRANCH  19  20
HETATM   20  C2  UNL     1      -1.262  50.627 -14.722  1.00  0.00     0.197 C 
BRANCH  20  21
HETATM   21  O1  UNL     1      -0.938  51.455 -13.602  1.00  0.00    -0.394 OA
HETATM   22  C1  UNL     1      -2.089  52.092 -13.066  1.00  0.00     0.201 C 
ENDBRANCH  20  21
ENDBRANCH  19  20
BRANCH  19  23
HETATM   23  C17 UNL     1       1.307  50.214 -14.921  1.00  0.00    -0.033 A 
HETATM   24  C18 UNL     1       1.631  49.041 -14.217  1.00  0.00     0.012 A 
HETATM   25  C19 UNL     1       2.858  48.922 -13.560  1.00  0.00     0.043 A 
HETATM   26  C20 UNL     1       3.764  49.974 -13.593  1.00  0.00     0.116 A 
HETATM   27  F1  UNL     1       4.938  49.857 -12.960  1.00  0.00    -0.206 F 
HETATM   28  C21 UNL     1       3.467  51.148 -14.272  1.00  0.00     0.043 A 
HETATM   29  C22 UNL     1       2.243  51.268 -14.932  1.00  0.00     0.012 A 
ENDBRANCH  19  23
ENDBRANCH  15  19
ENDBRANCH   1  13
BRANCH   7  30
HETATM   30  C9  UNL     1       0.432  52.826 -25.232  1.00  0.00     0.011 A 
HETATM   31  C10 UNL     1       1.384  52.272 -26.081  1.00  0.00     0.101 A 
HETATM   32  N5  UNL     1       1.093  51.639 -27.244  1.00  0.00    -0.372 N 
HETATM   33  C11 UNL     1      -0.218  51.577 -27.586  1.00  0.00     0.124 A 
ATOM     34  H5  UNL     1       1.821  51.230 -27.830  1.00  0.00     0.164 HD
HETATM   35  C12 UNL     1      -1.250  52.111 -26.825  1.00  0.00     0.084 A 
HETATM   36  C14 UNL     1      -0.906  52.746 -25.632  1.00  0.00     0.053 A 
BRANCH  35  37
HETATM   37  O3  UNL     1      -2.584  52.084 -27.113  1.00  0.00    -0.355 OA
HETATM   38  C13 UNL     1      -3.065  50.930 -27.794  1.00  0.00     0.210 C 
ENDBRANCH  35  37
ENDBRANCH   7  30
TORSDOF 7
ENDMDL
MODEL 6
REMARK minimizedAffinity -8.49297428
REMARK  7 active torsions:
REMARK  status: ('A' for Active; 'I' for Inactive)
REMARK    1  A    between atoms: O1_2  and  C2_3 
REMARK    2  A    between atoms: C2_3  and  C3_4 
REMARK    3  A    between atoms: C3_4  and  N1_5 
REMARK    4  A    between atoms: C3_4  and  C17_29 
REMARK       I    between atoms: N1_5  and  C4_6 
REMARK       I    between atoms: C4_6  and  N2_8 
REMARK    5  A    between atoms: N2_8  and  C5_9 
REMARK    6  A    between atoms: C8_15  and  C9_16 
REMARK    7  A    between atoms: C12_21  and  O3_22 
ROOT
HETATM    1  C5  UNL     1       0.010  51.813 -19.130  1.00  0.00     0.111 A 
HETATM    2  C6  UNL     1       0.859  52.780 -18.609  1.00  0.00     0.080 A 
HETATM    3  C7  UNL     1       1.357  52.508 -17.335  1.00  0.00     0.065 A 
HETATM    4  N3  UNL     1       2.205  53.205 -16.522  1.00  0.00    -0.299 N 
HETATM    5  N4  UNL     1       2.463  52.602 -15.353  1.00  0.00    -0.299 N 
ATOM      6  H4  UNL     1       3.076  52.926 -14.604  1.00  0.00     0.187 HD
HETATM    7  C8  UNL     1       1.734  51.473 -15.387  1.00  0.00     0.073 A 
HETATM    8  C15 UNL     1       1.032  51.359 -16.627  1.00  0.00     0.036 A 
HETATM    9  C16 UNL     1       0.186  50.431 -17.238  1.00  0.00     0.105 A 
HETATM   10  N6  UNL     1      -0.316  50.672 -18.477  1.00  0.00    -0.351 N 
ATOM     11  H6  UNL     1      -0.939  49.994 -18.915  1.00  0.00     0.166 HD
HETATM   12  H10 UNL     1       2.649  54.098 -16.711  1.00  0.00     0.187 HD
ENDROOT
BRANCH   1  13
HETATM   13  N2  UNL     1      -0.585  51.905 -20.389  1.00  0.00    -0.295 N 
HETATM   14  C4  UNL     1       0.016  51.880 -21.618  1.00  0.00     0.322 C 
HETATM   15  N1  UNL     1      -0.917  51.968 -22.628  1.00  0.00    -0.332 N 
HETATM   16  O2  UNL     1       1.220  51.812 -21.833  1.00  0.00    -0.247 OA
HETATM   17  H7  UNL     1      -1.839  51.624 -22.405  1.00  0.00     0.165 HD
HETATM   18  H8  UNL     1      -1.570  52.107 -20.333  1.00  0.00     0.172 HD
BRANCH  15  19
HETATM   19  C3  UNL     1      -0.530  51.865 -24.036  1.00  0.00     0.143 C 
BRANCH  19  20
HETATM   20  C2  UNL     1      -0.584  53.266 -24.689  1.00  0.00     0.197 C 
BRANCH  20  21
HETATM   21  O1  UNL     1       0.539  53.472 -25.550  1.00  0.00    -0.394 OA
HETATM   22  C1  UNL     1       0.140  53.696 -26.895  1.00  0.00     0.201 C 
ENDBRANCH  20  21
ENDBRANCH  19  20
BRANCH  19  23
HETATM   23  C17 UNL     1      -1.384  50.782 -24.692  1.00  0.00    -0.033 A 
HETATM   24  C18 UNL     1      -1.396  50.544 -26.076  1.00  0.00     0.012 A 
HETATM   25  C19 UNL     1      -2.223  49.558 -26.621  1.00  0.00     0.043 A 
HETATM   26  C20 UNL     1      -3.048  48.812 -25.789  1.00  0.00     0.116 A 
HETATM   27  F1  UNL     1      -3.841  47.870 -26.316  1.00  0.00    -0.206 F 
HETATM   28  C21 UNL     1      -3.063  49.032 -24.419  1.00  0.00     0.043 A 
HETATM   29  C22 UNL     1      -2.236  50.014 -23.873  1.00  0.00     0.012 A 
ENDBRANCH  19  23
ENDBRANCH  15  19
ENDBRANCH   1  13
BRANCH   7  30
HETATM   30  C9  UNL     1       1.742  50.549 -14.259  1.00  0.00     0.011 A 
HETATM   31  C10 UNL     1       0.567  50.006 -13.752  1.00  0.00     0.101 A 
HETATM   32  N5  UNL     1       0.516  49.128 -12.721  1.00  0.00    -0.372 N 
HETATM   33  C11 UNL     1       1.701  48.793 -12.153  1.00  0.00     0.124 A 
ATOM     34  H5  UNL     1      -0.368  48.739 -12.389  1.00  0.00     0.164 HD
HETATM   35  C12 UNL     1       2.932  49.289 -12.565  1.00  0.00     0.084 A 
HETATM   36  C14 UNL     1       2.938  50.182 -13.635  1.00  0.00     0.053 A 
BRANCH  35  37
HETATM   37  O3  UNL     1       4.155  48.994 -12.037  1.00  0.00    -0.355 OA
HETATM   38  C13 UNL     1       4.747  49.988 -11.207  1.00  0.00     0.210 C 
ENDBRANCH  35  37
ENDBRANCH   7  30
TORSDOF 7
ENDMDL
MODEL 7
REMARK minimizedAffinity -8.48501015
REMARK  7 active torsions:
REMARK  status: ('A' for Active; 'I' for Inactive)
REMARK    1  A    between atoms: O1_2  and  C2_3 
REMARK    2  A    between atoms: C2_3  and  C3_4 
REMARK    3  A    between atoms: C3_4  and  N1_5 
REMARK    4  A    between atoms: C3_4  and  C17_29 
REMARK       I    between atoms: N1_5  and  C4_6 
REMARK       I    between atoms: C4_6  and  N2_8 
REMARK    5  A    between atoms: N2_8  and  C5_9 
REMARK    6  A    between atoms: C8_15  and  C9_16 
REMARK    7  A    between atoms: C12_21  and  O3_22 
ROOT
HETATM    1  C5  UNL     1       0.928  52.915 -19.637  1.00  0.00     0.111 A 
HETATM    2  C6  UNL     1       1.538  53.991 -20.267  1.00  0.00     0.080 A 
HETATM    3  C7  UNL     1       1.341  54.061 -21.646  1.00  0.00     0.065 A 
HETATM    4  N3  UNL     1       1.769  54.959 -22.582  1.00  0.00    -0.299 N 
HETATM    5  N4  UNL     1       1.354  54.692 -23.829  1.00  0.00    -0.299 N 
ATOM      6  H4  UNL     1       1.537  55.229 -24.677  1.00  0.00     0.187 HD
HETATM    7  C8  UNL     1       0.645  53.556 -23.712  1.00  0.00     0.073 A 
HETATM    8  C15 UNL     1       0.591  53.128 -22.349  1.00  0.00     0.036 A 
HETATM    9  C16 UNL     1      -0.004  52.090 -21.630  1.00  0.00     0.105 A 
HETATM   10  N6  UNL     1       0.176  51.995 -20.287  1.00  0.00    -0.351 N 
ATOM     11  H6  UNL     1      -0.256  51.231 -19.767  1.00  0.00     0.166 HD
HETATM   12  H10 UNL     1       2.343  55.782 -22.432  1.00  0.00     0.187 HD
ENDROOT
BRANCH   1  13
HETATM   13  N2  UNL     1       1.009  52.676 -18.265  1.00  0.00    -0.295 N 
HETATM   14  C4  UNL     1       0.463  51.646 -17.546  1.00  0.00     0.322 C 
HETATM   15  N1  UNL     1       0.792  51.744 -16.213  1.00  0.00    -0.332 N 
HETATM   16  O2  UNL     1      -0.245  50.752 -17.990  1.00  0.00    -0.247 OA
HETATM   17  H7  UNL     1       1.654  52.228 -16.006  1.00  0.00     0.165 HD
HETATM   18  H8  UNL     1       1.454  53.432 -17.770  1.00  0.00     0.172 HD
BRANCH  15  19
HETATM   19  C3  UNL     1       0.408  50.707 -15.253  1.00  0.00     0.143 C 
BRANCH  19  20
HETATM   20  C2  UNL     1       0.268  49.352 -15.987  1.00  0.00     0.197 C 
BRANCH  20  21
HETATM   21  O1  UNL     1       1.082  48.352 -15.371  1.00  0.00    -0.394 OA
HETATM   22  C1  UNL     1       1.746  48.848 -14.217  1.00  0.00     0.201 C 
ENDBRANCH  20  21
ENDBRANCH  19  20
BRANCH  19  23
HETATM   23  C17 UNL     1      -0.824  51.191 -14.491  1.00  0.00    -0.033 A 
HETATM   24  C18 UNL     1      -2.138  50.990 -14.945  1.00  0.00     0.012 A 
HETATM   25  C19 UNL     1      -3.225  51.484 -14.217  1.00  0.00     0.043 A 
HETATM   26  C20 UNL     1      -3.005  52.187 -13.040  1.00  0.00     0.116 A 
HETATM   27  F1  UNL     1      -4.049  52.660 -12.347  1.00  0.00    -0.206 F 
HETATM   28  C21 UNL     1      -1.717  52.407 -12.572  1.00  0.00     0.043 A 
HETATM   29  C22 UNL     1      -0.630  51.913 -13.296  1.00  0.00     0.012 A 
ENDBRANCH  19  23
ENDBRANCH  15  19
ENDBRANCH   1  13
BRANCH   7  30
HETATM   30  C9  UNL     1       0.041  52.934 -24.884  1.00  0.00     0.011 A 
HETATM   31  C10 UNL     1      -1.334  52.753 -24.988  1.00  0.00     0.101 A 
HETATM   32  N5  UNL     1      -1.951  52.201 -26.062  1.00  0.00    -0.372 N 
HETATM   33  C11 UNL     1      -1.149  51.788 -27.073  1.00  0.00     0.124 A 
ATOM     34  H5  UNL     1      -2.966  52.102 -26.105  1.00  0.00     0.164 HD
HETATM   35  C12 UNL     1       0.236  51.901 -27.069  1.00  0.00     0.084 A 
HETATM   36  C14 UNL     1       0.828  52.483 -25.949  1.00  0.00     0.053 A 
BRANCH  35  37
HETATM   37  O3  UNL     1       1.097  51.505 -28.051  1.00  0.00    -0.355 OA
HETATM   38  C13 UNL     1       2.481  51.738 -27.817  1.00  0.00     0.210 C 
ENDBRANCH  35  37
ENDBRANCH   7  30
TORSDOF 7
ENDMDL
MODEL 8
REMARK minimizedAffinity -8.45237923
REMARK  7 active torsions:
REMARK  status: ('A' for Active; 'I' for Inactive)
REMARK    1  A    between atoms: O1_2  and  C2_3 
REMARK    2  A    between atoms: C2_3  and  C3_4 
REMARK    3  A    between atoms: C3_4  and  N1_5 
REMARK    4  A    between atoms: C3_4  and  C17_29 
REMARK       I    between atoms: N1_5  and  C4_6 
REMARK       I    between atoms: C4_6  and  N2_8 
REMARK    5  A    between atoms: N2_8  and  C5_9 
REMARK    6  A    between atoms: C8_15  and  C9_16 
REMARK    7  A    between atoms: C12_21  and  O3_22 
ROOT
HETATM    1  C5  UNL     1      -4.043  49.368 -25.609  1.00  0.00     0.111 A 
HETATM    2  C6  UNL     1      -3.632  48.770 -24.426  1.00  0.00     0.080 A 
HETATM    3  C7  UNL     1      -2.642  49.458 -23.725  1.00  0.00     0.065 A 
HETATM    4  N3  UNL     1      -2.008  49.189 -22.546  1.00  0.00    -0.299 N 
HETATM    5  N4  UNL     1      -1.105  50.113 -22.185  1.00  0.00    -0.299 N 
ATOM      6  H4  UNL     1      -0.529  50.128 -21.343  1.00  0.00     0.187 HD
HETATM    7  C8  UNL     1      -1.127  51.013 -23.183  1.00  0.00     0.073 A 
HETATM    8  C15 UNL     1      -2.096  50.654 -24.171  1.00  0.00     0.036 A 
HETATM    9  C16 UNL     1      -2.584  51.193 -25.362  1.00  0.00     0.105 A 
HETATM   10  N6  UNL     1      -3.546  50.542 -26.067  1.00  0.00    -0.351 N 
ATOM     11  H6  UNL     1      -3.894  50.938 -26.940  1.00  0.00     0.166 HD
HETATM   12  H10 UNL     1      -2.152  48.392 -21.934  1.00  0.00     0.187 HD
ENDROOT
BRANCH   1  13
HETATM   13  N2  UNL     1      -5.023  48.833 -26.446  1.00  0.00    -0.295 N 
HETATM   14  C4  UNL     1      -4.910  48.458 -27.758  1.00  0.00     0.322 C 
HETATM   15  N1  UNL     1      -6.098  47.946 -28.230  1.00  0.00    -0.332 N 
HETATM   16  O2  UNL     1      -3.912  48.568 -28.457  1.00  0.00    -0.247 OA
HETATM   17  H7  UNL     1      -6.704  47.529 -27.538  1.00  0.00     0.165 HD
HETATM   18  H8  UNL     1      -5.933  48.828 -26.015  1.00  0.00     0.172 HD
BRANCH  15  19
HETATM   19  C3  UNL     1      -6.206  47.386 -29.579  1.00  0.00     0.143 C 
BRANCH  19  20
HETATM   20  C2  UNL     1      -5.377  48.246 -30.562  1.00  0.00     0.197 C 
BRANCH  20  21
HETATM   21  O1  UNL     1      -4.619  47.419 -31.449  1.00  0.00    -0.394 OA
HETATM   22  C1  UNL     1      -4.898  47.712 -32.811  1.00  0.00     0.201 C 
ENDBRANCH  20  21
ENDBRANCH  19  20
BRANCH  19  23
HETATM   23  C17 UNL     1      -7.686  47.219 -29.913  1.00  0.00    -0.033 A 
HETATM   24  C18 UNL     1      -8.517  48.288 -30.288  1.00  0.00     0.012 A 
HETATM   25  C19 UNL     1      -9.873  48.078 -30.552  1.00  0.00     0.043 A 
HETATM   26  C20 UNL     1     -10.408  46.802 -30.435  1.00  0.00     0.116 A 
HETATM   27  F1  UNL     1     -11.709  46.605 -30.686  1.00  0.00    -0.206 F 
HETATM   28  C21 UNL     1      -9.614  45.728 -30.058  1.00  0.00     0.043 A 
HETATM   29  C22 UNL     1      -8.259  45.936 -29.796  1.00  0.00     0.012 A 
ENDBRANCH  19  23
ENDBRANCH  15  19
ENDBRANCH   1  13
BRANCH   7  30
HETATM   30  C9  UNL     1      -0.247  52.175 -23.154  1.00  0.00     0.011 A 
HETATM   31  C10 UNL     1       0.124  52.840 -24.317  1.00  0.00     0.101 A 
HETATM   32  N5  UNL     1       0.922  53.936 -24.348  1.00  0.00    -0.372 N 
HETATM   33  C11 UNL     1       1.391  54.376 -23.155  1.00  0.00     0.124 A 
ATOM     34  H5  UNL     1       1.156  54.405 -25.223  1.00  0.00     0.164 HD
HETATM   35  C12 UNL     1       1.101  53.779 -21.934  1.00  0.00     0.084 A 
HETATM   36  C14 UNL     1       0.270  52.659 -21.948  1.00  0.00     0.053 A 
BRANCH  35  37
HETATM   37  O3  UNL     1       1.541  54.170 -20.702  1.00  0.00    -0.355 OA
HETATM   38  C13 UNL     1       1.226  53.312 -19.611  1.00  0.00     0.210 C 
ENDBRANCH  35  37
ENDBRANCH   7  30
TORSDOF 7
ENDMDL
MODEL 9
REMARK minimizedAffinity -8.44746017
REMARK  7 active torsions:
REMARK  status: ('A' for Active; 'I' for Inactive)
REMARK    1  A    between atoms: O1_2  and  C2_3 
REMARK    2  A    between atoms: C2_3  and  C3_4 
REMARK    3  A    between atoms: C3_4  and  N1_5 
REMARK    4  A    between atoms: C3_4  and  C17_29 
REMARK       I    between atoms: N1_5  and  C4_6 
REMARK       I    between atoms: C4_6  and  N2_8 
REMARK    5  A    between atoms: N2_8  and  C5_9 
REMARK    6  A    between atoms: C8_15  and  C9_16 
REMARK    7  A    between atoms: C12_21  and  O3_22 
ROOT
HETATM    1  C5  UNL     1      -3.064  51.367 -20.079  1.00  0.00     0.111 A 
HETATM    2  C6  UNL     1      -4.401  51.281 -20.443  1.00  0.00     0.080 A 
HETATM    3  C7  UNL     1      -4.639  51.197 -21.815  1.00  0.00     0.065 A 
HETATM    4  N3  UNL     1      -5.795  51.094 -22.534  1.00  0.00    -0.299 N 
HETATM    5  N4  UNL     1      -5.613  51.023 -23.860  1.00  0.00    -0.299 N 
ATOM      6  H4  UNL     1      -6.325  50.925 -24.585  1.00  0.00     0.187 HD
HETATM    7  C8  UNL     1      -4.281  51.109 -24.022  1.00  0.00     0.073 A 
HETATM    8  C15 UNL     1      -3.620  51.202 -22.758  1.00  0.00     0.036 A 
HETATM    9  C16 UNL     1      -2.303  51.271 -22.300  1.00  0.00     0.105 A 
HETATM   10  N6  UNL     1      -2.044  51.358 -20.969  1.00  0.00    -0.351 N 
ATOM     11  H6  UNL     1      -1.079  51.415 -20.641  1.00  0.00     0.166 HD
HETATM   12  H10 UNL     1      -6.745  51.059 -22.176  1.00  0.00     0.187 HD
ENDROOT
BRANCH   1  13
HETATM   13  N2  UNL     1      -2.628  51.457 -18.757  1.00  0.00    -0.295 N 
HETATM   14  C4  UNL     1      -1.782  50.619 -18.081  1.00  0.00     0.322 C 
HETATM   15  N1  UNL     1      -1.570  51.061 -16.794  1.00  0.00    -0.332 N 
HETATM   16  O2  UNL     1      -1.277  49.594 -18.521  1.00  0.00    -0.247 OA
HETATM   17  H7  UNL     1      -1.672  52.055 -16.648  1.00  0.00     0.165 HD
HETATM   18  H8  UNL     1      -3.093  52.191 -18.249  1.00  0.00     0.172 HD
BRANCH  15  19
HETATM   19  C3  UNL     1      -0.625  50.387 -15.901  1.00  0.00     0.143 C 
BRANCH  19  20
HETATM   20  C2  UNL     1      -1.265  50.223 -14.502  1.00  0.00     0.197 C 
BRANCH  20  21
HETATM   21  O1  UNL     1      -1.506  51.496 -13.899  1.00  0.00    -0.394 OA
HETATM   22  C1  UNL     1      -2.856  51.633 -13.476  1.00  0.00     0.201 C 
ENDBRANCH  20  21
ENDBRANCH  19  20
BRANCH  19  23
HETATM   23  C17 UNL     1       0.703  51.140 -15.951  1.00  0.00    -0.033 A 
HETATM   24  C18 UNL     1       1.022  52.072 -16.952  1.00  0.00     0.012 A 
HETATM   25  C19 UNL     1       2.268  52.707 -16.962  1.00  0.00     0.043 A 
HETATM   26  C20 UNL     1       3.202  52.408 -15.979  1.00  0.00     0.116 A 
HETATM   27  F1  UNL     1       4.395  53.017 -15.993  1.00  0.00    -0.206 F 
HETATM   28  C21 UNL     1       2.917  51.485 -14.983  1.00  0.00     0.043 A 
HETATM   29  C22 UNL     1       1.673  50.851 -14.970  1.00  0.00     0.012 A 
ENDBRANCH  19  23
ENDBRANCH  15  19
ENDBRANCH   1  13
BRANCH   7  30
HETATM   30  C9  UNL     1      -3.693  51.088 -25.356  1.00  0.00     0.011 A 
HETATM   31  C10 UNL     1      -3.660  49.927 -26.121  1.00  0.00     0.101 A 
HETATM   32  N5  UNL     1      -3.145  49.854 -27.373  1.00  0.00    -0.372 N 
HETATM   33  C11 UNL     1      -2.616  50.995 -27.877  1.00  0.00     0.124 A 
ATOM     34  H5  UNL     1      -3.156  48.985 -27.908  1.00  0.00     0.164 HD
HETATM   35  C12 UNL     1      -2.577  52.206 -27.195  1.00  0.00     0.084 A 
HETATM   36  C14 UNL     1      -3.126  52.238 -25.914  1.00  0.00     0.053 A 
BRANCH  35  37
HETATM   37  O3  UNL     1      -2.060  53.386 -27.644  1.00  0.00    -0.355 OA
HETATM   38  C13 UNL     1      -0.650  53.432 -27.834  1.00  0.00     0.210 C 
ENDBRANCH  35  37
ENDBRANCH   7  30
TORSDOF 7
ENDMDL
