MODEL 1
REMARK minimizedAffinity -8.94876194
REMARK CNNscore 0.427482128
REMARK CNNaffinity 7.74184275
REMARK  7 active torsions:
REMARK  status: ('A' for Active; 'I' for Inactive)
REMARK       I    between atoms: C1_2  and  N1_3 
REMARK    1  A    between atoms: C1_2  and  C8_12 
REMARK    2  A    between atoms: N1_3  and  C2_4 
REMARK    3  A    between atoms: C5_7  and  O2_8 
REMARK    4  A    between atoms: N2_15  and  C11_16 
REMARK    5  A    between atoms: C11_16  and  C12_17 
REMARK       I    between atoms: C12_17  and  N3_19 
REMARK    6  A    between atoms: N4_22  and  C15_23 
REMARK    7  A    between atoms: C18_26  and  C19_27 
ROOT
HETATM    1  C12 UNL     1      -5.232  47.344 -19.568  1.00  0.00     0.248 C 
HETATM    2  O3  UNL     1      -5.068  46.158 -19.859  1.00  0.00    -0.271 OA
HETATM    3  N3  UNL     1      -5.766  48.246 -20.491  1.00  0.00    -0.348 N 
HETATM    4  C13 UNL     1      -5.641  49.704 -20.405  1.00  0.00     0.145 C 
HETATM    5  C14 UNL     1      -4.533  50.223 -21.351  1.00  0.00     0.143 C 
HETATM    6  N4  UNL     1      -4.762  49.732 -22.736  1.00  0.00    -0.378 N 
HETATM    7  C24 UNL     1      -4.907  48.255 -22.814  1.00  0.00     0.143 C 
HETATM    8  C25 UNL     1      -6.020  47.778 -21.859  1.00  0.00     0.145 C 
ENDROOT
BRANCH   1   9
HETATM    9  C11 UNL     1      -4.906  47.917 -18.170  1.00  0.00     0.374 C 
BRANCH   9  10
HETATM   10  N2  UNL     1      -3.471  47.816 -17.827  1.00  0.00     0.098 N 
HETATM   11  C10 UNL     1      -3.183  48.266 -16.458  1.00  0.00     0.274 C 
HETATM   12  C9  UNL     1      -2.875  49.761 -16.540  1.00  0.00     0.046 C 
HETATM   13  C8  UNL     1      -2.727  50.066 -18.030  1.00  0.00     0.108 C 
HETATM   14  C26 UNL     1      -2.638  48.687 -18.673  1.00  0.00     0.287 C 
BRANCH  13  15
HETATM   15  C1  UNL     1      -1.539  50.956 -18.369  1.00  0.00     0.228 C 
HETATM   16  O1  UNL     1      -0.611  51.120 -17.586  1.00  0.00    -0.273 OA
HETATM   17  N1  UNL     1      -1.623  51.472 -19.654  1.00  0.00    -0.327 N 
HETATM   18  H1  UNL     1      -2.436  51.210 -20.197  1.00  0.00     0.169 HD
BRANCH  17  19
HETATM   19  C2  UNL     1      -0.671  52.272 -20.321  1.00  0.00     0.036 A 
HETATM   20  C3  UNL     1       0.080  53.155 -19.529  1.00  0.00     0.032 A 
HETATM   21  C4  UNL     1       1.039  53.991 -20.104  1.00  0.00     0.040 A 
HETATM   22  C5  UNL     1       1.258  53.940 -21.473  1.00  0.00     0.087 A 
HETATM   23  C6  UNL     1       0.520  53.067 -22.272  1.00  0.00     0.069 A 
HETATM   24 CL1  UNL     1       0.800  53.003 -23.972  1.00  0.00    -0.081 Cl
HETATM   25  C7  UNL     1      -0.440  52.230 -21.698  1.00  0.00     0.056 A 
BRANCH  22  26
HETATM   26  O2  UNL     1       2.212  54.773 -21.991  1.00  0.00    -0.359 OA
HETATM   27  H4  UNL     1       2.253  54.598 -22.950  1.00  0.00     0.217 HD
ENDBRANCH  22  26
ENDBRANCH  17  19
ENDBRANCH  13  15
ENDBRANCH   9  10
ENDBRANCH   1   9
BRANCH   6  28
HETATM   28  C15 UNL     1      -3.967  50.365 -23.703  1.00  0.00     0.030 A 
HETATM   29  C16 UNL     1      -3.443  49.617 -24.769  1.00  0.00     0.030 A 
HETATM   30  C17 UNL     1      -2.619  50.192 -25.750  1.00  0.00     0.016 A 
HETATM   31  C18 UNL     1      -2.283  51.549 -25.699  1.00  0.00    -0.002 A 
HETATM   32  C22 UNL     1      -2.791  52.300 -24.630  1.00  0.00     0.016 A 
HETATM   33  C23 UNL     1      -3.615  51.719 -23.653  1.00  0.00     0.030 A 
BRANCH  31  34
HETATM   34  C19 UNL     1      -1.405  52.209 -26.685  1.00  0.00     0.084 A 
HETATM   35  N5  UNL     1      -1.617  53.422 -27.166  1.00  0.00    -0.359 N 
HETATM   36  C20 UNL     1      -0.621  53.771 -28.057  1.00  0.00     0.096 A 
ATOM     37  H5  UNL     1      -2.405  54.018 -26.914  1.00  0.00     0.166 HD
HETATM   38  C21 UNL     1       0.344  52.813 -28.270  1.00  0.00     0.069 A 
HETATM   39  S1  UNL     1      -0.006  51.425 -27.331  1.00  0.00    -0.082 SA
ENDBRANCH  31  34
ENDBRANCH   6  28
TORSDOF 7
ENDMDL
MODEL 2
REMARK minimizedAffinity -8.79391479
REMARK CNNscore 0.342638195
REMARK CNNaffinity 7.04371214
REMARK  7 active torsions:
REMARK  status: ('A' for Active; 'I' for Inactive)
REMARK       I    between atoms: C1_2  and  N1_3 
REMARK    1  A    between atoms: C1_2  and  C8_12 
REMARK    2  A    between atoms: N1_3  and  C2_4 
REMARK    3  A    between atoms: C5_7  and  O2_8 
REMARK    4  A    between atoms: N2_15  and  C11_16 
REMARK    5  A    between atoms: C11_16  and  C12_17 
REMARK       I    between atoms: C12_17  and  N3_19 
REMARK    6  A    between atoms: N4_22  and  C15_23 
REMARK    7  A    between atoms: C18_26  and  C19_27 
ROOT
HETATM    1  C12 UNL     1      -2.355  51.443 -25.047  1.00  0.00     0.248 C 
HETATM    2  O3  UNL     1      -2.356  52.557 -25.574  1.00  0.00    -0.271 OA
HETATM    3  N3  UNL     1      -2.231  50.283 -25.814  1.00  0.00    -0.348 N 
HETATM    4  C13 UNL     1      -2.606  48.939 -25.364  1.00  0.00     0.145 C 
HETATM    5  C14 UNL     1      -3.981  48.524 -25.937  1.00  0.00     0.143 C 
HETATM    6  N4  UNL     1      -3.993  48.676 -27.417  1.00  0.00    -0.378 N 
HETATM    7  C24 UNL     1      -3.594  50.036 -27.867  1.00  0.00     0.143 C 
HETATM    8  C25 UNL     1      -2.220  50.410 -27.276  1.00  0.00     0.145 C 
ENDROOT
BRANCH   1   9
HETATM    9  C11 UNL     1      -2.448  51.239 -23.518  1.00  0.00     0.374 C 
BRANCH   9  10
HETATM   10  N2  UNL     1      -1.181  50.763 -22.922  1.00  0.00     0.098 N 
HETATM   11  C10 UNL     1      -1.383  49.672 -21.958  1.00  0.00     0.274 C 
HETATM   12  C9  UNL     1      -1.575  50.322 -20.589  1.00  0.00     0.046 C 
HETATM   13  C8  UNL     1      -1.196  51.790 -20.777  1.00  0.00     0.108 C 
HETATM   14  C26 UNL     1      -0.510  51.813 -22.137  1.00  0.00     0.287 C 
BRANCH  13  15
HETATM   15  C1  UNL     1      -0.324  52.355 -19.664  1.00  0.00     0.228 C 
HETATM   16  O1  UNL     1       0.067  53.516 -19.675  1.00  0.00    -0.273 OA
HETATM   17  N1  UNL     1      -0.107  51.432 -18.651  1.00  0.00    -0.327 N 
HETATM   18  H1  UNL     1      -0.534  50.521 -18.767  1.00  0.00     0.169 HD
BRANCH  17  19
HETATM   19  C2  UNL     1       0.590  51.633 -17.441  1.00  0.00     0.036 A 
HETATM   20  C3  UNL     1      -0.051  51.214 -16.265  1.00  0.00     0.032 A 
HETATM   21  C4  UNL     1       0.559  51.381 -15.020  1.00  0.00     0.040 A 
HETATM   22  C5  UNL     1       1.819  51.957 -14.948  1.00  0.00     0.087 A 
HETATM   23  C6  UNL     1       2.469  52.377 -16.109  1.00  0.00     0.069 A 
HETATM   24 CL1  UNL     1       4.036  53.088 -16.015  1.00  0.00    -0.081 Cl
HETATM   25  C7  UNL     1       1.859  52.212 -17.355  1.00  0.00     0.056 A 
BRANCH  22  26
HETATM   26  O2  UNL     1       2.381  52.095 -13.708  1.00  0.00    -0.359 OA
HETATM   27  H4  UNL     1       3.262  52.493 -13.837  1.00  0.00     0.217 HD
ENDBRANCH  22  26
ENDBRANCH  17  19
ENDBRANCH  13  15
ENDBRANCH   9  10
ENDBRANCH   1   9
BRANCH   6  28
HETATM   28  C15 UNL     1      -5.097  48.076 -28.042  1.00  0.00     0.030 A 
HETATM   29  C16 UNL     1      -5.161  48.030 -29.444  1.00  0.00     0.030 A 
HETATM   30  C17 UNL     1      -6.254  47.467 -30.122  1.00  0.00     0.016 A 
HETATM   31  C18 UNL     1      -7.334  46.926 -29.417  1.00  0.00    -0.002 A 
HETATM   32  C22 UNL     1      -7.284  46.980 -28.017  1.00  0.00     0.016 A 
HETATM   33  C23 UNL     1      -6.188  47.543 -27.345  1.00  0.00     0.030 A 
BRANCH  31  34
HETATM   34  C19 UNL     1      -8.521  46.338 -30.069  1.00  0.00     0.084 A 
HETATM   35  N5  UNL     1      -9.014  46.759 -31.222  1.00  0.00    -0.359 N 
HETATM   36  C20 UNL     1     -10.115  46.008 -31.581  1.00  0.00     0.096 A 
ATOM     37  H5  UNL     1      -8.634  47.532 -31.769  1.00  0.00     0.166 HD
HETATM   38  C21 UNL     1     -10.475  45.022 -30.691  1.00  0.00     0.069 A 
HETATM   39  S1  UNL     1      -9.405  45.036 -29.354  1.00  0.00    -0.082 SA
ENDBRANCH  31  34
ENDBRANCH   6  28
TORSDOF 7
ENDMDL
MODEL 3
REMARK minimizedAffinity -7.40987778
REMARK CNNscore 0.262331307
REMARK CNNaffinity 5.43224955
REMARK  7 active torsions:
REMARK  status: ('A' for Active; 'I' for Inactive)
REMARK       I    between atoms: C1_2  and  N1_3 
REMARK    1  A    between atoms: C1_2  and  C8_12 
REMARK    2  A    between atoms: N1_3  and  C2_4 
REMARK    3  A    between atoms: C5_7  and  O2_8 
REMARK    4  A    between atoms: N2_15  and  C11_16 
REMARK    5  A    between atoms: C11_16  and  C12_17 
REMARK       I    between atoms: C12_17  and  N3_19 
REMARK    6  A    between atoms: N4_22  and  C15_23 
REMARK    7  A    between atoms: C18_26  and  C19_27 
ROOT
HETATM    1  C12 UNL     1      -8.213  48.569 -19.071  1.00  0.00     0.248 C 
HETATM    2  O3  UNL     1      -8.289  49.333 -18.107  1.00  0.00    -0.271 OA
HETATM    3  N3  UNL     1      -6.981  48.075 -19.503  1.00  0.00    -0.348 N 
HETATM    4  C13 UNL     1      -6.727  47.503 -20.830  1.00  0.00     0.145 C 
HETATM    5  C14 UNL     1      -6.030  48.530 -21.752  1.00  0.00     0.143 C 
HETATM    6  N4  UNL     1      -4.807  49.068 -21.097  1.00  0.00    -0.378 N 
HETATM    7  C24 UNL     1      -5.068  49.628 -19.746  1.00  0.00     0.143 C 
HETATM    8  C25 UNL     1      -5.761  48.575 -18.858  1.00  0.00     0.145 C 
ENDROOT
BRANCH   1   9
HETATM    9  C11 UNL     1      -9.454  48.071 -19.845  1.00  0.00     0.374 C 
BRANCH   9  10
HETATM   10  N2  UNL     1     -10.640  47.894 -18.980  1.00  0.00     0.098 N 
HETATM   11  C10 UNL     1     -10.910  46.483 -18.670  1.00  0.00     0.274 C 
HETATM   12  C9  UNL     1     -11.849  45.964 -19.758  1.00  0.00     0.046 C 
HETATM   13  C8  UNL     1     -12.313  47.203 -20.523  1.00  0.00     0.108 C 
HETATM   14  C26 UNL     1     -11.876  48.359 -19.633  1.00  0.00     0.287 C 
BRANCH  13  15
HETATM   15  C1  UNL     1     -13.803  47.222 -20.830  1.00  0.00     0.228 C 
HETATM   16  O1  UNL     1     -14.273  47.936 -21.708  1.00  0.00    -0.273 OA
HETATM   17  N1  UNL     1     -14.508  46.308 -20.059  1.00  0.00    -0.327 N 
HETATM   18  H1  UNL     1     -13.969  45.757 -19.403  1.00  0.00     0.169 HD
BRANCH  17  19
HETATM   19  C2  UNL     1     -15.885  46.008 -20.127  1.00  0.00     0.036 A 
HETATM   20  C3  UNL     1     -16.234  44.750 -20.643  1.00  0.00     0.032 A 
HETATM   21  C4  UNL     1     -17.572  44.370 -20.756  1.00  0.00     0.040 A 
HETATM   22  C5  UNL     1     -18.568  45.243 -20.342  1.00  0.00     0.087 A 
HETATM   23  C6  UNL     1     -18.236  46.496 -19.826  1.00  0.00     0.069 A 
HETATM   24 CL1  UNL     1     -19.476  47.575 -19.308  1.00  0.00    -0.081 Cl
HETATM   25  C7  UNL     1     -16.897  46.878 -19.713  1.00  0.00     0.056 A 
BRANCH  22  26
HETATM   26  O2  UNL     1     -19.865  44.826 -20.464  1.00  0.00    -0.359 OA
HETATM   27  H4  UNL     1     -20.429  45.540 -20.114  1.00  0.00     0.217 HD
ENDBRANCH  22  26
ENDBRANCH  17  19
ENDBRANCH  13  15
ENDBRANCH   9  10
ENDBRANCH   1   9
BRANCH   6  28
HETATM   28  C15 UNL     1      -3.973  49.796 -21.960  1.00  0.00     0.030 A 
HETATM   29  C16 UNL     1      -4.019  51.199 -21.949  1.00  0.00     0.030 A 
HETATM   30  C17 UNL     1      -3.228  51.977 -22.809  1.00  0.00     0.016 A 
HETATM   31  C18 UNL     1      -2.356  51.376 -23.723  1.00  0.00    -0.002 A 
HETATM   32  C22 UNL     1      -2.316  49.975 -23.750  1.00  0.00     0.016 A 
HETATM   33  C23 UNL     1      -3.108  49.203 -22.887  1.00  0.00     0.030 A 
BRANCH  31  34
HETATM   34  C19 UNL     1      -1.515  52.136 -24.668  1.00  0.00     0.084 A 
HETATM   35  N5  UNL     1      -0.574  52.988 -24.298  1.00  0.00    -0.359 N 
HETATM   36  C20 UNL     1       0.050  53.532 -25.404  1.00  0.00     0.096 A 
ATOM     37  H5  UNL     1      -0.341  53.212 -23.331  1.00  0.00     0.166 HD
HETATM   38  C21 UNL     1      -0.430  53.108 -26.622  1.00  0.00     0.069 A 
HETATM   39  S1  UNL     1      -1.708  51.995 -26.380  1.00  0.00    -0.082 SA
ENDBRANCH  31  34
ENDBRANCH   6  28
TORSDOF 7
ENDMDL
MODEL 4
REMARK minimizedAffinity -8.69955158
REMARK CNNscore 0.252902389
REMARK CNNaffinity 6.61013651
REMARK  7 active torsions:
REMARK  status: ('A' for Active; 'I' for Inactive)
REMARK       I    between atoms: C1_2  and  N1_3 
REMARK    1  A    between atoms: C1_2  and  C8_12 
REMARK    2  A    between atoms: N1_3  and  C2_4 
REMARK    3  A    between atoms: C5_7  and  O2_8 
REMARK    4  A    between atoms: N2_15  and  C11_16 
REMARK    5  A    between atoms: C11_16  and  C12_17 
REMARK       I    between atoms: C12_17  and  N3_19 
REMARK    6  A    between atoms: N4_22  and  C15_23 
REMARK    7  A    between atoms: C18_26  and  C19_27 
ROOT
HETATM    1  C12 UNL     1      -1.602  50.871 -16.574  1.00  0.00     0.248 C 
HETATM    2  O3  UNL     1      -2.800  51.157 -16.548  1.00  0.00    -0.271 OA
HETATM    3  N3  UNL     1      -0.938  50.439 -15.424  1.00  0.00    -0.348 N 
HETATM    4  C13 UNL     1       0.517  50.454 -15.242  1.00  0.00     0.145 C 
HETATM    5  C14 UNL     1       0.956  51.665 -14.387  1.00  0.00     0.143 C 
HETATM    6  N4  UNL     1       0.200  51.697 -13.106  1.00  0.00    -0.378 N 
HETATM    7  C24 UNL     1      -1.274  51.662 -13.298  1.00  0.00     0.143 C 
HETATM    8  C25 UNL     1      -1.671  50.442 -14.152  1.00  0.00     0.145 C 
ENDROOT
BRANCH   1   9
HETATM    9  C11 UNL     1      -0.755  50.928 -17.866  1.00  0.00     0.374 C 
BRANCH   9  10
HETATM   10  N2  UNL     1      -1.572  51.121 -19.083  1.00  0.00     0.098 N 
HETATM   11  C10 UNL     1      -1.575  49.939 -19.958  1.00  0.00     0.274 C 
HETATM   12  C9  UNL     1      -0.409  50.108 -20.931  1.00  0.00     0.046 C 
HETATM   13  C8  UNL     1       0.068  51.549 -20.750  1.00  0.00     0.108 C 
HETATM   14  C26 UNL     1      -1.045  52.197 -19.938  1.00  0.00     0.287 C 
BRANCH  13  15
HETATM   15  C1  UNL     1       0.351  52.278 -22.056  1.00  0.00     0.228 C 
HETATM   16  O1  UNL     1       1.126  53.225 -22.113  1.00  0.00    -0.273 OA
HETATM   17  N1  UNL     1      -0.308  51.699 -23.132  1.00  0.00    -0.327 N 
HETATM   18  H1  UNL     1      -0.884  50.891 -22.930  1.00  0.00     0.169 HD
BRANCH  17  19
HETATM   19  C2  UNL     1      -0.221  52.067 -24.491  1.00  0.00     0.036 A 
HETATM   20  C3  UNL     1      -0.215  51.023 -25.429  1.00  0.00     0.032 A 
HETATM   21  C4  UNL     1      -0.122  51.291 -26.796  1.00  0.00     0.040 A 
HETATM   22  C5  UNL     1      -0.049  52.607 -27.232  1.00  0.00     0.087 A 
HETATM   23  C6  UNL     1      -0.056  53.654 -26.310  1.00  0.00     0.069 A 
HETATM   24 CL1  UNL     1       0.030  55.287 -26.856  1.00  0.00    -0.081 Cl
HETATM   25  C7  UNL     1      -0.147  53.387 -24.943  1.00  0.00     0.056 A 
BRANCH  22  26
HETATM   26  O2  UNL     1       0.033  52.822 -28.580  1.00  0.00    -0.359 OA
HETATM   27  H4  UNL     1       0.057  53.788 -28.714  1.00  0.00     0.217 HD
ENDBRANCH  22  26
ENDBRANCH  17  19
ENDBRANCH  13  15
ENDBRANCH   9  10
ENDBRANCH   1   9
BRANCH   6  28
HETATM   28  C15 UNL     1       0.718  52.598 -12.162  1.00  0.00     0.030 A 
HETATM   29  C16 UNL     1      -0.110  53.600 -11.632  1.00  0.00     0.030 A 
HETATM   30  C17 UNL     1       0.362  54.544 -10.706  1.00  0.00     0.016 A 
HETATM   31  C18 UNL     1       1.692  54.523 -10.274  1.00  0.00    -0.002 A 
HETATM   32  C22 UNL     1       2.528  53.534 -10.810  1.00  0.00     0.016 A 
HETATM   33  C23 UNL     1       2.050  52.592 -11.734  1.00  0.00     0.030 A 
BRANCH  31  34
HETATM   34  C19 UNL     1       2.255  55.498  -9.321  1.00  0.00     0.084 A 
HETATM   35  N5  UNL     1       1.658  55.864  -8.199  1.00  0.00    -0.359 N 
HETATM   36  C20 UNL     1       2.433  56.777  -7.512  1.00  0.00     0.096 A 
ATOM     37  H5  UNL     1       0.750  55.519  -7.885  1.00  0.00     0.166 HD
HETATM   38  C21 UNL     1       3.617  57.124  -8.120  1.00  0.00     0.069 A 
HETATM   39  S1  UNL     1       3.768  56.285  -9.606  1.00  0.00    -0.082 SA
ENDBRANCH  31  34
ENDBRANCH   6  28
TORSDOF 7
ENDMDL
MODEL 5
REMARK minimizedAffinity -7.94436359
REMARK CNNscore 0.234320581
REMARK CNNaffinity 5.29536963
REMARK  7 active torsions:
REMARK  status: ('A' for Active; 'I' for Inactive)
REMARK       I    between atoms: C1_2  and  N1_3 
REMARK    1  A    between atoms: C1_2  and  C8_12 
REMARK    2  A    between atoms: N1_3  and  C2_4 
REMARK    3  A    between atoms: C5_7  and  O2_8 
REMARK    4  A    between atoms: N2_15  and  C11_16 
REMARK    5  A    between atoms: C11_16  and  C12_17 
REMARK       I    between atoms: C12_17  and  N3_19 
REMARK    6  A    between atoms: N4_22  and  C15_23 
REMARK    7  A    between atoms: C18_26  and  C19_27 
ROOT
HETATM    1  C12 UNL     1     -10.607  45.613 -28.279  1.00  0.00     0.248 C 
HETATM    2  O3  UNL     1     -10.350  44.453 -28.608  1.00  0.00    -0.271 OA
HETATM    3  N3  UNL     1      -9.693  46.644 -28.502  1.00  0.00    -0.348 N 
HETATM    4  C13 UNL     1      -9.714  47.943 -27.820  1.00  0.00     0.145 C 
HETATM    5  C14 UNL     1      -8.667  47.989 -26.683  1.00  0.00     0.143 C 
HETATM    6  N4  UNL     1      -7.323  47.614 -27.200  1.00  0.00    -0.378 N 
HETATM    7  C24 UNL     1      -7.314  46.307 -27.906  1.00  0.00     0.143 C 
HETATM    8  C25 UNL     1      -8.368  46.302 -29.031  1.00  0.00     0.145 C 
ENDROOT
BRANCH   1   9
HETATM    9  C11 UNL     1     -11.953  46.024 -27.641  1.00  0.00     0.374 C 
BRANCH   9  10
HETATM   10  N2  UNL     1     -11.982  45.821 -26.177  1.00  0.00     0.098 N 
HETATM   11  C10 UNL     1     -12.610  44.549 -25.793  1.00  0.00     0.274 C 
HETATM   12  C9  UNL     1     -14.100  44.831 -25.604  1.00  0.00     0.046 C 
HETATM   13  C8  UNL     1     -14.232  46.354 -25.621  1.00  0.00     0.108 C 
HETATM   14  C26 UNL     1     -12.795  46.841 -25.493  1.00  0.00     0.287 C 
BRANCH  13  15
HETATM   15  C1  UNL     1     -15.146  46.911 -24.539  1.00  0.00     0.228 C 
HETATM   16  O1  UNL     1     -15.395  48.107 -24.455  1.00  0.00    -0.273 OA
HETATM   17  N1  UNL     1     -15.685  45.910 -23.743  1.00  0.00    -0.327 N 
HETATM   18  H1  UNL     1     -15.415  44.959 -23.965  1.00  0.00     0.169 HD
BRANCH  17  19
HETATM   19  C2  UNL     1     -16.621  46.054 -22.698  1.00  0.00     0.036 A 
HETATM   20  C3  UNL     1     -17.937  45.643 -22.964  1.00  0.00     0.032 A 
HETATM   21  C4  UNL     1     -18.932  45.756 -21.992  1.00  0.00     0.040 A 
HETATM   22  C5  UNL     1     -18.613  46.271 -20.743  1.00  0.00     0.087 A 
HETATM   23  C6  UNL     1     -17.309  46.683 -20.464  1.00  0.00     0.069 A 
HETATM   24 CL1  UNL     1     -16.916  47.316 -18.910  1.00  0.00    -0.081 Cl
HETATM   25  C7  UNL     1     -16.313  46.570 -21.436  1.00  0.00     0.056 A 
BRANCH  22  26
HETATM   26  O2  UNL     1     -19.618  46.357 -19.820  1.00  0.00    -0.359 OA
HETATM   27  H4  UNL     1     -19.225  46.716 -19.002  1.00  0.00     0.217 HD
ENDBRANCH  22  26
ENDBRANCH  17  19
ENDBRANCH  13  15
ENDBRANCH   9  10
ENDBRANCH   1   9
BRANCH   6  28
HETATM   28  C15 UNL     1      -6.275  47.886 -26.307  1.00  0.00     0.030 A 
HETATM   29  C16 UNL     1      -6.528  47.909 -24.926  1.00  0.00     0.030 A 
HETATM   30  C17 UNL     1      -5.523  48.202 -23.990  1.00  0.00     0.016 A 
HETATM   31  C18 UNL     1      -4.218  48.489 -24.403  1.00  0.00    -0.002 A 
HETATM   32  C22 UNL     1      -3.962  48.482 -25.781  1.00  0.00     0.016 A 
HETATM   33  C23 UNL     1      -4.969  48.187 -26.712  1.00  0.00     0.030 A 
BRANCH  31  34
HETATM   34  C19 UNL     1      -3.124  48.826 -23.471  1.00  0.00     0.084 A 
HETATM   35  N5  UNL     1      -2.687  48.016 -22.522  1.00  0.00    -0.359 N 
HETATM   36  C20 UNL     1      -1.649  48.602 -21.824  1.00  0.00     0.096 A 
ATOM     37  H5  UNL     1      -3.064  47.087 -22.332  1.00  0.00     0.166 HD
HETATM   38  C21 UNL     1      -1.305  49.871 -22.231  1.00  0.00     0.069 A 
HETATM   39  S1  UNL     1      -2.316  50.354 -23.526  1.00  0.00    -0.082 SA
ENDBRANCH  31  34
ENDBRANCH   6  28
TORSDOF 7
ENDMDL
MODEL 6
REMARK minimizedAffinity -9.01611614
REMARK CNNscore 0.218832389
REMARK CNNaffinity 6.95102453
REMARK  7 active torsions:
REMARK  status: ('A' for Active; 'I' for Inactive)
REMARK       I    between atoms: C1_2  and  N1_3 
REMARK    1  A    between atoms: C1_2  and  C8_12 
REMARK    2  A    between atoms: N1_3  and  C2_4 
REMARK    3  A    between atoms: C5_7  and  O2_8 
REMARK    4  A    between atoms: N2_15  and  C11_16 
REMARK    5  A    between atoms: C11_16  and  C12_17 
REMARK       I    between atoms: C12_17  and  N3_19 
REMARK    6  A    between atoms: N4_22  and  C15_23 
REMARK    7  A    between atoms: C18_26  and  C19_27 
ROOT
HETATM    1  C12 UNL     1      -1.217  51.180 -26.799  1.00  0.00     0.248 C 
HETATM    2  O3  UNL     1      -0.173  50.826 -27.350  1.00  0.00    -0.271 OA
HETATM    3  N3  UNL     1      -1.241  52.279 -25.938  1.00  0.00    -0.348 N 
HETATM    4  C13 UNL     1      -2.290  52.545 -24.949  1.00  0.00     0.145 C 
HETATM    5  C14 UNL     1      -1.835  52.127 -23.531  1.00  0.00     0.143 C 
HETATM    6  N4  UNL     1      -0.533  52.765 -23.197  1.00  0.00    -0.378 N 
HETATM    7  C24 UNL     1       0.520  52.507 -24.213  1.00  0.00     0.143 C 
HETATM    8  C25 UNL     1       0.029  52.938 -25.610  1.00  0.00     0.145 C 
ENDROOT
BRANCH   1   9
HETATM    9  C11 UNL     1      -2.572  50.476 -27.039  1.00  0.00     0.374 C 
BRANCH   9  10
HETATM   10  N2  UNL     1      -2.591  49.081 -26.550  1.00  0.00     0.098 N 
HETATM   11  C10 UNL     1      -3.819  48.366 -26.924  1.00  0.00     0.274 C 
HETATM   12  C9  UNL     1      -4.821  48.587 -25.792  1.00  0.00     0.046 C 
HETATM   13  C8  UNL     1      -4.018  49.213 -24.652  1.00  0.00     0.108 C 
HETATM   14  C26 UNL     1      -2.570  49.010 -25.079  1.00  0.00     0.287 C 
BRANCH  13  15
HETATM   15  C1  UNL     1      -4.320  48.624 -23.282  1.00  0.00     0.228 C 
HETATM   16  O1  UNL     1      -3.618  47.753 -22.783  1.00  0.00    -0.273 OA
HETATM   17  N1  UNL     1      -5.410  49.236 -22.679  1.00  0.00    -0.327 N 
HETATM   18  H1  UNL     1      -5.864  49.974 -23.203  1.00  0.00     0.169 HD
BRANCH  17  19
HETATM   19  C2  UNL     1      -5.925  48.994 -21.387  1.00  0.00     0.036 A 
HETATM   20  C3  UNL     1      -5.036  49.152 -20.312  1.00  0.00     0.032 A 
HETATM   21  C4  UNL     1      -5.454  48.926 -19.000  1.00  0.00     0.040 A 
HETATM   22  C5  UNL     1      -6.768  48.553 -18.756  1.00  0.00     0.087 A 
HETATM   23  C6  UNL     1      -7.663  48.393 -19.814  1.00  0.00     0.069 A 
HETATM   24 CL1  UNL     1      -9.296  47.935 -19.506  1.00  0.00    -0.081 Cl
HETATM   25  C7  UNL     1      -7.245  48.619 -21.128  1.00  0.00     0.056 A 
BRANCH  22  26
HETATM   26  O2  UNL     1      -7.136  48.349 -17.454  1.00  0.00    -0.359 OA
HETATM   27  H4  UNL     1      -8.083  48.115 -17.458  1.00  0.00     0.217 HD
ENDBRANCH  22  26
ENDBRANCH  17  19
ENDBRANCH  13  15
ENDBRANCH   9  10
ENDBRANCH   1   9
BRANCH   6  28
HETATM   28  C15 UNL     1      -0.179  52.658 -21.842  1.00  0.00     0.030 A 
HETATM   29  C16 UNL     1       0.860  53.452 -21.333  1.00  0.00     0.030 A 
HETATM   30  C17 UNL     1       1.274  53.367 -19.994  1.00  0.00     0.016 A 
HETATM   31  C18 UNL     1       0.661  52.475 -19.108  1.00  0.00    -0.002 A 
HETATM   32  C22 UNL     1      -0.368  51.669 -19.613  1.00  0.00     0.016 A 
HETATM   33  C23 UNL     1      -0.779  51.759 -20.952  1.00  0.00     0.030 A 
BRANCH  31  34
HETATM   34  C19 UNL     1       1.064  52.323 -17.696  1.00  0.00     0.084 A 
HETATM   35  N5  UNL     1       2.079  52.965 -17.144  1.00  0.00    -0.359 N 
HETATM   36  C20 UNL     1       2.199  52.628 -15.810  1.00  0.00     0.096 A 
ATOM     37  H5  UNL     1       2.688  53.620 -17.635  1.00  0.00     0.166 HD
HETATM   38  C21 UNL     1       1.284  51.710 -15.348  1.00  0.00     0.069 A 
HETATM   39  S1  UNL     1       0.239  51.247 -16.623  1.00  0.00    -0.082 SA
ENDBRANCH  31  34
ENDBRANCH   6  28
TORSDOF 7
ENDMDL
MODEL 7
REMARK minimizedAffinity -9.22416496
REMARK CNNscore 0.197588623
REMARK CNNaffinity 7.19616556
REMARK  7 active torsions:
REMARK  status: ('A' for Active; 'I' for Inactive)
REMARK       I    between atoms: C1_2  and  N1_3 
REMARK    1  A    between atoms: C1_2  and  C8_12 
REMARK    2  A    between atoms: N1_3  and  C2_4 
REMARK    3  A    between atoms: C5_7  and  O2_8 
REMARK    4  A    between atoms: N2_15  and  C11_16 
REMARK    5  A    between atoms: C11_16  and  C12_17 
REMARK       I    between atoms: C12_17  and  N3_19 
REMARK    6  A    between atoms: N4_22  and  C15_23 
REMARK    7  A    between atoms: C18_26  and  C19_27 
ROOT
HETATM    1  C12 UNL     1      -1.036  51.215 -26.846  1.00  0.00     0.248 C 
HETATM    2  O3  UNL     1       0.025  50.903 -27.391  1.00  0.00    -0.271 OA
HETATM    3  N3  UNL     1      -1.097  52.280 -25.944  1.00  0.00    -0.348 N 
HETATM    4  C13 UNL     1      -2.169  52.487 -24.965  1.00  0.00     0.145 C 
HETATM    5  C14 UNL     1      -1.730  52.024 -23.556  1.00  0.00     0.143 C 
HETATM    6  N4  UNL     1      -0.448  52.674 -23.174  1.00  0.00    -0.378 N 
HETATM    7  C24 UNL     1       0.628  52.476 -24.180  1.00  0.00     0.143 C 
HETATM    8  C25 UNL     1       0.153  52.950 -25.568  1.00  0.00     0.145 C 
ENDROOT
BRANCH   1   9
HETATM    9  C11 UNL     1      -2.371  50.495 -27.137  1.00  0.00     0.374 C 
BRANCH   9  10
HETATM   10  N2  UNL     1      -2.427  49.132 -26.567  1.00  0.00     0.098 N 
HETATM   11  C10 UNL     1      -3.466  48.299 -27.190  1.00  0.00     0.274 C 
HETATM   12  C9  UNL     1      -4.741  48.499 -26.373  1.00  0.00     0.046 C 
HETATM   13  C8  UNL     1      -4.307  49.250 -25.115  1.00  0.00     0.108 C 
HETATM   14  C26 UNL     1      -2.788  49.143 -25.139  1.00  0.00     0.287 C 
BRANCH  13  15
HETATM   15  C1  UNL     1      -4.918  48.714 -23.828  1.00  0.00     0.228 C 
HETATM   16  O1  UNL     1      -5.639  47.724 -23.819  1.00  0.00    -0.273 OA
HETATM   17  N1  UNL     1      -4.505  49.432 -22.715  1.00  0.00    -0.327 N 
HETATM   18  H1  UNL     1      -3.871  50.203 -22.882  1.00  0.00     0.169 HD
BRANCH  17  19
HETATM   19  C2  UNL     1      -4.815  49.173 -21.363  1.00  0.00     0.036 A 
HETATM   20  C3  UNL     1      -3.747  48.807 -20.528  1.00  0.00     0.032 A 
HETATM   21  C4  UNL     1      -3.961  48.524 -19.178  1.00  0.00     0.040 A 
HETATM   22  C5  UNL     1      -5.242  48.618 -18.654  1.00  0.00     0.087 A 
HETATM   23  C6  UNL     1      -6.312  48.982 -19.471  1.00  0.00     0.069 A 
HETATM   24 CL1  UNL     1      -7.902  49.102 -18.815  1.00  0.00    -0.081 Cl
HETATM   25  C7  UNL     1      -6.100  49.265 -20.822  1.00  0.00     0.056 A 
BRANCH  22  26
HETATM   26  O2  UNL     1      -5.403  48.338 -17.324  1.00  0.00    -0.359 OA
HETATM   27  H4  UNL     1      -6.347  48.470 -17.117  1.00  0.00     0.217 HD
ENDBRANCH  22  26
ENDBRANCH  17  19
ENDBRANCH  13  15
ENDBRANCH   9  10
ENDBRANCH   1   9
BRANCH   6  28
HETATM   28  C15 UNL     1      -0.116  52.522 -21.818  1.00  0.00     0.030 A 
HETATM   29  C16 UNL     1      -0.700  51.486 -21.073  1.00  0.00     0.030 A 
HETATM   30  C17 UNL     1      -0.425  51.304 -19.708  1.00  0.00     0.016 A 
HETATM   31  C18 UNL     1       0.448  52.161 -19.031  1.00  0.00    -0.002 A 
HETATM   32  C22 UNL     1       1.024  53.207 -19.765  1.00  0.00     0.016 A 
HETATM   33  C23 UNL     1       0.747  53.383 -21.130  1.00  0.00     0.030 A 
BRANCH  31  34
HETATM   34  C19 UNL     1       0.761  52.038 -17.594  1.00  0.00     0.084 A 
HETATM   35  N5  UNL     1       1.526  52.887 -16.929  1.00  0.00    -0.359 N 
HETATM   36  C20 UNL     1       1.623  52.516 -15.602  1.00  0.00     0.096 A 
ATOM     37  H5  UNL     1       1.981  53.702 -17.339  1.00  0.00     0.166 HD
HETATM   38  C21 UNL     1       0.943  51.370 -15.257  1.00  0.00     0.069 A 
HETATM   39  S1  UNL     1       0.162  50.727 -16.638  1.00  0.00    -0.082 SA
ENDBRANCH  31  34
ENDBRANCH   6  28
TORSDOF 7
ENDMDL
MODEL 8
REMARK minimizedAffinity -8.21249771
REMARK CNNscore 0.188115507
REMARK CNNaffinity 6.51630783
REMARK  7 active torsions:
REMARK  status: ('A' for Active; 'I' for Inactive)
REMARK       I    between atoms: C1_2  and  N1_3 
REMARK    1  A    between atoms: C1_2  and  C8_12 
REMARK    2  A    between atoms: N1_3  and  C2_4 
REMARK    3  A    between atoms: C5_7  and  O2_8 
REMARK    4  A    between atoms: N2_15  and  C11_16 
REMARK    5  A    between atoms: C11_16  and  C12_17 
REMARK       I    between atoms: C12_17  and  N3_19 
REMARK    6  A    between atoms: N4_22  and  C15_23 
REMARK    7  A    between atoms: C18_26  and  C19_27 
ROOT
HETATM    1  C12 UNL     1      -3.925  50.759 -20.195  1.00  0.00     0.248 C 
HETATM    2  O3  UNL     1      -4.184  51.830 -20.748  1.00  0.00    -0.271 OA
HETATM    3  N3  UNL     1      -4.615  49.592 -20.527  1.00  0.00    -0.348 N 
HETATM    4  C13 UNL     1      -4.675  48.389 -19.690  1.00  0.00     0.145 C 
HETATM    5  C14 UNL     1      -6.013  48.316 -18.918  1.00  0.00     0.143 C 
HETATM    6  N4  UNL     1      -7.160  48.441 -19.857  1.00  0.00    -0.378 N 
HETATM    7  C24 UNL     1      -7.083  49.652 -20.715  1.00  0.00     0.143 C 
HETATM    8  C25 UNL     1      -5.737  49.686 -21.468  1.00  0.00     0.145 C 
ENDROOT
BRANCH   1   9
HETATM    9  C11 UNL     1      -2.810  50.611 -19.135  1.00  0.00     0.374 C 
BRANCH   9  10
HETATM   10  N2  UNL     1      -1.522  50.169 -19.712  1.00  0.00     0.098 N 
HETATM   11  C10 UNL     1      -0.364  50.810 -19.073  1.00  0.00     0.274 C 
HETATM   12  C9  UNL     1      -0.075  52.085 -19.863  1.00  0.00     0.046 C 
HETATM   13  C8  UNL     1      -0.931  51.986 -21.126  1.00  0.00     0.108 C 
HETATM   14  C26 UNL     1      -1.396  50.536 -21.132  1.00  0.00     0.287 C 
BRANCH  13  15
HETATM   15  C1  UNL     1      -0.203  52.381 -22.403  1.00  0.00     0.228 C 
HETATM   16  O1  UNL     1       0.897  52.920 -22.381  1.00  0.00    -0.273 OA
HETATM   17  N1  UNL     1      -0.899  51.999 -23.541  1.00  0.00    -0.327 N 
HETATM   18  H1  UNL     1      -1.780  51.522 -23.395  1.00  0.00     0.169 HD
BRANCH  17  19
HETATM   19  C2  UNL     1      -0.492  52.138 -24.884  1.00  0.00     0.036 A 
HETATM   20  C3  UNL     1      -1.463  52.580 -25.797  1.00  0.00     0.032 A 
HETATM   21  C4  UNL     1      -1.153  52.739 -27.149  1.00  0.00     0.040 A 
HETATM   22  C5  UNL     1       0.134  52.469 -27.592  1.00  0.00     0.087 A 
HETATM   23  C6  UNL     1       1.110  52.031 -26.696  1.00  0.00     0.069 A 
HETATM   24 CL1  UNL     1       2.708  51.702 -27.249  1.00  0.00    -0.081 Cl
HETATM   25  C7  UNL     1       0.800  51.871 -25.343  1.00  0.00     0.056 A 
BRANCH  22  26
HETATM   26  O2  UNL     1       0.394  52.645 -28.923  1.00  0.00    -0.359 OA
HETATM   27  H4  UNL     1       1.336  52.434 -29.061  1.00  0.00     0.217 HD
ENDBRANCH  22  26
ENDBRANCH  17  19
ENDBRANCH  13  15
ENDBRANCH   9  10
ENDBRANCH   1   9
BRANCH   6  28
HETATM   28  C15 UNL     1      -8.401  48.120 -19.285  1.00  0.00     0.030 A 
HETATM   29  C16 UNL     1      -8.572  48.225 -17.895  1.00  0.00     0.030 A 
HETATM   30  C17 UNL     1      -9.782  47.891 -17.266  1.00  0.00     0.016 A 
HETATM   31  C18 UNL     1     -10.874  47.433 -18.009  1.00  0.00    -0.002 A 
HETATM   32  C22 UNL     1     -10.707  47.312 -19.395  1.00  0.00     0.016 A 
HETATM   33  C23 UNL     1      -9.495  47.649 -20.019  1.00  0.00     0.030 A 
BRANCH  31  34
HETATM   34  C19 UNL     1     -12.165  47.046 -17.406  1.00  0.00     0.084 A 
HETATM   35  N5  UNL     1     -13.317  47.627 -17.692  1.00  0.00    -0.359 N 
HETATM   36  C20 UNL     1     -14.347  47.040 -16.983  1.00  0.00     0.096 A 
ATOM     37  H5  UNL     1     -13.431  48.402 -18.346  1.00  0.00     0.166 HD
HETATM   38  C21 UNL     1     -13.975  46.018 -16.138  1.00  0.00     0.069 A 
HETATM   39  S1  UNL     1     -12.281  45.786 -16.227  1.00  0.00    -0.082 SA
ENDBRANCH  31  34
ENDBRANCH   6  28
TORSDOF 7
ENDMDL
MODEL 9
REMARK minimizedAffinity -8.70846367
REMARK CNNscore 0.181244671
REMARK CNNaffinity 6.39367151
REMARK  7 active torsions:
REMARK  status: ('A' for Active; 'I' for Inactive)
REMARK       I    between atoms: C1_2  and  N1_3 
REMARK    1  A    between atoms: C1_2  and  C8_12 
REMARK    2  A    between atoms: N1_3  and  C2_4 
REMARK    3  A    between atoms: C5_7  and  O2_8 
REMARK    4  A    between atoms: N2_15  and  C11_16 
REMARK    5  A    between atoms: C11_16  and  C12_17 
REMARK       I    between atoms: C12_17  and  N3_19 
REMARK    6  A    between atoms: N4_22  and  C15_23 
REMARK    7  A    between atoms: C18_26  and  C19_27 
ROOT
HETATM    1  C12 UNL     1      -5.158  48.218 -27.669  1.00  0.00     0.248 C 
HETATM    2  O3  UNL     1      -5.618  47.715 -26.643  1.00  0.00    -0.271 OA
HETATM    3  N3  UNL     1      -5.847  48.139 -28.882  1.00  0.00    -0.348 N 
HETATM    4  C13 UNL     1      -5.242  48.339 -30.202  1.00  0.00     0.145 C 
HETATM    5  C14 UNL     1      -4.960  46.984 -30.894  1.00  0.00     0.143 C 
HETATM    6  N4  UNL     1      -6.195  46.155 -30.929  1.00  0.00    -0.378 N 
HETATM    7  C24 UNL     1      -6.813  45.973 -29.590  1.00  0.00     0.143 C 
HETATM    8  C25 UNL     1      -7.079  47.344 -28.936  1.00  0.00     0.145 C 
ENDROOT
BRANCH   1   9
HETATM    9  C11 UNL     1      -3.824  48.998 -27.695  1.00  0.00     0.374 C 
BRANCH   9  10
HETATM   10  N2  UNL     1      -3.031  48.824 -26.460  1.00  0.00     0.098 N 
HETATM   11  C10 UNL     1      -3.864  48.809 -25.249  1.00  0.00     0.274 C 
HETATM   12  C9  UNL     1      -3.966  50.255 -24.766  1.00  0.00     0.046 C 
HETATM   13  C8  UNL     1      -2.937  51.033 -25.585  1.00  0.00     0.108 C 
HETATM   14  C26 UNL     1      -2.099  49.943 -26.239  1.00  0.00     0.287 C 
BRANCH  13  15
HETATM   15  C1  UNL     1      -2.104  52.012 -24.770  1.00  0.00     0.228 C 
HETATM   16  O1  UNL     1      -2.016  53.196 -25.074  1.00  0.00    -0.273 OA
HETATM   17  N1  UNL     1      -1.545  51.415 -23.649  1.00  0.00    -0.327 N 
HETATM   18  H1  UNL     1      -1.746  50.433 -23.510  1.00  0.00     0.169 HD
BRANCH  17  19
HETATM   19  C2  UNL     1      -0.779  52.034 -22.638  1.00  0.00     0.036 A 
HETATM   20  C3  UNL     1       0.269  52.867 -23.060  1.00  0.00     0.032 A 
HETATM   21  C4  UNL     1       1.086  53.514 -22.130  1.00  0.00     0.040 A 
HETATM   22  C5  UNL     1       0.849  53.340 -20.774  1.00  0.00     0.087 A 
HETATM   23  C6  UNL     1      -0.191  52.517 -20.341  1.00  0.00     0.069 A 
HETATM   24 CL1  UNL     1      -0.485  52.308 -18.655  1.00  0.00    -0.081 Cl
HETATM   25  C7  UNL     1      -1.008  51.868 -21.270  1.00  0.00     0.056 A 
BRANCH  22  26
HETATM   26  O2  UNL     1       1.669  53.999 -19.900  1.00  0.00    -0.359 OA
HETATM   27  H4  UNL     1       1.357  53.787 -19.000  1.00  0.00     0.217 HD
ENDBRANCH  22  26
ENDBRANCH  17  19
ENDBRANCH  13  15
ENDBRANCH   9  10
ENDBRANCH   1   9
BRANCH   6  28
HETATM   28  C15 UNL     1      -6.102  45.033 -31.767  1.00  0.00     0.030 A 
HETATM   29  C16 UNL     1      -4.838  44.554 -32.149  1.00  0.00     0.030 A 
HETATM   30  C17 UNL     1      -4.686  43.453 -33.007  1.00  0.00     0.016 A 
HETATM   31  C18 UNL     1      -5.802  42.786 -33.523  1.00  0.00    -0.002 A 
HETATM   32  C22 UNL     1      -7.067  43.267 -33.158  1.00  0.00     0.016 A 
HETATM   33  C23 UNL     1      -7.213  44.367 -32.298  1.00  0.00     0.030 A 
BRANCH  31  34
HETATM   34  C19 UNL     1      -5.711  41.637 -34.445  1.00  0.00     0.084 A 
HETATM   35  N5  UNL     1      -6.148  41.656 -35.693  1.00  0.00    -0.359 N 
HETATM   36  C20 UNL     1      -5.912  40.442 -36.308  1.00  0.00     0.096 A 
ATOM     37  H5  UNL     1      -6.598  42.455 -36.139  1.00  0.00     0.166 HD
HETATM   38  C21 UNL     1      -5.308  39.488 -35.520  1.00  0.00     0.069 A 
HETATM   39  S1  UNL     1      -5.030  40.125 -33.956  1.00  0.00    -0.082 SA
ENDBRANCH  31  34
ENDBRANCH   6  28
TORSDOF 7
ENDMDL
