MODEL 1
REMARK minimizedAffinity -10.2758684
REMARK  4 active torsions:
REMARK  status: ('A' for Active; 'I' for Inactive)
REMARK    1  A    between atoms: C4_4  and  C5_5 
REMARK    2  A    between atoms: C8_11  and  N3_12 
REMARK       I    between atoms: N3_12  and  C9_13 
REMARK       I    between atoms: C9_13  and  N4_15 
REMARK    3  A    between atoms: N4_15  and  C10_16 
REMARK    4  A    between atoms: C10_16  and  C11_17 
ROOT
HETATM    1  C5  UNL     1       0.296  52.928 -23.962  1.00  0.00     0.072 A 
HETATM    2  N1  UNL     1       1.031  53.731 -24.752  1.00  0.00    -0.299 N 
ATOM      3  H1  UNL     1       1.761  54.386 -24.472  1.00  0.00     0.187 HD
HETATM    4  N2  UNL     1       0.585  53.473 -25.992  1.00  0.00    -0.299 N 
HETATM    5  C6  UNL     1      -0.441  52.571 -26.043  1.00  0.00     0.065 A 
HETATM    6  C7  UNL     1      -1.184  52.063 -27.108  1.00  0.00     0.080 A 
HETATM    7  C8  UNL     1      -2.190  51.172 -26.755  1.00  0.00     0.111 A 
HETATM    8  N6  UNL     1      -2.456  50.807 -25.480  1.00  0.00    -0.351 N 
ATOM      9  H6  UNL     1      -3.220  50.160 -25.283  1.00  0.00     0.166 HD
HETATM   10  C20 UNL     1      -1.704  51.302 -24.462  1.00  0.00     0.105 A 
HETATM   11  C21 UNL     1      -0.668  52.201 -24.725  1.00  0.00     0.036 A 
HETATM   12  H5  UNL     1       1.018  53.960 -26.768  1.00  0.00     0.187 HD
ENDROOT
BRANCH   7  13
HETATM   13  N3  UNL     1      -3.062  50.607 -27.684  1.00  0.00    -0.295 N 
HETATM   14  C9  UNL     1      -3.799  49.462 -27.561  1.00  0.00     0.322 C 
HETATM   15  O1  UNL     1      -3.921  48.781 -26.552  1.00  0.00    -0.247 OA
HETATM   16  N4  UNL     1      -4.433  49.156 -28.743  1.00  0.00    -0.337 N 
HETATM   17  H8  UNL     1      -3.894  49.372 -29.568  1.00  0.00     0.164 HD
HETATM   18  H7  UNL     1      -3.285  51.229 -28.445  1.00  0.00     0.172 HD
BRANCH  16  19
HETATM   19  C10 UNL     1      -5.189  47.923 -28.843  1.00  0.00     0.182 C 
BRANCH  19  20
HETATM   20  C11 UNL     1      -6.515  48.152 -29.529  1.00  0.00     0.038 A 
HETATM   21  N5  UNL     1      -7.534  48.503 -28.693  1.00  0.00    -0.367 N 
HETATM   22  C12 UNL     1      -8.748  48.702 -29.239  1.00  0.00     0.089 A 
ATOM     23  H5  UNL     1      -7.382  48.612 -27.690  1.00  0.00     0.165 HD
HETATM   24  C13 UNL     1      -9.020  48.550 -30.586  1.00  0.00     0.029 A 
HETATM   25  C14 UNL     1      -7.987  48.165 -31.444  1.00  0.00    -0.023 A 
HETATM   26  C15 UNL     1      -8.232  47.984 -32.817  1.00  0.00     0.012 A 
HETATM   27  C19 UNL     1      -6.691  47.950 -30.921  1.00  0.00    -0.002 A 
HETATM   28  C16 UNL     1      -7.210  47.586 -33.679  1.00  0.00     0.001 A 
HETATM   29  C17 UNL     1      -5.933  47.362 -33.178  1.00  0.00     0.001 A 
HETATM   30  C18 UNL     1      -5.674  47.540 -31.818  1.00  0.00     0.014 A 
ENDBRANCH  19  20
ENDBRANCH  16  19
ENDBRANCH   7  13
BRANCH   1  31
HETATM   31  C4  UNL     1       0.513  52.898 -22.519  1.00  0.00    -0.004 A 
HETATM   32  C3  UNL     1       0.011  51.851 -21.739  1.00  0.00     0.038 A 
HETATM   33  C2  UNL     1       0.232  51.874 -20.366  1.00  0.00     0.005 A 
HETATM   34  C1  UNL     1      -0.309  50.775 -19.500  1.00  0.00     0.068 C 
HETATM   35  N7  UNL     1       0.918  52.866 -19.753  1.00  0.00    -0.369 N 
HETATM   36  C23 UNL     1       1.407  53.857 -20.529  1.00  0.00     0.089 A 
ATOM     37  H7  UNL     1       1.061  52.866 -18.743  1.00  0.00     0.165 HD
HETATM   38  C22 UNL     1       1.235  53.918 -21.899  1.00  0.00     0.031 A 
ENDBRANCH   1  31
TORSDOF 4
ENDMDL
MODEL 2
REMARK minimizedAffinity -10.0249414
REMARK  4 active torsions:
REMARK  status: ('A' for Active; 'I' for Inactive)
REMARK    1  A    between atoms: C4_4  and  C5_5 
REMARK    2  A    between atoms: C8_11  and  N3_12 
REMARK       I    between atoms: N3_12  and  C9_13 
REMARK       I    between atoms: C9_13  and  N4_15 
REMARK    3  A    between atoms: N4_15  and  C10_16 
REMARK    4  A    between atoms: C10_16  and  C11_17 
ROOT
HETATM    1  C5  UNL     1      -0.192  51.674 -21.933  1.00  0.00     0.072 A 
HETATM    2  N1  UNL     1      -1.024  50.625 -21.800  1.00  0.00    -0.299 N 
ATOM      3  H1  UNL     1      -1.530  50.131 -22.535  1.00  0.00     0.187 HD
HETATM    4  N2  UNL     1      -1.034  50.376 -20.481  1.00  0.00    -0.299 N 
HETATM    5  C6  UNL     1      -0.283  51.244 -19.740  1.00  0.00     0.065 A 
HETATM    6  C7  UNL     1      -0.054  51.344 -18.368  1.00  0.00     0.080 A 
HETATM    7  C8  UNL     1       0.756  52.403 -17.979  1.00  0.00     0.111 A 
HETATM    8  N6  UNL     1       1.297  53.291 -18.844  1.00  0.00    -0.351 N 
ATOM      9  H6  UNL     1       1.871  54.059 -18.495  1.00  0.00     0.166 HD
HETATM   10  C20 UNL     1       1.074  53.160 -20.178  1.00  0.00     0.105 A 
HETATM   11  C21 UNL     1       0.274  52.122 -20.660  1.00  0.00     0.036 A 
HETATM   12  H5  UNL     1      -1.590  49.597 -20.144  1.00  0.00     0.187 HD
ENDROOT
BRANCH   7  13
HETATM   13  N3  UNL     1       1.048  52.684 -16.645  1.00  0.00    -0.295 N 
HETATM   14  C9  UNL     1       0.779  51.919 -15.544  1.00  0.00     0.322 C 
HETATM   15  O1  UNL     1       0.339  50.778 -15.542  1.00  0.00    -0.247 OA
HETATM   16  N4  UNL     1       1.093  52.595 -14.388  1.00  0.00    -0.337 N 
HETATM   17  H8  UNL     1       0.902  53.585 -14.424  1.00  0.00     0.164 HD
HETATM   18  H7  UNL     1       1.681  53.459 -16.535  1.00  0.00     0.172 HD
BRANCH  16  19
HETATM   19  C10 UNL     1       0.791  51.987 -13.107  1.00  0.00     0.182 C 
BRANCH  19  20
HETATM   20  C11 UNL     1       0.291  53.016 -12.121  1.00  0.00     0.038 A 
HETATM   21  N5  UNL     1       1.264  53.800 -11.575  1.00  0.00    -0.367 N 
HETATM   22  C12 UNL     1       0.886  54.725 -10.672  1.00  0.00     0.089 A 
ATOM     23  H5  UNL     1       2.243  53.692 -11.842  1.00  0.00     0.165 HD
HETATM   24  C13 UNL     1      -0.420  54.905 -10.256  1.00  0.00     0.029 A 
HETATM   25  C14 UNL     1      -1.418  54.086 -10.791  1.00  0.00    -0.023 A 
HETATM   26  C15 UNL     1      -2.754  54.231 -10.378  1.00  0.00     0.012 A 
HETATM   27  C19 UNL     1      -1.074  53.104 -11.749  1.00  0.00    -0.002 A 
HETATM   28  C16 UNL     1      -3.755  53.409 -10.896  1.00  0.00     0.001 A 
HETATM   29  C17 UNL     1      -3.431  52.432 -11.831  1.00  0.00     0.001 A 
HETATM   30  C18 UNL     1      -2.109  52.279 -12.253  1.00  0.00     0.014 A 
ENDBRANCH  19  20
ENDBRANCH  16  19
ENDBRANCH   7  13
BRANCH   1  31
HETATM   31  C4  UNL     1       0.107  52.229 -23.249  1.00  0.00    -0.004 A 
HETATM   32  C3  UNL     1      -0.072  51.466 -24.408  1.00  0.00     0.038 A 
HETATM   33  C2  UNL     1       0.240  52.034 -25.638  1.00  0.00     0.005 A 
HETATM   34  C1  UNL     1       0.077  51.235 -26.897  1.00  0.00     0.068 C 
HETATM   35  N7  UNL     1       0.704  53.299 -25.762  1.00  0.00    -0.369 N 
HETATM   36  C23 UNL     1       0.852  54.022 -24.631  1.00  0.00     0.089 A 
ATOM     37  H7  UNL     1       0.933  53.693 -26.675  1.00  0.00     0.165 HD
HETATM   38  C22 UNL     1       0.570  53.540 -23.367  1.00  0.00     0.031 A 
ENDBRANCH   1  31
TORSDOF 4
ENDMDL
MODEL 3
REMARK minimizedAffinity -9.95492935
REMARK  4 active torsions:
REMARK  status: ('A' for Active; 'I' for Inactive)
REMARK    1  A    between atoms: C4_4  and  C5_5 
REMARK    2  A    between atoms: C8_11  and  N3_12 
REMARK       I    between atoms: N3_12  and  C9_13 
REMARK       I    between atoms: C9_13  and  N4_15 
REMARK    3  A    between atoms: N4_15  and  C10_16 
REMARK    4  A    between atoms: C10_16  and  C11_17 
ROOT
HETATM    1  C5  UNL     1      -0.873  50.289 -21.224  1.00  0.00     0.072 A 
HETATM    2  N1  UNL     1      -0.579  49.073 -20.732  1.00  0.00    -0.299 N 
ATOM      3  H1  UNL     1       0.080  48.840 -19.988  1.00  0.00     0.187 HD
HETATM    4  N2  UNL     1      -1.351  48.234 -21.441  1.00  0.00    -0.299 N 
HETATM    5  C6  UNL     1      -2.102  48.844 -22.407  1.00  0.00     0.065 A 
HETATM    6  C7  UNL     1      -2.994  48.339 -23.352  1.00  0.00     0.080 A 
HETATM    7  C8  UNL     1      -3.550  49.284 -24.206  1.00  0.00     0.111 A 
HETATM    8  N6  UNL     1      -3.263  50.605 -24.150  1.00  0.00    -0.351 N 
ATOM      9  H6  UNL     1      -3.691  51.249 -24.815  1.00  0.00     0.166 HD
HETATM   10  C20 UNL     1      -2.405  51.074 -23.206  1.00  0.00     0.105 A 
HETATM   11  C21 UNL     1      -1.803  50.195 -22.303  1.00  0.00     0.036 A 
HETATM   12  H5  UNL     1      -1.310  47.245 -21.224  1.00  0.00     0.187 HD
ENDROOT
BRANCH   7  13
HETATM   13  N3  UNL     1      -4.420  48.952 -25.242  1.00  0.00    -0.295 N 
HETATM   14  C9  UNL     1      -4.106  48.513 -26.498  1.00  0.00     0.322 C 
HETATM   15  O1  UNL     1      -2.992  48.211 -26.905  1.00  0.00    -0.247 OA
HETATM   16  N4  UNL     1      -5.232  48.422 -27.283  1.00  0.00    -0.337 N 
HETATM   17  H8  UNL     1      -5.912  49.148 -27.113  1.00  0.00     0.164 HD
HETATM   18  H7  UNL     1      -5.377  48.868 -24.941  1.00  0.00     0.172 HD
BRANCH  16  19
HETATM   19  C10 UNL     1      -5.095  48.064 -28.681  1.00  0.00     0.182 C 
BRANCH  19  20
HETATM   20  C11 UNL     1      -6.406  48.223 -29.414  1.00  0.00     0.038 A 
HETATM   21  N5  UNL     1      -7.469  48.530 -28.617  1.00  0.00    -0.367 N 
HETATM   22  C12 UNL     1      -8.672  48.664 -29.207  1.00  0.00     0.089 A 
ATOM     23  H5  UNL     1      -7.358  48.654 -27.611  1.00  0.00     0.165 HD
HETATM   24  C13 UNL     1      -8.889  48.489 -30.561  1.00  0.00     0.029 A 
HETATM   25  C14 UNL     1      -7.809  48.148 -31.379  1.00  0.00    -0.023 A 
HETATM   26  C15 UNL     1      -7.997  47.944 -32.758  1.00  0.00     0.012 A 
HETATM   27  C19 UNL     1      -6.523  48.001 -30.809  1.00  0.00    -0.002 A 
HETATM   28  C16 UNL     1      -6.927  47.590 -33.580  1.00  0.00     0.001 A 
HETATM   29  C17 UNL     1      -5.658  47.433 -33.033  1.00  0.00     0.001 A 
HETATM   30  C18 UNL     1      -5.456  47.635 -31.666  1.00  0.00     0.014 A 
ENDBRANCH  19  20
ENDBRANCH  16  19
ENDBRANCH   7  13
BRANCH   1  31
HETATM   31  C4  UNL     1      -0.246  51.488 -20.676  1.00  0.00    -0.004 A 
HETATM   32  C3  UNL     1       0.374  52.421 -21.514  1.00  0.00     0.038 A 
HETATM   33  C2  UNL     1       0.970  53.541 -20.943  1.00  0.00     0.005 A 
HETATM   34  C1  UNL     1       1.658  54.550 -21.814  1.00  0.00     0.068 C 
HETATM   35  N7  UNL     1       0.970  53.768 -19.609  1.00  0.00    -0.369 N 
HETATM   36  C23 UNL     1       0.351  52.862 -18.823  1.00  0.00     0.089 A 
ATOM     37  H7  UNL     1       1.421  54.594 -19.213  1.00  0.00     0.165 HD
HETATM   38  C22 UNL     1      -0.264  51.721 -19.301  1.00  0.00     0.031 A 
ENDBRANCH   1  31
TORSDOF 4
ENDMDL
MODEL 4
REMARK minimizedAffinity -9.92185402
REMARK  4 active torsions:
REMARK  status: ('A' for Active; 'I' for Inactive)
REMARK    1  A    between atoms: C4_4  and  C5_5 
REMARK    2  A    between atoms: C8_11  and  N3_12 
REMARK       I    between atoms: N3_12  and  C9_13 
REMARK       I    between atoms: C9_13  and  N4_15 
REMARK    3  A    between atoms: N4_15  and  C10_16 
REMARK    4  A    between atoms: C10_16  and  C11_17 
ROOT
HETATM    1  C5  UNL     1       0.675  53.169 -23.629  1.00  0.00     0.072 A 
HETATM    2  N1  UNL     1       1.275  54.348 -23.873  1.00  0.00    -0.299 N 
ATOM      3  H1  UNL     1       1.461  54.780 -24.778  1.00  0.00     0.187 HD
HETATM    4  N2  UNL     1       1.571  54.826 -22.654  1.00  0.00    -0.299 N 
HETATM    5  C6  UNL     1       1.233  53.991 -21.626  1.00  0.00     0.065 A 
HETATM    6  C7  UNL     1       1.390  54.101 -20.245  1.00  0.00     0.080 A 
HETATM    7  C8  UNL     1       0.946  53.008 -19.510  1.00  0.00     0.111 A 
HETATM    8  N6  UNL     1       0.399  51.903 -20.066  1.00  0.00    -0.351 N 
ATOM      9  H6  UNL     1       0.106  51.125 -19.475  1.00  0.00     0.166 HD
HETATM   10  C20 UNL     1       0.240  51.829 -21.414  1.00  0.00     0.105 A 
HETATM   11  C21 UNL     1       0.655  52.884 -22.230  1.00  0.00     0.036 A 
HETATM   12  H5  UNL     1       2.019  55.733 -22.590  1.00  0.00     0.187 HD
ENDROOT
BRANCH   7  13
HETATM   13  N3  UNL     1       1.071  52.925 -18.125  1.00  0.00    -0.295 N 
HETATM   14  C9  UNL     1       0.719  51.887 -17.307  1.00  0.00     0.322 C 
HETATM   15  O1  UNL     1       0.339  50.779 -17.662  1.00  0.00    -0.247 OA
HETATM   16  N4  UNL     1       0.867  52.231 -15.984  1.00  0.00    -0.337 N 
HETATM   17  H8  UNL     1       0.632  53.191 -15.779  1.00  0.00     0.164 HD
HETATM   18  H7  UNL     1       1.649  53.653 -17.737  1.00  0.00     0.172 HD
BRANCH  16  19
HETATM   19  C10 UNL     1       0.454  51.295 -14.957  1.00  0.00     0.182 C 
BRANCH  19  20
HETATM   20  C11 UNL     1       0.386  51.965 -13.605  1.00  0.00     0.038 A 
HETATM   21  N5  UNL     1       1.599  52.213 -13.032  1.00  0.00    -0.367 N 
HETATM   22  C12 UNL     1       1.607  52.790 -11.816  1.00  0.00     0.089 A 
ATOM     23  H5  UNL     1       2.468  51.969 -13.507  1.00  0.00     0.165 HD
HETATM   24  C13 UNL     1       0.463  53.124 -11.115  1.00  0.00     0.029 A 
HETATM   25  C14 UNL     1      -0.782  52.849 -11.685  1.00  0.00    -0.023 A 
HETATM   26  C15 UNL     1      -1.966  53.159 -10.992  1.00  0.00     0.012 A 
HETATM   27  C19 UNL     1      -0.846  52.248 -12.964  1.00  0.00    -0.002 A 
HETATM   28  C16 UNL     1      -3.214  52.875 -11.547  1.00  0.00     0.001 A 
HETATM   29  C17 UNL     1      -3.292  52.276 -12.800  1.00  0.00     0.001 A 
HETATM   30  C18 UNL     1      -2.126  51.966 -13.501  1.00  0.00     0.014 A 
ENDBRANCH  19  20
ENDBRANCH  16  19
ENDBRANCH   7  13
BRANCH   1  31
HETATM   31  C4  UNL     1       0.171  52.346 -24.725  1.00  0.00    -0.004 A 
HETATM   32  C3  UNL     1       0.749  52.412 -25.997  1.00  0.00     0.038 A 
HETATM   33  C2  UNL     1       0.225  51.619 -27.012  1.00  0.00     0.005 A 
HETATM   34  C1  UNL     1       0.811  51.681 -28.392  1.00  0.00     0.068 C 
HETATM   35  N7  UNL     1      -0.819  50.780 -26.818  1.00  0.00    -0.369 N 
HETATM   36  C23 UNL     1      -1.349  50.721 -25.578  1.00  0.00     0.089 A 
ATOM     37  H7  UNL     1      -1.192  50.213 -27.581  1.00  0.00     0.165 HD
HETATM   38  C22 UNL     1      -0.896  51.473 -24.511  1.00  0.00     0.031 A 
ENDBRANCH   1  31
TORSDOF 4
ENDMDL
MODEL 5
REMARK minimizedAffinity -9.74261093
REMARK  4 active torsions:
REMARK  status: ('A' for Active; 'I' for Inactive)
REMARK    1  A    between atoms: C4_4  and  C5_5 
REMARK    2  A    between atoms: C8_11  and  N3_12 
REMARK       I    between atoms: N3_12  and  C9_13 
REMARK       I    between atoms: C9_13  and  N4_15 
REMARK    3  A    between atoms: N4_15  and  C10_16 
REMARK    4  A    between atoms: C10_16  and  C11_17 
ROOT
HETATM    1  C5  UNL     1       0.308  52.278 -23.689  1.00  0.00     0.072 A 
HETATM    2  N1  UNL     1       1.069  52.792 -24.672  1.00  0.00    -0.299 N 
ATOM      3  H1  UNL     1       1.808  53.491 -24.592  1.00  0.00     0.187 HD
HETATM    4  N2  UNL     1       0.635  52.175 -25.783  1.00  0.00    -0.299 N 
HETATM    5  C6  UNL     1      -0.407  51.315 -25.576  1.00  0.00     0.065 A 
HETATM    6  C7  UNL     1      -1.145  50.517 -26.450  1.00  0.00     0.080 A 
HETATM    7  C8  UNL     1      -2.173  49.790 -25.862  1.00  0.00     0.111 A 
HETATM    8  N6  UNL     1      -2.463  49.835 -24.541  1.00  0.00    -0.351 N 
ATOM      9  H6  UNL     1      -3.242  49.290 -24.170  1.00  0.00     0.166 HD
HETATM   10  C20 UNL     1      -1.716  50.606 -23.708  1.00  0.00     0.105 A 
HETATM   11  C21 UNL     1      -0.659  51.367 -24.213  1.00  0.00     0.036 A 
HETATM   12  H5  UNL     1       1.088  52.396 -26.663  1.00  0.00     0.187 HD
ENDROOT
BRANCH   7  13
HETATM   13  N3  UNL     1      -3.043  48.982 -26.591  1.00  0.00    -0.295 N 
HETATM   14  C9  UNL     1      -3.654  49.260 -27.782  1.00  0.00     0.322 C 
HETATM   15  O1  UNL     1      -3.447  50.233 -28.495  1.00  0.00    -0.247 OA
HETATM   16  N4  UNL     1      -4.549  48.272 -28.119  1.00  0.00    -0.337 N 
HETATM   17  H8  UNL     1      -5.043  47.878 -27.331  1.00  0.00     0.164 HD
HETATM   18  H7  UNL     1      -3.064  48.030 -26.264  1.00  0.00     0.172 HD
BRANCH  16  19
HETATM   19  C10 UNL     1      -5.368  48.430 -29.304  1.00  0.00     0.182 C 
BRANCH  19  20
HETATM   20  C11 UNL     1      -5.751  47.089 -29.884  1.00  0.00     0.038 A 
HETATM   21  N5  UNL     1      -5.226  46.832 -31.116  1.00  0.00    -0.367 N 
HETATM   22  C12 UNL     1      -5.546  45.661 -31.698  1.00  0.00     0.089 A 
ATOM     23  H5  UNL     1      -4.613  47.502 -31.580  1.00  0.00     0.165 HD
HETATM   24  C13 UNL     1      -6.387  44.723 -31.129  1.00  0.00     0.029 A 
HETATM   25  C14 UNL     1      -6.950  44.992 -29.878  1.00  0.00    -0.023 A 
HETATM   26  C15 UNL     1      -7.824  44.068 -29.277  1.00  0.00     0.012 A 
HETATM   27  C19 UNL     1      -6.640  46.206 -29.222  1.00  0.00    -0.002 A 
HETATM   28  C16 UNL     1      -8.401  44.334 -28.036  1.00  0.00     0.001 A 
HETATM   29  C17 UNL     1      -8.114  45.527 -27.382  1.00  0.00     0.001 A 
HETATM   30  C18 UNL     1      -7.246  46.453 -27.965  1.00  0.00     0.014 A 
ENDBRANCH  19  20
ENDBRANCH  16  19
ENDBRANCH   7  13
BRANCH   1  31
HETATM   31  C4  UNL     1       0.505  52.685 -22.302  1.00  0.00    -0.004 A 
HETATM   32  C3  UNL     1       0.057  51.884 -21.247  1.00  0.00     0.038 A 
HETATM   33  C2  UNL     1       0.256  52.322 -19.941  1.00  0.00     0.005 A 
HETATM   34  C1  UNL     1      -0.230  51.493 -18.790  1.00  0.00     0.068 C 
HETATM   35  N7  UNL     1       0.871  53.491 -19.650  1.00  0.00    -0.369 N 
HETATM   36  C23 UNL     1       1.310  54.239 -20.684  1.00  0.00     0.089 A 
ATOM     37  H7  UNL     1       0.999  53.795 -18.684  1.00  0.00     0.165 HD
HETATM   38  C22 UNL     1       1.155  53.885 -22.011  1.00  0.00     0.031 A 
ENDBRANCH   1  31
TORSDOF 4
ENDMDL
MODEL 6
REMARK minimizedAffinity -9.71589184
REMARK  4 active torsions:
REMARK  status: ('A' for Active; 'I' for Inactive)
REMARK    1  A    between atoms: C4_4  and  C5_5 
REMARK    2  A    between atoms: C8_11  and  N3_12 
REMARK       I    between atoms: N3_12  and  C9_13 
REMARK       I    between atoms: C9_13  and  N4_15 
REMARK    3  A    between atoms: N4_15  and  C10_16 
REMARK    4  A    between atoms: C10_16  and  C11_17 
ROOT
HETATM    1  C5  UNL     1       0.364  52.450 -23.813  1.00  0.00     0.072 A 
HETATM    2  N1  UNL     1       1.043  53.010 -24.830  1.00  0.00    -0.299 N 
ATOM      3  H1  UNL     1       1.744  53.749 -24.782  1.00  0.00     0.187 HD
HETATM    4  N2  UNL     1       0.589  52.373 -25.921  1.00  0.00    -0.299 N 
HETATM    5  C6  UNL     1      -0.390  51.454 -25.667  1.00  0.00     0.065 A 
HETATM    6  C7  UNL     1      -1.125  50.617 -26.507  1.00  0.00     0.080 A 
HETATM    7  C8  UNL     1      -2.079  49.831 -25.872  1.00  0.00     0.111 A 
HETATM    8  N6  UNL     1      -2.303  49.854 -24.539  1.00  0.00    -0.351 N 
ATOM      9  H6  UNL     1      -3.030  49.264 -24.133  1.00  0.00     0.166 HD
HETATM   10  C20 UNL     1      -1.560  50.664 -23.740  1.00  0.00     0.105 A 
HETATM   11  C21 UNL     1      -0.575  51.487 -24.292  1.00  0.00     0.036 A 
HETATM   12  H5  UNL     1       0.983  52.622 -26.821  1.00  0.00     0.187 HD
ENDROOT
BRANCH   7  13
HETATM   13  N3  UNL     1      -2.937  48.976 -26.562  1.00  0.00    -0.295 N 
HETATM   14  C9  UNL     1      -3.610  49.217 -27.727  1.00  0.00     0.322 C 
HETATM   15  O1  UNL     1      -3.482  50.195 -28.451  1.00  0.00    -0.247 OA
HETATM   16  N4  UNL     1      -4.468  48.183 -28.023  1.00  0.00    -0.337 N 
HETATM   17  H8  UNL     1      -4.908  47.770 -27.213  1.00  0.00     0.164 HD
HETATM   18  H7  UNL     1      -2.896  48.026 -26.231  1.00  0.00     0.172 HD
BRANCH  16  19
HETATM   19  C10 UNL     1      -5.343  48.294 -29.173  1.00  0.00     0.182 C 
BRANCH  19  20
HETATM   20  C11 UNL     1      -6.127  47.021 -29.385  1.00  0.00     0.038 A 
HETATM   21  N5  UNL     1      -7.073  46.772 -28.435  1.00  0.00    -0.367 N 
HETATM   22  C12 UNL     1      -7.794  45.640 -28.555  1.00  0.00     0.089 A 
ATOM     23  H5  UNL     1      -7.230  47.418 -27.662  1.00  0.00     0.165 HD
HETATM   24  C13 UNL     1      -7.613  44.717 -29.568  1.00  0.00     0.029 A 
HETATM   25  C14 UNL     1      -6.627  44.954 -30.529  1.00  0.00    -0.023 A 
HETATM   26  C15 UNL     1      -6.404  44.026 -31.563  1.00  0.00     0.012 A 
HETATM   27  C19 UNL     1      -5.847  46.131 -30.451  1.00  0.00    -0.002 A 
HETATM   28  C16 UNL     1      -5.413  44.248 -32.519  1.00  0.00     0.001 A 
HETATM   29  C17 UNL     1      -4.631  45.396 -32.451  1.00  0.00     0.001 A 
HETATM   30  C18 UNL     1      -4.843  46.326 -31.432  1.00  0.00     0.014 A 
ENDBRANCH  19  20
ENDBRANCH  16  19
ENDBRANCH   7  13
BRANCH   1  31
HETATM   31  C4  UNL     1       0.607  52.864 -22.434  1.00  0.00    -0.004 A 
HETATM   32  C3  UNL     1       0.156  52.088 -21.361  1.00  0.00     0.038 A 
HETATM   33  C2  UNL     1       0.401  52.531 -20.065  1.00  0.00     0.005 A 
HETATM   34  C1  UNL     1      -0.086  51.730 -18.894  1.00  0.00     0.068 C 
HETATM   35  N7  UNL     1       1.062  53.681 -19.800  1.00  0.00    -0.369 N 
HETATM   36  C23 UNL     1       1.502  54.404 -20.852  1.00  0.00     0.089 A 
ATOM     37  H7  UNL     1       1.223  53.990 -18.841  1.00  0.00     0.165 HD
HETATM   38  C22 UNL     1       1.303  54.043 -22.171  1.00  0.00     0.031 A 
ENDBRANCH   1  31
TORSDOF 4
ENDMDL
MODEL 7
REMARK minimizedAffinity -9.58810234
REMARK  4 active torsions:
REMARK  status: ('A' for Active; 'I' for Inactive)
REMARK    1  A    between atoms: C4_4  and  C5_5 
REMARK    2  A    between atoms: C8_11  and  N3_12 
REMARK       I    between atoms: N3_12  and  C9_13 
REMARK       I    between atoms: C9_13  and  N4_15 
REMARK    3  A    between atoms: N4_15  and  C10_16 
REMARK    4  A    between atoms: C10_16  and  C11_17 
ROOT
HETATM    1  C5  UNL     1       0.738  53.491 -23.915  1.00  0.00     0.072 A 
HETATM    2  N1  UNL     1       1.352  54.676 -24.083  1.00  0.00    -0.299 N 
ATOM      3  H1  UNL     1       1.537  55.167 -24.958  1.00  0.00     0.187 HD
HETATM    4  N2  UNL     1       1.664  55.067 -22.837  1.00  0.00    -0.299 N 
HETATM    5  C6  UNL     1       1.323  54.168 -21.866  1.00  0.00     0.065 A 
HETATM    6  C7  UNL     1       1.492  54.181 -20.482  1.00  0.00     0.080 A 
HETATM    7  C8  UNL     1       1.039  53.047 -19.819  1.00  0.00     0.111 A 
HETATM    8  N6  UNL     1       0.473  51.989 -20.444  1.00  0.00    -0.351 N 
ATOM      9  H6  UNL     1       0.174  51.177 -19.904  1.00  0.00     0.166 HD
HETATM   10  C20 UNL     1       0.302  52.010 -21.792  1.00  0.00     0.105 A 
HETATM   11  C21 UNL     1       0.725  53.112 -22.539  1.00  0.00     0.036 A 
HETATM   12  H5  UNL     1       2.125  55.961 -22.716  1.00  0.00     0.187 HD
ENDROOT
BRANCH   7  13
HETATM   13  N3  UNL     1       1.174  52.868 -18.444  1.00  0.00    -0.295 N 
HETATM   14  C9  UNL     1       0.587  51.917 -17.656  1.00  0.00     0.322 C 
HETATM   15  O1  UNL     1      -0.075  50.962 -18.040  1.00  0.00    -0.247 OA
HETATM   16  N4  UNL     1       0.853  52.147 -16.326  1.00  0.00    -0.337 N 
HETATM   17  H8  UNL     1       0.878  53.125 -16.075  1.00  0.00     0.164 HD
HETATM   18  H7  UNL     1       1.929  53.404 -18.049  1.00  0.00     0.172 HD
BRANCH  16  19
HETATM   19  C10 UNL     1       0.239  51.300 -15.323  1.00  0.00     0.182 C 
BRANCH  19  20
HETATM   20  C11 UNL     1       0.722  51.659 -13.937  1.00  0.00     0.038 A 
HETATM   21  N5  UNL     1      -0.030  52.601 -13.299  1.00  0.00    -0.367 N 
HETATM   22  C12 UNL     1       0.360  52.981 -12.068  1.00  0.00     0.089 A 
ATOM     23  H5  UNL     1      -0.858  53.003 -13.738  1.00  0.00     0.165 HD
HETATM   24  C13 UNL     1       1.483  52.488 -11.431  1.00  0.00     0.029 A 
HETATM   25  C14 UNL     1       2.273  51.542 -12.090  1.00  0.00    -0.023 A 
HETATM   26  C15 UNL     1       3.432  51.032 -11.478  1.00  0.00     0.012 A 
HETATM   27  C19 UNL     1       1.903  51.105 -13.383  1.00  0.00    -0.002 A 
HETATM   28  C16 UNL     1       4.235  50.099 -12.134  1.00  0.00     0.001 A 
HETATM   29  C17 UNL     1       3.889  49.666 -13.410  1.00  0.00     0.001 A 
HETATM   30  C18 UNL     1       2.739  50.161 -14.028  1.00  0.00     0.014 A 
ENDBRANCH  19  20
ENDBRANCH  16  19
ENDBRANCH   7  13
BRANCH   1  31
HETATM   31  C4  UNL     1       0.215  52.752 -25.060  1.00  0.00    -0.004 A 
HETATM   32  C3  UNL     1      -1.163  52.619 -25.260  1.00  0.00     0.038 A 
HETATM   33  C2  UNL     1      -1.613  51.893 -26.358  1.00  0.00     0.005 A 
HETATM   34  C1  UNL     1      -3.085  51.718 -26.590  1.00  0.00     0.068 C 
HETATM   35  N7  UNL     1      -0.771  51.315 -27.246  1.00  0.00    -0.369 N 
HETATM   36  C23 UNL     1       0.554  51.471 -27.041  1.00  0.00     0.089 A 
ATOM     37  H7  UNL     1      -1.124  50.780 -28.040  1.00  0.00     0.165 HD
HETATM   38  C22 UNL     1       1.091  52.172 -25.978  1.00  0.00     0.031 A 
ENDBRANCH   1  31
TORSDOF 4
ENDMDL
MODEL 8
REMARK minimizedAffinity -9.56225777
REMARK  4 active torsions:
REMARK  status: ('A' for Active; 'I' for Inactive)
REMARK    1  A    between atoms: C4_4  and  C5_5 
REMARK    2  A    between atoms: C8_11  and  N3_12 
REMARK       I    between atoms: N3_12  and  C9_13 
REMARK       I    between atoms: C9_13  and  N4_15 
REMARK    3  A    between atoms: N4_15  and  C10_16 
REMARK    4  A    between atoms: C10_16  and  C11_17 
ROOT
HETATM    1  C5  UNL     1       0.675  53.365 -23.542  1.00  0.00     0.072 A 
HETATM    2  N1  UNL     1       1.380  54.487 -23.772  1.00  0.00    -0.299 N 
ATOM      3  H1  UNL     1       1.591  54.921 -24.671  1.00  0.00     0.187 HD
HETATM    4  N2  UNL     1       1.742  54.906 -22.548  1.00  0.00    -0.299 N 
HETATM    5  C6  UNL     1       1.344  54.082 -21.533  1.00  0.00     0.065 A 
HETATM    6  C7  UNL     1       1.534  54.143 -20.153  1.00  0.00     0.080 A 
HETATM    7  C8  UNL     1       1.001  53.081 -19.434  1.00  0.00     0.111 A 
HETATM    8  N6  UNL     1       0.341  52.046 -20.004  1.00  0.00    -0.351 N 
ATOM      9  H6  UNL     1      -0.014  51.286 -19.424  1.00  0.00     0.166 HD
HETATM   10  C20 UNL     1       0.153  52.020 -21.349  1.00  0.00     0.105 A 
HETATM   11  C21 UNL     1       0.652  53.049 -22.150  1.00  0.00     0.036 A 
HETATM   12  H5  UNL     1       2.276  55.764 -22.474  1.00  0.00     0.187 HD
ENDROOT
BRANCH   7  13
HETATM   13  N3  UNL     1       1.142  52.953 -18.054  1.00  0.00    -0.295 N 
HETATM   14  C9  UNL     1       0.875  51.860 -17.277  1.00  0.00     0.322 C 
HETATM   15  O1  UNL     1       0.577  50.741 -17.674  1.00  0.00    -0.247 OA
HETATM   16  N4  UNL     1       1.006  52.162 -15.941  1.00  0.00    -0.337 N 
HETATM   17  H8  UNL     1       0.699  53.093 -15.698  1.00  0.00     0.164 HD
HETATM   18  H7  UNL     1       1.665  53.707 -17.639  1.00  0.00     0.172 HD
BRANCH  16  19
HETATM   19  C10 UNL     1       0.672  51.158 -14.951  1.00  0.00     0.182 C 
BRANCH  19  20
HETATM   20  C11 UNL     1      -0.746  51.329 -14.459  1.00  0.00     0.038 A 
HETATM   21  N5  UNL     1      -1.701  50.824 -15.291  1.00  0.00    -0.367 N 
HETATM   22  C12 UNL     1      -2.988  50.964 -14.920  1.00  0.00     0.089 A 
ATOM     23  H5  UNL     1      -1.451  50.358 -16.163  1.00  0.00     0.165 HD
HETATM   24  C13 UNL     1      -3.390  51.602 -13.762  1.00  0.00     0.029 A 
HETATM   25  C14 UNL     1      -2.417  52.145 -12.918  1.00  0.00    -0.023 A 
HETATM   26  C15 UNL     1      -2.792  52.817 -11.740  1.00  0.00     0.012 A 
HETATM   27  C19 UNL     1      -1.051  52.020 -13.260  1.00  0.00    -0.002 A 
HETATM   28  C16 UNL     1      -1.829  53.374 -10.899  1.00  0.00     0.001 A 
HETATM   29  C17 UNL     1      -0.481  53.267 -11.226  1.00  0.00     0.001 A 
HETATM   30  C18 UNL     1      -0.095  52.600 -12.390  1.00  0.00     0.014 A 
ENDBRANCH  19  20
ENDBRANCH  16  19
ENDBRANCH   7  13
BRANCH   1  31
HETATM   31  C4  UNL     1       0.076  52.620 -24.646  1.00  0.00    -0.004 A 
HETATM   32  C3  UNL     1       0.766  52.440 -25.849  1.00  0.00     0.038 A 
HETATM   33  C2  UNL     1       0.148  51.735 -26.876  1.00  0.00     0.005 A 
HETATM   34  C1  UNL     1       0.855  51.540 -28.185  1.00  0.00     0.068 C 
HETATM   35  N7  UNL     1      -1.094  51.210 -26.757  1.00  0.00    -0.369 N 
HETATM   36  C23 UNL     1      -1.733  51.383 -25.581  1.00  0.00     0.089 A 
ATOM     37  H7  UNL     1      -1.530  50.703 -27.528  1.00  0.00     0.165 HD
HETATM   38  C22 UNL     1      -1.199  52.070 -24.508  1.00  0.00     0.031 A 
ENDBRANCH   1  31
TORSDOF 4
ENDMDL
MODEL 9
REMARK minimizedAffinity -9.37837124
REMARK  4 active torsions:
REMARK  status: ('A' for Active; 'I' for Inactive)
REMARK    1  A    between atoms: C4_4  and  C5_5 
REMARK    2  A    between atoms: C8_11  and  N3_12 
REMARK       I    between atoms: N3_12  and  C9_13 
REMARK       I    between atoms: C9_13  and  N4_15 
REMARK    3  A    between atoms: N4_15  and  C10_16 
REMARK    4  A    between atoms: C10_16  and  C11_17 
ROOT
HETATM    1  C5  UNL     1       0.114  52.464 -23.109  1.00  0.00     0.072 A 
HETATM    2  N1  UNL     1       0.849  53.483 -23.590  1.00  0.00    -0.299 N 
ATOM      3  H1  UNL     1       1.001  53.738 -24.566  1.00  0.00     0.187 HD
HETATM    4  N2  UNL     1       1.337  54.086 -22.494  1.00  0.00    -0.299 N 
HETATM    5  C6  UNL     1       0.991  53.479 -21.319  1.00  0.00     0.065 A 
HETATM    6  C7  UNL     1       1.305  53.769 -19.992  1.00  0.00     0.080 A 
HETATM    7  C8  UNL     1       0.786  52.884 -19.054  1.00  0.00     0.111 A 
HETATM    8  N6  UNL     1       0.031  51.809 -19.375  1.00  0.00    -0.351 N 
ATOM      9  H6  UNL     1      -0.308  51.186 -18.642  1.00  0.00     0.166 HD
HETATM   10  C20 UNL     1      -0.277  51.560 -20.675  1.00  0.00     0.105 A 
HETATM   11  C21 UNL     1       0.199  52.400 -21.685  1.00  0.00     0.036 A 
HETATM   12  H5  UNL     1       1.915  54.909 -22.617  1.00  0.00     0.187 HD
ENDROOT
BRANCH   7  13
HETATM   13  N3  UNL     1       1.042  52.991 -17.689  1.00  0.00    -0.295 N 
HETATM   14  C9  UNL     1       1.031  51.998 -16.749  1.00  0.00     0.322 C 
HETATM   15  O1  UNL     1       0.915  50.799 -16.960  1.00  0.00    -0.247 OA
HETATM   16  N4  UNL     1       1.196  52.516 -15.485  1.00  0.00    -0.337 N 
HETATM   17  H8  UNL     1       0.743  53.407 -15.343  1.00  0.00     0.164 HD
HETATM   18  H7  UNL     1       1.446  53.877 -17.432  1.00  0.00     0.172 HD
BRANCH  16  19
HETATM   19  C10 UNL     1       1.118  51.630 -14.340  1.00  0.00     0.182 C 
BRANCH  19  20
HETATM   20  C11 UNL     1       0.546  52.344 -13.138  1.00  0.00     0.038 A 
HETATM   21  N5  UNL     1       1.469  52.990 -12.369  1.00  0.00    -0.367 N 
HETATM   22  C12 UNL     1       1.027  53.629 -11.269  1.00  0.00     0.089 A 
ATOM     23  H5  UNL     1       2.459  52.989 -12.617  1.00  0.00     0.165 HD
HETATM   24  C13 UNL     1      -0.297  53.648 -10.871  1.00  0.00     0.029 A 
HETATM   25  C14 UNL     1      -1.243  52.966 -11.640  1.00  0.00    -0.023 A 
HETATM   26  C15 UNL     1      -2.596  52.950 -11.254  1.00  0.00     0.012 A 
HETATM   27  C19 UNL     1      -0.831  52.284 -12.808  1.00  0.00    -0.002 A 
HETATM   28  C16 UNL     1      -3.545  52.260 -12.008  1.00  0.00     0.001 A 
HETATM   29  C17 UNL     1      -3.153  51.578 -13.154  1.00  0.00     0.001 A 
HETATM   30  C18 UNL     1      -1.815  51.587 -13.551  1.00  0.00     0.014 A 
ENDBRANCH  19  20
ENDBRANCH  16  19
ENDBRANCH   7  13
BRANCH   1  31
HETATM   31  C4  UNL     1      -0.614  51.577 -24.010  1.00  0.00    -0.004 A 
HETATM   32  C3  UNL     1      -1.621  50.734 -23.530  1.00  0.00     0.038 A 
HETATM   33  C2  UNL     1      -2.278  49.897 -24.426  1.00  0.00     0.005 A 
HETATM   34  C1  UNL     1      -3.350  48.968 -23.938  1.00  0.00     0.068 C 
HETATM   35  N7  UNL     1      -1.985  49.868 -25.747  1.00  0.00    -0.369 N 
HETATM   36  C23 UNL     1      -1.021  50.703 -26.190  1.00  0.00     0.089 A 
ATOM     37  H7  UNL     1      -2.475  49.240 -26.384  1.00  0.00     0.165 HD
HETATM   38  C22 UNL     1      -0.316  51.566 -25.373  1.00  0.00     0.031 A 
ENDBRANCH   1  31
TORSDOF 4
ENDMDL
