MODEL 1
REMARK minimizedAffinity -9.18793106
REMARK  4 active torsions:
REMARK  status: ('A' for Active; 'I' for Inactive)
REMARK    1  A    between atoms: C4_5  and  C5_6 
REMARK    2  A    between atoms: C5_6  and  N2_7 
REMARK       I    between atoms: N2_7  and  C6_8 
REMARK       I    between atoms: C6_8  and  N3_10 
REMARK    3  A    between atoms: N3_10  and  C7_11 
REMARK    4  A    between atoms: C10_17  and  C11_18 
ROOT
HETATM    1  C7  UNL     1      -2.360  51.092 -26.884  1.00  0.00     0.111 A 
HETATM    2  C8  UNL     1      -1.305  51.892 -27.310  1.00  0.00     0.080 A 
HETATM    3  C9  UNL     1      -0.508  52.413 -26.291  1.00  0.00     0.065 A 
HETATM    4  N4  UNL     1       0.583  53.234 -26.321  1.00  0.00    -0.299 N 
HETATM    5  N5  UNL     1       1.070  53.542 -25.108  1.00  0.00    -0.299 N 
ATOM      6  H5  UNL     1       1.852  54.157 -24.887  1.00  0.00     0.187 HD
HETATM    7  C10 UNL     1       0.294  52.857 -24.249  1.00  0.00     0.072 A 
HETATM    8  C17 UNL     1      -0.735  52.151 -24.946  1.00  0.00     0.036 A 
HETATM    9  C18 UNL     1      -1.829  51.350 -24.610  1.00  0.00     0.105 A 
HETATM   10  N6  UNL     1      -2.623  50.828 -25.582  1.00  0.00    -0.351 N 
ATOM     11  H6  UNL     1      -3.416  50.237 -25.331  1.00  0.00     0.166 HD
HETATM   12  H14 UNL     1       1.043  53.622 -27.136  1.00  0.00     0.187 HD
ENDROOT
BRANCH   1  13
HETATM   13  N3  UNL     1      -3.267  50.486 -27.753  1.00  0.00    -0.295 N 
HETATM   14  C6  UNL     1      -3.892  49.276 -27.622  1.00  0.00     0.321 C 
HETATM   15  N2  UNL     1      -4.707  49.013 -28.705  1.00  0.00    -0.342 N 
HETATM   16  O1  UNL     1      -3.784  48.502 -26.680  1.00  0.00    -0.247 OA
HETATM   17  H11 UNL     1      -4.518  49.523 -29.555  1.00  0.00     0.164 HD
HETATM   18  H12 UNL     1      -3.551  51.099 -28.500  1.00  0.00     0.172 HD
BRANCH  15  19
HETATM   19  C5  UNL     1      -5.405  47.746 -28.828  1.00  0.00     0.130 C 
BRANCH  19  20
HETATM   20  C4  UNL     1      -6.054  47.571 -30.199  1.00  0.00     0.033 C 
HETATM   21  C3  UNL     1      -6.110  46.112 -30.680  1.00  0.00     0.038 C 
HETATM   22  C2  UNL     1      -5.655  46.151 -32.137  1.00  0.00     0.272 C 
HETATM   23  N1  UNL     1      -5.728  47.570 -32.492  1.00  0.00     0.084 N 
HETATM   24  C1  UNL     1      -4.943  47.895 -33.673  1.00  0.00     0.309 C 
HETATM   25  C19 UNL     1      -5.279  48.290 -31.298  1.00  0.00     0.278 C 
ENDBRANCH  19  20
ENDBRANCH  15  19
ENDBRANCH   1  13
BRANCH   7  26
HETATM   26  C11 UNL     1       0.540  52.919 -22.807  1.00  0.00    -0.007 A 
HETATM   27  C12 UNL     1       1.217  54.006 -22.234  1.00  0.00     0.017 A 
HETATM   28  C13 UNL     1       1.447  54.047 -20.856  1.00  0.00     0.043 A 
HETATM   29  C14 UNL     1       0.995  53.008 -20.052  1.00  0.00     0.116 A 
HETATM   30  F1  UNL     1       1.217  53.050 -18.732  1.00  0.00    -0.206 F 
HETATM   31  C15 UNL     1       0.307  51.930 -20.596  1.00  0.00     0.043 A 
HETATM   32  C16 UNL     1       0.079  51.885 -21.974  1.00  0.00     0.017 A 
ENDBRANCH   7  26
TORSDOF 4
ENDMDL
MODEL 2
REMARK minimizedAffinity -9.019104
REMARK  4 active torsions:
REMARK  status: ('A' for Active; 'I' for Inactive)
REMARK    1  A    between atoms: C4_5  and  C5_6 
REMARK    2  A    between atoms: C5_6  and  N2_7 
REMARK       I    between atoms: N2_7  and  C6_8 
REMARK       I    between atoms: C6_8  and  N3_10 
REMARK    3  A    between atoms: N3_10  and  C7_11 
REMARK    4  A    between atoms: C10_17  and  C11_18 
ROOT
HETATM    1  C7  UNL     1      -2.387  51.129 -26.801  1.00  0.00     0.111 A 
HETATM    2  C8  UNL     1      -1.305  51.897 -27.216  1.00  0.00     0.080 A 
HETATM    3  C9  UNL     1      -0.501  52.392 -26.190  1.00  0.00     0.065 A 
HETATM    4  N4  UNL     1       0.615  53.179 -26.209  1.00  0.00    -0.299 N 
HETATM    5  N5  UNL     1       1.099  53.471 -24.992  1.00  0.00    -0.299 N 
ATOM      6  H5  UNL     1       1.899  54.062 -24.763  1.00  0.00     0.187 HD
HETATM    7  C10 UNL     1       0.295  52.810 -24.140  1.00  0.00     0.072 A 
HETATM    8  C17 UNL     1      -0.748  52.136 -24.848  1.00  0.00     0.036 A 
HETATM    9  C18 UNL     1      -1.869  51.368 -24.522  1.00  0.00     0.105 A 
HETATM   10  N6  UNL     1      -2.670  50.871 -25.502  1.00  0.00    -0.351 N 
ATOM     11  H6  UNL     1      -3.483  50.305 -25.259  1.00  0.00     0.166 HD
HETATM   12  H14 UNL     1       1.093  53.553 -27.020  1.00  0.00     0.187 HD
ENDROOT
BRANCH   1  13
HETATM   13  N3  UNL     1      -3.305  50.551 -27.679  1.00  0.00    -0.295 N 
HETATM   14  C6  UNL     1      -3.789  49.272 -27.683  1.00  0.00     0.321 C 
HETATM   15  N2  UNL     1      -4.669  49.073 -28.727  1.00  0.00    -0.342 N 
HETATM   16  O1  UNL     1      -3.517  48.391 -26.878  1.00  0.00    -0.247 OA
HETATM   17  H11 UNL     1      -4.612  49.714 -29.503  1.00  0.00     0.164 HD
HETATM   18  H12 UNL     1      -3.717  51.227 -28.303  1.00  0.00     0.172 HD
BRANCH  15  19
HETATM   19  C5  UNL     1      -5.244  47.764 -28.984  1.00  0.00     0.130 C 
BRANCH  19  20
HETATM   20  C4  UNL     1      -6.702  47.673 -28.541  1.00  0.00     0.033 C 
HETATM   21  C3  UNL     1      -7.241  46.236 -28.462  1.00  0.00     0.038 C 
HETATM   22  C2  UNL     1      -8.611  46.283 -29.136  1.00  0.00     0.272 C 
HETATM   23  N1  UNL     1      -8.919  47.712 -29.211  1.00  0.00     0.084 N 
HETATM   24  C1  UNL     1      -9.955  48.013 -30.186  1.00  0.00     0.309 C 
HETATM   25  C19 UNL     1      -7.645  48.366 -29.519  1.00  0.00     0.278 C 
ENDBRANCH  19  20
ENDBRANCH  15  19
ENDBRANCH   1  13
BRANCH   7  26
HETATM   26  C11 UNL     1       0.530  52.863 -22.696  1.00  0.00    -0.007 A 
HETATM   27  C12 UNL     1       1.198  53.948 -22.110  1.00  0.00     0.017 A 
HETATM   28  C13 UNL     1       1.418  53.981 -20.731  1.00  0.00     0.043 A 
HETATM   29  C14 UNL     1       0.964  52.935 -19.937  1.00  0.00     0.116 A 
HETATM   30  F1  UNL     1       1.176  52.969 -18.615  1.00  0.00    -0.206 F 
HETATM   31  C15 UNL     1       0.284  51.858 -20.494  1.00  0.00     0.043 A 
HETATM   32  C16 UNL     1       0.067  51.822 -21.873  1.00  0.00     0.017 A 
ENDBRANCH   7  26
TORSDOF 4
ENDMDL
MODEL 3
REMARK minimizedAffinity -8.93957138
REMARK  4 active torsions:
REMARK  status: ('A' for Active; 'I' for Inactive)
REMARK    1  A    between atoms: C4_5  and  C5_6 
REMARK    2  A    between atoms: C5_6  and  N2_7 
REMARK       I    between atoms: N2_7  and  C6_8 
REMARK       I    between atoms: C6_8  and  N3_10 
REMARK    3  A    between atoms: N3_10  and  C7_11 
REMARK    4  A    between atoms: C10_17  and  C11_18 
ROOT
HETATM    1  C7  UNL     1       0.420  52.573 -19.784  1.00  0.00     0.111 A 
HETATM    2  C8  UNL     1       0.997  53.779 -20.164  1.00  0.00     0.080 A 
HETATM    3  C9  UNL     1       1.125  53.966 -21.540  1.00  0.00     0.065 A 
HETATM    4  N4  UNL     1       1.646  54.995 -22.273  1.00  0.00    -0.299 N 
HETATM    5  N5  UNL     1       1.615  54.792 -23.600  1.00  0.00    -0.299 N 
ATOM      6  H5  UNL     1       1.972  55.404 -24.333  1.00  0.00     0.187 HD
HETATM    7  C10 UNL     1       1.006  53.602 -23.745  1.00  0.00     0.072 A 
HETATM    8  C17 UNL     1       0.702  53.028 -22.472  1.00  0.00     0.036 A 
HETATM    9  C18 UNL     1       0.149  51.836 -21.998  1.00  0.00     0.105 A 
HETATM   10  N6  UNL     1       0.011  51.627 -20.661  1.00  0.00    -0.351 N 
ATOM     11  H6  UNL     1      -0.401  50.758 -20.321  1.00  0.00     0.166 HD
HETATM   12  H14 UNL     1       2.042  55.861 -21.928  1.00  0.00     0.187 HD
ENDROOT
BRANCH   1  13
HETATM   13  N3  UNL     1       0.212  52.204 -18.454  1.00  0.00    -0.295 N 
HETATM   14  C6  UNL     1       1.083  52.286 -17.402  1.00  0.00     0.321 C 
HETATM   15  N2  UNL     1       0.513  51.802 -16.242  1.00  0.00    -0.342 N 
HETATM   16  O1  UNL     1       2.221  52.734 -17.436  1.00  0.00    -0.247 OA
HETATM   17  H11 UNL     1      -0.278  51.185 -16.342  1.00  0.00     0.164 HD
HETATM   18  H12 UNL     1      -0.747  51.956 -18.270  1.00  0.00     0.172 HD
BRANCH  15  19
HETATM   19  C5  UNL     1       1.281  51.708 -15.013  1.00  0.00     0.130 C 
BRANCH  19  20
HETATM   20  C4  UNL     1       0.405  51.388 -13.804  1.00  0.00     0.033 C 
HETATM   21  C3  UNL     1      -1.091  51.264 -14.133  1.00  0.00     0.038 C 
HETATM   22  C2  UNL     1      -1.810  52.056 -13.043  1.00  0.00     0.272 C 
HETATM   23  N1  UNL     1      -0.786  52.249 -12.014  1.00  0.00     0.084 N 
HETATM   24  C1  UNL     1      -1.111  53.328 -11.094  1.00  0.00     0.309 C 
HETATM   25  C19 UNL     1       0.459  52.487 -12.748  1.00  0.00     0.278 C 
ENDBRANCH  19  20
ENDBRANCH  15  19
ENDBRANCH   1  13
BRANCH   7  26
HETATM   26  C11 UNL     1       0.760  53.047 -25.078  1.00  0.00    -0.007 A 
HETATM   27  C12 UNL     1       1.270  51.793 -25.446  1.00  0.00     0.017 A 
HETATM   28  C13 UNL     1       1.028  51.280 -26.723  1.00  0.00     0.043 A 
HETATM   29  C14 UNL     1       0.272  52.015 -27.628  1.00  0.00     0.116 A 
HETATM   30  F1  UNL     1       0.043  51.521 -28.851  1.00  0.00    -0.206 F 
HETATM   31  C15 UNL     1      -0.258  53.252 -27.279  1.00  0.00     0.043 A 
HETATM   32  C16 UNL     1      -0.014  53.768 -26.003  1.00  0.00     0.017 A 
ENDBRANCH   7  26
TORSDOF 4
ENDMDL
MODEL 4
REMARK minimizedAffinity -8.93150139
REMARK  4 active torsions:
REMARK  status: ('A' for Active; 'I' for Inactive)
REMARK    1  A    between atoms: C4_5  and  C5_6 
REMARK    2  A    between atoms: C5_6  and  N2_7 
REMARK       I    between atoms: N2_7  and  C6_8 
REMARK       I    between atoms: C6_8  and  N3_10 
REMARK    3  A    between atoms: N3_10  and  C7_11 
REMARK    4  A    between atoms: C10_17  and  C11_18 
ROOT
HETATM    1  C7  UNL     1       1.183  53.355 -20.165  1.00  0.00     0.111 A 
HETATM    2  C8  UNL     1       1.628  54.320 -21.062  1.00  0.00     0.080 A 
HETATM    3  C9  UNL     1       1.248  54.116 -22.388  1.00  0.00     0.065 A 
HETATM    4  N4  UNL     1       1.504  54.827 -23.526  1.00  0.00    -0.299 N 
HETATM    5  N5  UNL     1       0.977  54.289 -24.637  1.00  0.00    -0.299 N 
ATOM      6  H5  UNL     1       1.064  54.626 -25.596  1.00  0.00     0.187 HD
HETATM    7  C10 UNL     1       0.309  53.205 -24.204  1.00  0.00     0.072 A 
HETATM    8  C17 UNL     1       0.473  53.038 -22.794  1.00  0.00     0.036 A 
HETATM    9  C18 UNL     1       0.084  52.109 -21.826  1.00  0.00     0.105 A 
HETATM   10  N6  UNL     1       0.440  52.282 -20.525  1.00  0.00    -0.351 N 
ATOM     11  H6  UNL     1       0.147  51.604 -19.821  1.00  0.00     0.166 HD
HETATM   12  H14 UNL     1       2.035  55.686 -23.612  1.00  0.00     0.187 HD
ENDROOT
BRANCH   1  13
HETATM   13  N3  UNL     1       1.464  53.385 -18.798  1.00  0.00    -0.295 N 
HETATM   14  C6  UNL     1       1.016  52.541 -17.820  1.00  0.00     0.321 C 
HETATM   15  N2  UNL     1       1.501  52.909 -16.581  1.00  0.00    -0.342 N 
HETATM   16  O1  UNL     1       0.291  51.567 -17.976  1.00  0.00    -0.247 OA
HETATM   17  H11 UNL     1       1.822  53.859 -16.478  1.00  0.00     0.164 HD
HETATM   18  H12 UNL     1       2.174  54.060 -18.568  1.00  0.00     0.172 HD
BRANCH  15  19
HETATM   19  C5  UNL     1       1.088  52.210 -15.377  1.00  0.00     0.130 C 
BRANCH  19  20
HETATM   20  C4  UNL     1       2.075  51.116 -14.973  1.00  0.00     0.033 C 
HETATM   21  C3  UNL     1       1.408  49.787 -14.585  1.00  0.00     0.038 C 
HETATM   22  C2  UNL     1       2.110  49.344 -13.303  1.00  0.00     0.272 C 
HETATM   23  N1  UNL     1       3.308  50.184 -13.248  1.00  0.00     0.084 N 
HETATM   24  C1  UNL     1       3.893  50.242 -11.917  1.00  0.00     0.309 C 
HETATM   25  C19 UNL     1       2.881  51.498 -13.735  1.00  0.00     0.278 C 
ENDBRANCH  19  20
ENDBRANCH  15  19
ENDBRANCH   1  13
BRANCH   7  26
HETATM   26  C11 UNL     1      -0.434  52.361 -25.142  1.00  0.00    -0.007 A 
HETATM   27  C12 UNL     1       0.220  51.396 -25.922  1.00  0.00     0.017 A 
HETATM   28  C13 UNL     1      -0.504  50.601 -26.814  1.00  0.00     0.043 A 
HETATM   29  C14 UNL     1      -1.880  50.765 -26.922  1.00  0.00     0.116 A 
HETATM   30  F1  UNL     1      -2.571  50.003 -27.778  1.00  0.00    -0.206 F 
HETATM   31  C15 UNL     1      -2.551  51.704 -26.146  1.00  0.00     0.043 A 
HETATM   32  C16 UNL     1      -1.828  52.501 -25.255  1.00  0.00     0.017 A 
ENDBRANCH   7  26
TORSDOF 4
ENDMDL
MODEL 5
REMARK minimizedAffinity -8.78940201
REMARK  4 active torsions:
REMARK  status: ('A' for Active; 'I' for Inactive)
REMARK    1  A    between atoms: C4_5  and  C5_6 
REMARK    2  A    between atoms: C5_6  and  N2_7 
REMARK       I    between atoms: N2_7  and  C6_8 
REMARK       I    between atoms: C6_8  and  N3_10 
REMARK    3  A    between atoms: N3_10  and  C7_11 
REMARK    4  A    between atoms: C10_17  and  C11_18 
ROOT
HETATM    1  C7  UNL     1      -0.104  51.959 -19.762  1.00  0.00     0.111 A 
HETATM    2  C8  UNL     1       0.581  53.156 -19.943  1.00  0.00     0.080 A 
HETATM    3  C9  UNL     1       0.841  53.495 -21.270  1.00  0.00     0.065 A 
HETATM    4  N4  UNL     1       1.489  54.562 -21.825  1.00  0.00    -0.299 N 
HETATM    5  N5  UNL     1       1.560  54.522 -23.165  1.00  0.00    -0.299 N 
ATOM      6  H5  UNL     1       2.019  55.188 -23.786  1.00  0.00     0.187 HD
HETATM    7  C10 UNL     1       0.891  53.406 -23.506  1.00  0.00     0.072 A 
HETATM    8  C17 UNL     1       0.441  52.708 -22.342  1.00  0.00     0.036 A 
HETATM    9  C18 UNL     1      -0.227  51.513 -22.065  1.00  0.00     0.105 A 
HETATM   10  N6  UNL     1      -0.495  51.157 -20.781  1.00  0.00    -0.351 N 
ATOM     11  H6  UNL     1      -0.990  50.287 -20.585  1.00  0.00     0.166 HD
HETATM   12  H14 UNL     1       1.908  55.349 -21.345  1.00  0.00     0.187 HD
ENDROOT
BRANCH   1  13
HETATM   13  N3  UNL     1      -0.451  51.452 -18.509  1.00  0.00    -0.295 N 
HETATM   14  C6  UNL     1      -1.686  51.404 -17.924  1.00  0.00     0.321 C 
HETATM   15  N2  UNL     1      -1.622  50.843 -16.664  1.00  0.00    -0.342 N 
HETATM   16  O1  UNL     1      -2.739  51.783 -18.419  1.00  0.00    -0.247 OA
HETATM   17  H11 UNL     1      -0.722  50.840 -16.210  1.00  0.00     0.164 HD
HETATM   18  H12 UNL     1       0.315  50.973 -18.064  1.00  0.00     0.172 HD
BRANCH  15  19
HETATM   19  C5  UNL     1      -2.798  50.768 -15.817  1.00  0.00     0.130 C 
BRANCH  19  20
HETATM   20  C4  UNL     1      -2.461  50.945 -14.338  1.00  0.00     0.033 C 
HETATM   21  C3  UNL     1      -2.889  49.762 -13.455  1.00  0.00     0.038 C 
HETATM   22  C2  UNL     1      -3.553  50.392 -12.233  1.00  0.00     0.272 C 
HETATM   23  N1  UNL     1      -3.153  51.799 -12.299  1.00  0.00     0.084 N 
HETATM   24  C1  UNL     1      -4.004  52.664 -11.497  1.00  0.00     0.309 C 
HETATM   25  C19 UNL     1      -3.180  52.141 -13.723  1.00  0.00     0.278 C 
ENDBRANCH  19  20
ENDBRANCH  15  19
ENDBRANCH   1  13
BRANCH   7  26
HETATM   26  C11 UNL     1       0.727  53.033 -24.913  1.00  0.00    -0.007 A 
HETATM   27  C12 UNL     1       1.305  51.862 -25.424  1.00  0.00     0.017 A 
HETATM   28  C13 UNL     1       1.141  51.523 -26.769  1.00  0.00     0.043 A 
HETATM   29  C14 UNL     1       0.395  52.350 -27.601  1.00  0.00     0.116 A 
HETATM   30  F1  UNL     1       0.240  52.023 -28.890  1.00  0.00    -0.206 F 
HETATM   31  C15 UNL     1      -0.202  53.506 -27.112  1.00  0.00     0.043 A 
HETATM   32  C16 UNL     1      -0.036  53.847 -25.767  1.00  0.00     0.017 A 
ENDBRANCH   7  26
TORSDOF 4
ENDMDL
MODEL 6
REMARK minimizedAffinity -8.62264919
REMARK  4 active torsions:
REMARK  status: ('A' for Active; 'I' for Inactive)
REMARK    1  A    between atoms: C4_5  and  C5_6 
REMARK    2  A    between atoms: C5_6  and  N2_7 
REMARK       I    between atoms: N2_7  and  C6_8 
REMARK       I    between atoms: C6_8  and  N3_10 
REMARK    3  A    between atoms: N3_10  and  C7_11 
REMARK    4  A    between atoms: C10_17  and  C11_18 
ROOT
HETATM    1  C7  UNL     1      -3.650  49.431 -26.834  1.00  0.00     0.111 A 
HETATM    2  C8  UNL     1      -3.765  48.592 -25.731  1.00  0.00     0.080 A 
HETATM    3  C9  UNL     1      -3.049  48.994 -24.604  1.00  0.00     0.065 A 
HETATM    4  N4  UNL     1      -2.909  48.430 -23.368  1.00  0.00    -0.299 N 
HETATM    5  N5  UNL     1      -2.100  49.113 -22.543  1.00  0.00    -0.299 N 
ATOM      6  H5  UNL     1      -1.827  48.868 -21.592  1.00  0.00     0.187 HD
HETATM    7  C10 UNL     1      -1.731  50.195 -23.252  1.00  0.00     0.072 A 
HETATM    8  C17 UNL     1      -2.282  50.151 -24.570  1.00  0.00     0.036 A 
HETATM    9  C18 UNL     1      -2.211  50.925 -25.730  1.00  0.00     0.105 A 
HETATM   10  N6  UNL     1      -2.899  50.558 -26.844  1.00  0.00    -0.351 N 
ATOM     11  H6  UNL     1      -2.849  51.131 -27.687  1.00  0.00     0.166 HD
HETATM   12  H14 UNL     1      -3.337  47.578 -23.025  1.00  0.00     0.187 HD
ENDROOT
BRANCH   1  13
HETATM   13  N3  UNL     1      -4.288  49.195 -28.052  1.00  0.00    -0.295 N 
HETATM   14  C6  UNL     1      -5.281  48.296 -28.331  1.00  0.00     0.321 C 
HETATM   15  N2  UNL     1      -5.641  48.345 -29.663  1.00  0.00    -0.342 N 
HETATM   16  O1  UNL     1      -5.819  47.538 -27.535  1.00  0.00    -0.247 OA
HETATM   17  H11 UNL     1      -4.974  48.749 -30.303  1.00  0.00     0.164 HD
HETATM   18  H12 UNL     1      -4.031  49.867 -28.757  1.00  0.00     0.172 HD
BRANCH  15  19
HETATM   19  C5  UNL     1      -6.616  47.419 -30.211  1.00  0.00     0.130 C 
BRANCH  19  20
HETATM   20  C4  UNL     1      -6.188  46.859 -31.566  1.00  0.00     0.033 C 
HETATM   21  C3  UNL     1      -4.724  46.395 -31.614  1.00  0.00     0.038 C 
HETATM   22  C2  UNL     1      -4.167  46.956 -32.921  1.00  0.00     0.272 C 
HETATM   23  N1  UNL     1      -5.359  47.352 -33.671  1.00  0.00     0.084 N 
HETATM   24  C1  UNL     1      -5.063  48.291 -34.742  1.00  0.00     0.309 C 
HETATM   25  C19 UNL     1      -6.278  47.904 -32.673  1.00  0.00     0.278 C 
ENDBRANCH  19  20
ENDBRANCH  15  19
ENDBRANCH   1  13
BRANCH   7  26
HETATM   26  C11 UNL     1      -0.853  51.210 -22.664  1.00  0.00    -0.007 A 
HETATM   27  C12 UNL     1      -0.657  51.283 -21.277  1.00  0.00     0.017 A 
HETATM   28  C13 UNL     1       0.180  52.260 -20.733  1.00  0.00     0.043 A 
HETATM   29  C14 UNL     1       0.827  53.158 -21.575  1.00  0.00     0.116 A 
HETATM   30  F1  UNL     1       1.629  54.094 -21.050  1.00  0.00    -0.206 F 
HETATM   31  C15 UNL     1       0.661  53.093 -22.953  1.00  0.00     0.043 A 
HETATM   32  C16 UNL     1      -0.179  52.119 -23.498  1.00  0.00     0.017 A 
ENDBRANCH   7  26
TORSDOF 4
ENDMDL
MODEL 7
REMARK minimizedAffinity -8.61904049
REMARK  4 active torsions:
REMARK  status: ('A' for Active; 'I' for Inactive)
REMARK    1  A    between atoms: C4_5  and  C5_6 
REMARK    2  A    between atoms: C5_6  and  N2_7 
REMARK       I    between atoms: N2_7  and  C6_8 
REMARK       I    between atoms: C6_8  and  N3_10 
REMARK    3  A    between atoms: N3_10  and  C7_11 
REMARK    4  A    between atoms: C10_17  and  C11_18 
ROOT
HETATM    1  C7  UNL     1       0.677  52.541 -19.822  1.00  0.00     0.111 A 
HETATM    2  C8  UNL     1      -0.198  51.493 -20.085  1.00  0.00     0.080 A 
HETATM    3  C9  UNL     1      -0.492  51.291 -21.433  1.00  0.00     0.065 A 
HETATM    4  N4  UNL     1      -1.304  50.390 -22.061  1.00  0.00    -0.299 N 
HETATM    5  N5  UNL     1      -1.347  50.529 -23.395  1.00  0.00    -0.299 N 
ATOM      6  H5  UNL     1      -1.903  49.993 -24.061  1.00  0.00     0.187 HD
HETATM    7  C10 UNL     1      -0.492  51.533 -23.658  1.00  0.00     0.072 A 
HETATM    8  C17 UNL     1       0.052  52.066 -22.449  1.00  0.00     0.036 A 
HETATM    9  C18 UNL     1       0.911  53.108 -22.090  1.00  0.00     0.105 A 
HETATM   10  N6  UNL     1       1.215  53.329 -20.783  1.00  0.00    -0.351 N 
ATOM     11  H6  UNL     1       1.848  54.087 -20.528  1.00  0.00     0.166 HD
HETATM   12  H14 UNL     1      -1.859  49.656 -21.635  1.00  0.00     0.187 HD
ENDROOT
BRANCH   1  13
HETATM   13  N3  UNL     1       1.087  52.899 -18.537  1.00  0.00    -0.295 N 
HETATM   14  C6  UNL     1       0.900  52.219 -17.365  1.00  0.00     0.321 C 
HETATM   15  N2  UNL     1       1.435  52.909 -16.295  1.00  0.00    -0.342 N 
HETATM   16  O1  UNL     1       0.350  51.134 -17.235  1.00  0.00    -0.247 OA
HETATM   17  H11 UNL     1       1.589  53.898 -16.419  1.00  0.00     0.164 HD
HETATM   18  H12 UNL     1       1.684  53.710 -18.537  1.00  0.00     0.172 HD
BRANCH  15  19
HETATM   19  C5  UNL     1       1.280  52.422 -14.936  1.00  0.00     0.130 C 
BRANCH  19  20
HETATM   20  C4  UNL     1       2.401  51.468 -14.530  1.00  0.00     0.033 C 
HETATM   21  C3  UNL     1       1.966  49.996 -14.445  1.00  0.00     0.038 C 
HETATM   22  C2  UNL     1       2.562  49.476 -13.138  1.00  0.00     0.272 C 
HETATM   23  N1  UNL     1       3.549  50.493 -12.771  1.00  0.00     0.084 N 
HETATM   24  C1  UNL     1       3.925  50.429 -11.367  1.00  0.00     0.309 C 
HETATM   25  C19 UNL     1       2.938  51.773 -13.136  1.00  0.00     0.278 C 
ENDBRANCH  19  20
ENDBRANCH  15  19
ENDBRANCH   1  13
BRANCH   7  26
HETATM   26  C11 UNL     1      -0.245  51.963 -25.036  1.00  0.00    -0.007 A 
HETATM   27  C12 UNL     1      -0.064  51.028 -26.065  1.00  0.00     0.017 A 
HETATM   28  C13 UNL     1       0.175  51.456 -27.374  1.00  0.00     0.043 A 
HETATM   29  C14 UNL     1       0.224  52.816 -27.655  1.00  0.00     0.116 A 
HETATM   30  F1  UNL     1       0.453  53.223 -28.910  1.00  0.00    -0.206 F 
HETATM   31  C15 UNL     1       0.030  53.760 -26.653  1.00  0.00     0.043 A 
HETATM   32  C16 UNL     1      -0.205  53.334 -25.344  1.00  0.00     0.017 A 
ENDBRANCH   7  26
TORSDOF 4
ENDMDL
MODEL 8
REMARK minimizedAffinity -8.61638355
REMARK  4 active torsions:
REMARK  status: ('A' for Active; 'I' for Inactive)
REMARK    1  A    between atoms: C4_5  and  C5_6 
REMARK    2  A    between atoms: C5_6  and  N2_7 
REMARK       I    between atoms: N2_7  and  C6_8 
REMARK       I    between atoms: C6_8  and  N3_10 
REMARK    3  A    between atoms: N3_10  and  C7_11 
REMARK    4  A    between atoms: C10_17  and  C11_18 
ROOT
HETATM    1  C7  UNL     1       0.265  52.452 -21.602  1.00  0.00     0.111 A 
HETATM    2  C8  UNL     1       0.880  53.034 -22.705  1.00  0.00     0.080 A 
HETATM    3  C9  UNL     1       0.402  52.608 -23.943  1.00  0.00     0.065 A 
HETATM    4  N4  UNL     1       0.763  52.936 -25.219  1.00  0.00    -0.299 N 
HETATM    5  N5  UNL     1       0.075  52.282 -26.168  1.00  0.00    -0.299 N 
ATOM      6  H5  UNL     1       0.194  52.343 -27.179  1.00  0.00     0.187 HD
HETATM    7  C10 UNL     1      -0.806  51.528 -25.488  1.00  0.00     0.072 A 
HETATM    8  C17 UNL     1      -0.621  51.678 -24.078  1.00  0.00     0.036 A 
HETATM    9  C18 UNL     1      -1.169  51.134 -22.915  1.00  0.00     0.105 A 
HETATM   10  N6  UNL     1      -0.723  51.531 -21.693  1.00  0.00    -0.351 N 
ATOM     11  H6  UNL     1      -1.133  51.135 -20.847  1.00  0.00     0.166 HD
HETATM   12  H14 UNL     1       1.475  53.596 -25.509  1.00  0.00     0.187 HD
ENDROOT
BRANCH   1  13
HETATM   13  N3  UNL     1       0.608  52.749 -20.283  1.00  0.00    -0.295 N 
HETATM   14  C6  UNL     1       0.350  52.021 -19.153  1.00  0.00     0.321 C 
HETATM   15  N2  UNL     1       0.834  52.657 -18.027  1.00  0.00    -0.342 N 
HETATM   16  O1  UNL     1      -0.220  50.940 -19.100  1.00  0.00    -0.247 OA
HETATM   17  H11 UNL     1       1.007  53.648 -18.099  1.00  0.00     0.164 HD
HETATM   18  H12 UNL     1       1.215  53.550 -20.215  1.00  0.00     0.172 HD
BRANCH  15  19
HETATM   19  C5  UNL     1       0.600  52.114 -16.701  1.00  0.00     0.130 C 
BRANCH  19  20
HETATM   20  C4  UNL     1       1.764  52.381 -15.750  1.00  0.00     0.033 C 
HETATM   21  C3  UNL     1       3.068  52.781 -16.458  1.00  0.00     0.038 C 
HETATM   22  C2  UNL     1       4.162  51.956 -15.783  1.00  0.00     0.272 C 
HETATM   23  N1  UNL     1       3.525  51.457 -14.563  1.00  0.00     0.084 N 
HETATM   24  C1  UNL     1       4.224  50.316 -13.992  1.00  0.00     0.309 C 
HETATM   25  C19 UNL     1       2.148  51.142 -14.948  1.00  0.00     0.278 C 
ENDBRANCH  19  20
ENDBRANCH  15  19
ENDBRANCH   1  13
BRANCH   7  26
HETATM   26  C11 UNL     1      -1.768  50.680 -26.196  1.00  0.00    -0.007 A 
HETATM   27  C12 UNL     1      -2.117  49.414 -25.703  1.00  0.00     0.017 A 
HETATM   28  C13 UNL     1      -3.033  48.616 -26.394  1.00  0.00     0.043 A 
HETATM   29  C14 UNL     1      -3.605  49.086 -27.570  1.00  0.00     0.116 A 
HETATM   30  F1  UNL     1      -4.483  48.319 -28.229  1.00  0.00    -0.206 F 
HETATM   31  C15 UNL     1      -3.287  50.345 -28.066  1.00  0.00     0.043 A 
HETATM   32  C16 UNL     1      -2.369  51.142 -27.379  1.00  0.00     0.017 A 
ENDBRANCH   7  26
TORSDOF 4
ENDMDL
MODEL 9
REMARK minimizedAffinity -8.50268364
REMARK  4 active torsions:
REMARK  status: ('A' for Active; 'I' for Inactive)
REMARK    1  A    between atoms: C4_5  and  C5_6 
REMARK    2  A    between atoms: C5_6  and  N2_7 
REMARK       I    between atoms: N2_7  and  C6_8 
REMARK       I    between atoms: C6_8  and  N3_10 
REMARK    3  A    between atoms: N3_10  and  C7_11 
REMARK    4  A    between atoms: C10_17  and  C11_18 
ROOT
HETATM    1  C7  UNL     1      -3.368  50.002 -25.815  1.00  0.00     0.111 A 
HETATM    2  C8  UNL     1      -2.238  50.424 -26.507  1.00  0.00     0.080 A 
HETATM    3  C9  UNL     1      -1.256  51.029 -25.725  1.00  0.00     0.065 A 
HETATM    4  N4  UNL     1      -0.044  51.572 -26.046  1.00  0.00    -0.299 N 
HETATM    5  N5  UNL     1       0.617  52.094 -25.001  1.00  0.00    -0.299 N 
ATOM      6  H5  UNL     1       1.517  52.573 -25.007  1.00  0.00     0.187 HD
HETATM    7  C10 UNL     1      -0.173  51.842 -23.942  1.00  0.00     0.072 A 
HETATM    8  C17 UNL     1      -1.381  51.196 -24.352  1.00  0.00     0.036 A 
HETATM    9  C18 UNL     1      -2.559  50.757 -23.743  1.00  0.00     0.105 A 
HETATM   10  N6  UNL     1      -3.534  50.162 -24.481  1.00  0.00    -0.351 N 
ATOM     11  H6  UNL     1      -4.388  49.836 -24.030  1.00  0.00     0.166 HD
HETATM   12  H14 UNL     1       0.388  51.620 -26.961  1.00  0.00     0.187 HD
ENDROOT
BRANCH   1  13
HETATM   13  N3  UNL     1      -4.457  49.379 -26.425  1.00  0.00    -0.295 N 
HETATM   14  C6  UNL     1      -4.459  48.522 -27.491  1.00  0.00     0.321 C 
HETATM   15  N2  UNL     1      -5.742  48.130 -27.817  1.00  0.00    -0.342 N 
HETATM   16  O1  UNL     1      -3.477  48.117 -28.099  1.00  0.00    -0.247 OA
HETATM   17  H11 UNL     1      -6.496  48.717 -27.494  1.00  0.00     0.164 HD
HETATM   18  H12 UNL     1      -5.315  49.520 -25.916  1.00  0.00     0.172 HD
BRANCH  15  19
HETATM   19  C5  UNL     1      -5.998  47.288 -28.972  1.00  0.00     0.130 C 
BRANCH  19  20
HETATM   20  C4  UNL     1      -6.212  48.102 -30.247  1.00  0.00     0.033 C 
HETATM   21  C3  UNL     1      -7.610  47.938 -30.863  1.00  0.00     0.038 C 
HETATM   22  C2  UNL     1      -7.370  47.742 -32.358  1.00  0.00     0.272 C 
HETATM   23  N1  UNL     1      -5.980  48.158 -32.550  1.00  0.00     0.084 N 
HETATM   24  C1  UNL     1      -5.409  47.657 -33.791  1.00  0.00     0.309 C 
HETATM   25  C19 UNL     1      -5.266  47.677 -31.365  1.00  0.00     0.278 C 
ENDBRANCH  19  20
ENDBRANCH  15  19
ENDBRANCH   1  13
BRANCH   7  26
HETATM   26  C11 UNL     1       0.233  52.244 -22.593  1.00  0.00    -0.007 A 
HETATM   27  C12 UNL     1       0.958  53.425 -22.378  1.00  0.00     0.017 A 
HETATM   28  C13 UNL     1       1.341  53.791 -21.085  1.00  0.00     0.043 A 
HETATM   29  C14 UNL     1       0.993  52.983 -20.009  1.00  0.00     0.116 A 
HETATM   30  F1  UNL     1       1.362  53.337 -18.771  1.00  0.00    -0.206 F 
HETATM   31  C15 UNL     1       0.260  51.817 -20.198  1.00  0.00     0.043 A 
HETATM   32  C16 UNL     1      -0.121  51.448 -21.491  1.00  0.00     0.017 A 
ENDBRANCH   7  26
TORSDOF 4
ENDMDL
