MODEL 1
REMARK minimizedAffinity -10.1733761
REMARK  6 active torsions:
REMARK  status: ('A' for Active; 'I' for Inactive)
REMARK    1  A    between atoms: O1_2  and  C2_3 
REMARK    2  A    between atoms: C7_9  and  C8_10 
REMARK    3  A    between atoms: C8_10  and  N1_11 
REMARK    4  A    between atoms: C12_15  and  N2_16 
REMARK       I    between atoms: N2_16  and  C13_17 
REMARK       I    between atoms: C13_17  and  N3_19 
REMARK    5  A    between atoms: N3_19  and  C14_20 
REMARK    6  A    between atoms: C17_26  and  C18_27 
ROOT
HETATM    1  N2  UNL     1       0.373  51.816 -16.763  1.00  0.00    -0.337 N 
HETATM    2  C13 UNL     1       0.859  52.272 -17.978  1.00  0.00     0.322 C 
HETATM    3  O2  UNL     1       1.894  52.916 -18.069  1.00  0.00    -0.247 OA
HETATM    4  N3  UNL     1       0.036  51.855 -19.000  1.00  0.00    -0.295 N 
HETATM    5  H16 UNL     1      -0.631  51.763 -16.701  1.00  0.00     0.164 HD
HETATM    6  H17 UNL     1      -0.579  51.091 -18.778  1.00  0.00     0.172 HD
ENDROOT
BRANCH   4   7
HETATM    7  C14 UNL     1       0.189  52.190 -20.353  1.00  0.00     0.111 A 
HETATM    8  C15 UNL     1       0.866  53.375 -20.635  1.00  0.00     0.080 A 
HETATM    9  C16 UNL     1       0.992  53.690 -21.990  1.00  0.00     0.065 A 
HETATM   10  N4  UNL     1       1.550  54.756 -22.639  1.00  0.00    -0.299 N 
HETATM   11  C23 UNL     1       0.498  52.872 -22.997  1.00  0.00     0.036 A 
HETATM   12  N5  UNL     1       1.451  54.701 -23.976  1.00  0.00    -0.299 N 
HETATM   13  H19 UNL     1       2.013  55.559 -22.231  1.00  0.00     0.187 HD
HETATM   14  C17 UNL     1       0.820  53.541 -24.218  1.00  0.00     0.072 A 
ATOM     15  H5  UNL     1       1.782  55.387 -24.656  1.00  0.00     0.187 HD
HETATM   16  C24 UNL     1      -0.159  51.699 -22.625  1.00  0.00     0.105 A 
HETATM   17  N7  UNL     1      -0.287  51.375 -21.311  1.00  0.00    -0.351 N 
ATOM     18  H7  UNL     1      -0.750  50.505 -21.049  1.00  0.00     0.166 HD
BRANCH  14  19
HETATM   19  C18 UNL     1       0.542  53.122 -25.589  1.00  0.00    -0.001 A 
HETATM   20  C19 UNL     1       1.031  51.914 -26.093  1.00  0.00     0.031 A 
HETATM   21  C20 UNL     1       0.738  51.583 -27.405  1.00  0.00     0.091 A 
HETATM   22  N6  UNL     1       0.006  52.357 -28.231  1.00  0.00    -0.343 N 
HETATM   23  C21 UNL     1      -0.447  53.523 -27.721  1.00  0.00     0.189 A 
ATOM     24  H6  UNL     1      -0.196  52.077 -29.190  1.00  0.00     0.167 HD
HETATM   25  F2  UNL     1      -1.175  54.306 -28.525  1.00  0.00    -0.186 F 
HETATM   26  C22 UNL     1      -0.208  53.946 -26.429  1.00  0.00     0.075 A 
ENDBRANCH  14  19
ENDBRANCH   4   7
BRANCH   1  27
HETATM   27  C12 UNL     1       1.066  52.156 -15.518  1.00  0.00     0.114 C 
HETATM   28  C11 UNL     1       2.411  51.425 -15.472  1.00  0.00     0.029 C 
HETATM   29  C10 UNL     1       3.110  51.661 -14.138  1.00  0.00     0.032 C 
HETATM   30  C9  UNL     1       2.206  51.282 -12.963  1.00  0.00     0.273 C 
HETATM   31  N1  UNL     1       0.950  52.028 -13.018  1.00  0.00     0.094 N 
HETATM   32  C25 UNL     1       0.215  51.815 -14.269  1.00  0.00     0.297 C 
BRANCH  31  33
HETATM   33  C8  UNL     1       0.112  51.864 -11.818  1.00  0.00     0.317 C 
BRANCH  33  34
HETATM   34  C7  UNL     1      -0.435  53.120 -11.168  1.00  0.00     0.042 A 
HETATM   35  C2  UNL     1      -1.815  53.330 -10.974  1.00  0.00     0.079 A 
HETATM   36  C3  UNL     1      -2.261  54.511 -10.366  1.00  0.00     0.037 A 
HETATM   37  C4  UNL     1      -1.353  55.493  -9.961  1.00  0.00     0.006 A 
HETATM   38  C5  UNL     1       0.007  55.300 -10.163  1.00  0.00     0.043 A 
HETATM   39  C6  UNL     1       0.453  54.127 -10.763  1.00  0.00     0.127 A 
HETATM   40  F1  UNL     1       1.773  53.977 -10.951  1.00  0.00    -0.205 F 
BRANCH  35  41
HETATM   41  O1  UNL     1      -2.642  52.329 -11.411  1.00  0.00    -0.355 OA
HETATM   42  C1  UNL     1      -3.747  52.686 -12.231  1.00  0.00     0.210 C 
ENDBRANCH  35  41
ENDBRANCH  33  34
ENDBRANCH  31  33
ENDBRANCH   1  27
TORSDOF 6
ENDMDL
MODEL 2
REMARK minimizedAffinity -10.1385012
REMARK  6 active torsions:
REMARK  status: ('A' for Active; 'I' for Inactive)
REMARK    1  A    between atoms: O1_2  and  C2_3 
REMARK    2  A    between atoms: C7_9  and  C8_10 
REMARK    3  A    between atoms: C8_10  and  N1_11 
REMARK    4  A    between atoms: C12_15  and  N2_16 
REMARK       I    between atoms: N2_16  and  C13_17 
REMARK       I    between atoms: C13_17  and  N3_19 
REMARK    5  A    between atoms: N3_19  and  C14_20 
REMARK    6  A    between atoms: C17_26  and  C18_27 
ROOT
HETATM    1  N2  UNL     1       0.733  52.046 -16.347  1.00  0.00    -0.337 N 
HETATM    2  C13 UNL     1       0.439  51.832 -17.684  1.00  0.00     0.322 C 
HETATM    3  O2  UNL     1      -0.186  50.855 -18.069  1.00  0.00    -0.247 OA
HETATM    4  N3  UNL     1       0.914  52.879 -18.443  1.00  0.00    -0.295 N 
HETATM    5  H16 UNL     1       1.602  52.526 -16.175  1.00  0.00     0.164 HD
HETATM    6  H17 UNL     1       1.120  53.723 -17.937  1.00  0.00     0.172 HD
ENDROOT
BRANCH   4   7
HETATM    7  C14 UNL     1       0.850  52.962 -19.841  1.00  0.00     0.111 A 
HETATM    8  C15 UNL     1       1.422  54.088 -20.432  1.00  0.00     0.080 A 
HETATM    9  C16 UNL     1       1.332  54.150 -21.825  1.00  0.00     0.065 A 
HETATM   10  N4  UNL     1       1.738  55.088 -22.732  1.00  0.00    -0.299 N 
HETATM   11  C23 UNL     1       0.734  53.150 -22.581  1.00  0.00     0.036 A 
HETATM   12  N5  UNL     1       1.446  54.786 -24.006  1.00  0.00    -0.299 N 
HETATM   13  H19 UNL     1       2.218  55.961 -22.550  1.00  0.00     0.187 HD
HETATM   14  C17 UNL     1       0.842  53.589 -23.936  1.00  0.00     0.072 A 
ATOM     15  H5  UNL     1       1.640  55.340 -24.841  1.00  0.00     0.187 HD
HETATM   16  C24 UNL     1       0.195  52.054 -21.908  1.00  0.00     0.105 A 
HETATM   17  N7  UNL     1       0.277  51.976 -20.554  1.00  0.00    -0.351 N 
ATOM     18  H7  UNL     1      -0.101  51.159 -20.072  1.00  0.00     0.166 HD
BRANCH  14  19
HETATM   19  C18 UNL     1       0.385  52.919 -25.151  1.00  0.00    -0.001 A 
HETATM   20  C19 UNL     1       0.306  51.526 -25.226  1.00  0.00     0.031 A 
HETATM   21  C20 UNL     1      -0.126  50.956 -26.412  1.00  0.00     0.091 A 
HETATM   22  N6  UNL     1      -0.478  51.665 -27.503  1.00  0.00    -0.343 N 
HETATM   23  C21 UNL     1      -0.383  53.008 -27.406  1.00  0.00     0.189 A 
ATOM     24  H6  UNL     1      -0.799  51.210 -28.358  1.00  0.00     0.167 HD
HETATM   25  F2  UNL     1      -0.727  53.730 -28.479  1.00  0.00    -0.186 F 
HETATM   26  C22 UNL     1       0.038  53.673 -26.272  1.00  0.00     0.075 A 
ENDBRANCH  14  19
ENDBRANCH   4   7
BRANCH   1  27
HETATM   27  C12 UNL     1       0.352  51.051 -15.341  1.00  0.00     0.114 C 
HETATM   28  C11 UNL     1       0.680  49.650 -15.865  1.00  0.00     0.029 C 
HETATM   29  C10 UNL     1       0.190  48.581 -14.896  1.00  0.00     0.032 C 
HETATM   30  C9  UNL     1      -1.300  48.750 -14.591  1.00  0.00     0.273 C 
HETATM   31  N1  UNL     1      -1.569  50.083 -14.056  1.00  0.00     0.094 N 
HETATM   32  C25 UNL     1      -1.146  51.157 -14.962  1.00  0.00     0.297 C 
BRANCH  31  33
HETATM   33  C8  UNL     1      -2.944  50.254 -13.556  1.00  0.00     0.317 C 
BRANCH  33  34
HETATM   34  C7  UNL     1      -3.151  51.192 -12.383  1.00  0.00     0.042 A 
HETATM   35  C2  UNL     1      -2.940  50.790 -11.049  1.00  0.00     0.079 A 
HETATM   36  C3  UNL     1      -3.148  51.702 -10.005  1.00  0.00     0.037 A 
HETATM   37  C4  UNL     1      -3.574  53.006 -10.271  1.00  0.00     0.006 A 
HETATM   38  C5  UNL     1      -3.799  53.405 -11.582  1.00  0.00     0.043 A 
HETATM   39  C6  UNL     1      -3.591  52.502 -12.620  1.00  0.00     0.127 A 
HETATM   40  F1  UNL     1      -3.826  52.918 -13.874  1.00  0.00    -0.205 F 
BRANCH  35  41
HETATM   41  O1  UNL     1      -2.537  49.493 -10.869  1.00  0.00    -0.355 OA
HETATM   42  C1  UNL     1      -1.542  49.234  -9.888  1.00  0.00     0.210 C 
ENDBRANCH  35  41
ENDBRANCH  33  34
ENDBRANCH  31  33
ENDBRANCH   1  27
TORSDOF 6
ENDMDL
MODEL 3
REMARK minimizedAffinity -10.035429
REMARK  6 active torsions:
REMARK  status: ('A' for Active; 'I' for Inactive)
REMARK    1  A    between atoms: O1_2  and  C2_3 
REMARK    2  A    between atoms: C7_9  and  C8_10 
REMARK    3  A    between atoms: C8_10  and  N1_11 
REMARK    4  A    between atoms: C12_15  and  N2_16 
REMARK       I    between atoms: N2_16  and  C13_17 
REMARK       I    between atoms: C13_17  and  N3_19 
REMARK    5  A    between atoms: N3_19  and  C14_20 
REMARK    6  A    between atoms: C17_26  and  C18_27 
ROOT
HETATM    1  N2  UNL     1       1.508  52.949 -16.191  1.00  0.00    -0.337 N 
HETATM    2  C13 UNL     1       1.049  52.342 -17.350  1.00  0.00     0.322 C 
HETATM    3  O2  UNL     1       0.650  51.187 -17.370  1.00  0.00    -0.247 OA
HETATM    4  N3  UNL     1       1.085  53.238 -18.396  1.00  0.00    -0.295 N 
HETATM    5  H16 UNL     1       2.232  53.635 -16.330  1.00  0.00     0.164 HD
HETATM    6  H17 UNL     1       1.145  54.206 -18.135  1.00  0.00     0.172 HD
ENDROOT
BRANCH   4   7
HETATM    7  C14 UNL     1       0.756  52.944 -19.727  1.00  0.00     0.111 A 
HETATM    8  C15 UNL     1      -0.284  52.039 -19.933  1.00  0.00     0.080 A 
HETATM    9  C16 UNL     1      -0.581  51.755 -21.268  1.00  0.00     0.065 A 
HETATM   10  N4  UNL     1      -1.490  50.917 -21.850  1.00  0.00    -0.299 N 
HETATM   11  C23 UNL     1       0.095  52.347 -22.327  1.00  0.00     0.036 A 
HETATM   12  N5  UNL     1      -1.454  50.909 -23.192  1.00  0.00    -0.299 N 
HETATM   13  H19 UNL     1      -2.165  50.317 -21.391  1.00  0.00     0.187 HD
HETATM   14  C17 UNL     1      -0.495  51.795 -23.505  1.00  0.00     0.072 A 
ATOM     15  H5  UNL     1      -2.027  50.356 -23.829  1.00  0.00     0.187 HD
HETATM   16  C24 UNL     1       1.117  53.248 -22.029  1.00  0.00     0.105 A 
HETATM   17  N7  UNL     1       1.416  53.539 -20.736  1.00  0.00    -0.351 N 
ATOM     18  H7  UNL     1       2.151  54.216 -20.528  1.00  0.00     0.166 HD
BRANCH  14  19
HETATM   19  C18 UNL     1      -0.173  52.073 -24.902  1.00  0.00    -0.001 A 
HETATM   20  C19 UNL     1       0.209  51.052 -25.777  1.00  0.00     0.031 A 
HETATM   21  C20 UNL     1       0.510  51.387 -27.086  1.00  0.00     0.091 A 
HETATM   22  N6  UNL     1       0.456  52.644 -27.572  1.00  0.00    -0.343 N 
HETATM   23  C21 UNL     1       0.093  53.612 -26.704  1.00  0.00     0.189 A 
ATOM     24  H6  UNL     1       0.678  52.852 -28.546  1.00  0.00     0.167 HD
HETATM   25  F2  UNL     1       0.035  54.866 -27.167  1.00  0.00    -0.186 F 
HETATM   26  C22 UNL     1      -0.224  53.383 -25.380  1.00  0.00     0.075 A 
ENDBRANCH  14  19
ENDBRANCH   4   7
BRANCH   1  27
HETATM   27  C12 UNL     1       1.589  52.187 -14.943  1.00  0.00     0.114 C 
HETATM   28  C11 UNL     1       2.063  50.763 -15.250  1.00  0.00     0.029 C 
HETATM   29  C10 UNL     1       2.047  49.904 -13.990  1.00  0.00     0.032 C 
HETATM   30  C9  UNL     1       0.671  49.925 -13.321  1.00  0.00     0.273 C 
HETATM   31  N1  UNL     1       0.271  51.295 -13.007  1.00  0.00     0.094 N 
HETATM   32  C25 UNL     1       0.236  52.164 -14.189  1.00  0.00     0.297 C 
BRANCH  31  33
HETATM   33  C8  UNL     1      -0.950  51.382 -12.188  1.00  0.00     0.317 C 
BRANCH  33  34
HETATM   34  C7  UNL     1      -1.216  52.687 -11.464  1.00  0.00     0.042 A 
HETATM   35  C2  UNL     1      -2.520  53.179 -11.251  1.00  0.00     0.079 A 
HETATM   36  C3  UNL     1      -2.705  54.392 -10.574  1.00  0.00     0.037 A 
HETATM   37  C4  UNL     1      -1.609  55.129 -10.118  1.00  0.00     0.006 A 
HETATM   38  C5  UNL     1      -0.321  54.659 -10.339  1.00  0.00     0.043 A 
HETATM   39  C6  UNL     1      -0.135  53.454 -11.007  1.00  0.00     0.127 A 
HETATM   40  F1  UNL     1       1.123  53.033 -11.211  1.00  0.00    -0.205 F 
BRANCH  35  41
HETATM   41  O1  UNL     1      -3.541  52.407 -11.740  1.00  0.00    -0.355 OA
HETATM   42  C1  UNL     1      -4.121  51.441 -10.874  1.00  0.00     0.210 C 
ENDBRANCH  35  41
ENDBRANCH  33  34
ENDBRANCH  31  33
ENDBRANCH   1  27
TORSDOF 6
ENDMDL
MODEL 4
REMARK minimizedAffinity -10.0162201
REMARK  6 active torsions:
REMARK  status: ('A' for Active; 'I' for Inactive)
REMARK    1  A    between atoms: O1_2  and  C2_3 
REMARK    2  A    between atoms: C7_9  and  C8_10 
REMARK    3  A    between atoms: C8_10  and  N1_11 
REMARK    4  A    between atoms: C12_15  and  N2_16 
REMARK       I    between atoms: N2_16  and  C13_17 
REMARK       I    between atoms: C13_17  and  N3_19 
REMARK    5  A    between atoms: N3_19  and  C14_20 
REMARK    6  A    between atoms: C17_26  and  C18_27 
ROOT
HETATM    1  N2  UNL     1      -5.184  48.577 -26.738  1.00  0.00    -0.337 N 
HETATM    2  C13 UNL     1      -5.118  48.276 -28.090  1.00  0.00     0.322 C 
HETATM    3  O2  UNL     1      -4.057  48.091 -28.668  1.00  0.00    -0.247 OA
HETATM    4  N3  UNL     1      -6.388  48.189 -28.614  1.00  0.00    -0.295 N 
HETATM    5  H16 UNL     1      -5.953  49.172 -26.473  1.00  0.00     0.164 HD
HETATM    6  H17 UNL     1      -7.127  48.065 -27.944  1.00  0.00     0.172 HD
ENDROOT
BRANCH   4   7
HETATM    7  C14 UNL     1      -6.695  47.965 -29.964  1.00  0.00     0.111 A 
HETATM    8  C15 UNL     1      -5.639  48.043 -30.871  1.00  0.00     0.080 A 
HETATM    9  C16 UNL     1      -5.976  47.829 -32.209  1.00  0.00     0.065 A 
HETATM   10  N4  UNL     1      -5.237  47.853 -33.359  1.00  0.00    -0.299 N 
HETATM   11  C23 UNL     1      -7.270  47.535 -32.617  1.00  0.00     0.036 A 
HETATM   12  N5  UNL     1      -5.944  47.610 -34.474  1.00  0.00    -0.299 N 
HETATM   13  H19 UNL     1      -4.245  48.033 -33.457  1.00  0.00     0.187 HD
HETATM   14  C17 UNL     1      -7.195  47.397 -34.037  1.00  0.00     0.072 A 
ATOM     15  H5  UNL     1      -5.606  47.592 -35.437  1.00  0.00     0.187 HD
HETATM   16  C24 UNL     1      -8.265  47.468 -31.641  1.00  0.00     0.105 A 
HETATM   17  N7  UNL     1      -7.954  47.670 -30.334  1.00  0.00    -0.351 N 
ATOM     18  H7  UNL     1      -8.684  47.597 -29.625  1.00  0.00     0.166 HD
BRANCH  14  19
HETATM   19  C18 UNL     1      -8.264  47.080 -34.981  1.00  0.00    -0.001 A 
HETATM   20  C19 UNL     1      -9.341  46.270 -34.613  1.00  0.00     0.031 A 
HETATM   21  C20 UNL     1     -10.315  46.002 -35.561  1.00  0.00     0.091 A 
HETATM   22  N6  UNL     1     -10.288  46.478 -36.822  1.00  0.00    -0.343 N 
HETATM   23  C21 UNL     1      -9.232  47.252 -37.153  1.00  0.00     0.189 A 
ATOM     24  H6  UNL     1     -11.028  46.265 -37.491  1.00  0.00     0.167 HD
HETATM   25  F2  UNL     1      -9.187  47.733 -38.400  1.00  0.00    -0.186 F 
HETATM   26  C22 UNL     1      -8.209  47.575 -36.284  1.00  0.00     0.075 A 
ENDBRANCH  14  19
ENDBRANCH   4   7
BRANCH   1  27
HETATM   27  C12 UNL     1      -3.954  48.749 -25.961  1.00  0.00     0.114 C 
HETATM   28  C11 UNL     1      -4.227  48.394 -24.497  1.00  0.00     0.029 C 
HETATM   29  C10 UNL     1      -3.001  48.674 -23.634  1.00  0.00     0.032 C 
HETATM   30  C9  UNL     1      -2.525  50.118 -23.800  1.00  0.00     0.273 C 
HETATM   31  N1  UNL     1      -2.236  50.408 -25.202  1.00  0.00     0.094 N 
HETATM   32  C25 UNL     1      -3.391  50.188 -26.080  1.00  0.00     0.297 C 
BRANCH  31  33
HETATM   33  C8  UNL     1      -1.587  51.713 -25.416  1.00  0.00     0.317 C 
BRANCH  33  34
HETATM   34  C7  UNL     1      -0.221  51.718 -26.073  1.00  0.00     0.042 A 
HETATM   35  C2  UNL     1       0.965  51.946 -25.345  1.00  0.00     0.079 A 
HETATM   36  C3  UNL     1       2.200  51.938 -26.007  1.00  0.00     0.037 A 
HETATM   37  C4  UNL     1       2.271  51.717 -27.384  1.00  0.00     0.006 A 
HETATM   38  C5  UNL     1       1.106  51.506 -28.110  1.00  0.00     0.043 A 
HETATM   39  C6  UNL     1      -0.121  51.511 -27.455  1.00  0.00     0.127 A 
HETATM   40  F1  UNL     1      -1.227  51.312 -28.188  1.00  0.00    -0.205 F 
BRANCH  35  41
HETATM   41  O1  UNL     1       0.812  52.170 -24.002  1.00  0.00    -0.355 OA
HETATM   42  C1  UNL     1       0.869  53.511 -23.537  1.00  0.00     0.210 C 
ENDBRANCH  35  41
ENDBRANCH  33  34
ENDBRANCH  31  33
ENDBRANCH   1  27
TORSDOF 6
ENDMDL
MODEL 5
REMARK minimizedAffinity -9.97454453
REMARK  6 active torsions:
REMARK  status: ('A' for Active; 'I' for Inactive)
REMARK    1  A    between atoms: O1_2  and  C2_3 
REMARK    2  A    between atoms: C7_9  and  C8_10 
REMARK    3  A    between atoms: C8_10  and  N1_11 
REMARK    4  A    between atoms: C12_15  and  N2_16 
REMARK       I    between atoms: N2_16  and  C13_17 
REMARK       I    between atoms: C13_17  and  N3_19 
REMARK    5  A    between atoms: N3_19  and  C14_20 
REMARK    6  A    between atoms: C17_26  and  C18_27 
ROOT
HETATM    1  N2  UNL     1       1.459  52.972 -16.159  1.00  0.00    -0.337 N 
HETATM    2  C13 UNL     1       0.980  52.372 -17.313  1.00  0.00     0.322 C 
HETATM    3  O2  UNL     1       0.484  51.255 -17.313  1.00  0.00    -0.247 OA
HETATM    4  N3  UNL     1       1.119  53.230 -18.381  1.00  0.00    -0.295 N 
HETATM    5  H16 UNL     1       2.244  53.589 -16.296  1.00  0.00     0.164 HD
HETATM    6  H17 UNL     1       1.255  54.197 -18.146  1.00  0.00     0.172 HD
ENDROOT
BRANCH   4   7
HETATM    7  C14 UNL     1       0.800  52.926 -19.713  1.00  0.00     0.111 A 
HETATM    8  C15 UNL     1      -0.107  51.888 -19.921  1.00  0.00     0.080 A 
HETATM    9  C16 UNL     1      -0.397  51.599 -21.257  1.00  0.00     0.065 A 
HETATM   10  N4  UNL     1      -1.193  50.655 -21.842  1.00  0.00    -0.299 N 
HETATM   11  C23 UNL     1       0.161  52.307 -22.313  1.00  0.00     0.036 A 
HETATM   12  N5  UNL     1      -1.193  50.687 -23.184  1.00  0.00    -0.299 N 
HETATM   13  H19 UNL     1      -1.765  49.955 -21.385  1.00  0.00     0.187 HD
HETATM   14  C17 UNL     1      -0.376  51.708 -23.493  1.00  0.00     0.072 A 
ATOM     15  H5  UNL     1      -1.698  50.074 -23.824  1.00  0.00     0.187 HD
HETATM   16  C24 UNL     1       1.053  53.337 -22.013  1.00  0.00     0.105 A 
HETATM   17  N7  UNL     1       1.342  53.634 -20.719  1.00  0.00    -0.351 N 
ATOM     18  H7  UNL     1       1.979  54.403 -20.508  1.00  0.00     0.166 HD
BRANCH  14  19
HETATM   19  C18 UNL     1      -0.134  52.064 -24.889  1.00  0.00    -0.001 A 
HETATM   20  C19 UNL     1       0.096  51.084 -25.859  1.00  0.00     0.031 A 
HETATM   21  C20 UNL     1       0.328  51.493 -27.161  1.00  0.00     0.091 A 
HETATM   22  N6  UNL     1       0.346  52.782 -27.554  1.00  0.00    -0.343 N 
HETATM   23  C21 UNL     1       0.130  53.708 -26.595  1.00  0.00     0.189 A 
ATOM     24  H6  UNL     1       0.514  53.045 -28.525  1.00  0.00     0.167 HD
HETATM   25  F2  UNL     1       0.145  54.994 -26.964  1.00  0.00    -0.186 F 
HETATM   26  C22 UNL     1      -0.108  53.406 -25.269  1.00  0.00     0.075 A 
ENDBRANCH  14  19
ENDBRANCH   4   7
BRANCH   1  27
HETATM   27  C12 UNL     1       1.444  52.242 -14.889  1.00  0.00     0.114 C 
HETATM   28  C11 UNL     1       2.426  51.070 -14.967  1.00  0.00     0.029 C 
HETATM   29  C10 UNL     1       2.352  50.217 -13.706  1.00  0.00     0.032 C 
HETATM   30  C9  UNL     1       0.919  49.754 -13.432  1.00  0.00     0.273 C 
HETATM   31  N1  UNL     1       0.020  50.900 -13.324  1.00  0.00     0.094 N 
HETATM   32  C25 UNL     1       0.023  51.744 -14.525  1.00  0.00     0.297 C 
BRANCH  31  33
HETATM   33  C8  UNL     1      -1.336  50.548 -12.869  1.00  0.00     0.317 C 
BRANCH  33  34
HETATM   34  C7  UNL     1      -2.119  51.605 -12.115  1.00  0.00     0.042 A 
HETATM   35  C2  UNL     1      -1.843  51.934 -10.773  1.00  0.00     0.079 A 
HETATM   36  C3  UNL     1      -2.601  52.922 -10.128  1.00  0.00     0.037 A 
HETATM   37  C4  UNL     1      -3.638  53.577 -10.797  1.00  0.00     0.006 A 
HETATM   38  C5  UNL     1      -3.926  53.246 -12.115  1.00  0.00     0.043 A 
HETATM   39  C6  UNL     1      -3.173  52.269 -12.758  1.00  0.00     0.127 A 
HETATM   40  F1  UNL     1      -3.484  51.968 -14.028  1.00  0.00    -0.205 F 
BRANCH  35  41
HETATM   41  O1  UNL     1      -0.821  51.239 -10.181  1.00  0.00    -0.355 OA
HETATM   42  C1  UNL     1       0.356  51.952  -9.830  1.00  0.00     0.210 C 
ENDBRANCH  35  41
ENDBRANCH  33  34
ENDBRANCH  31  33
ENDBRANCH   1  27
TORSDOF 6
ENDMDL
MODEL 6
REMARK minimizedAffinity -9.90553284
REMARK  6 active torsions:
REMARK  status: ('A' for Active; 'I' for Inactive)
REMARK    1  A    between atoms: O1_2  and  C2_3 
REMARK    2  A    between atoms: C7_9  and  C8_10 
REMARK    3  A    between atoms: C8_10  and  N1_11 
REMARK    4  A    between atoms: C12_15  and  N2_16 
REMARK       I    between atoms: N2_16  and  C13_17 
REMARK       I    between atoms: C13_17  and  N3_19 
REMARK    5  A    between atoms: N3_19  and  C14_20 
REMARK    6  A    between atoms: C17_26  and  C18_27 
ROOT
HETATM    1  N2  UNL     1      -0.046  51.098 -16.777  1.00  0.00    -0.337 N 
HETATM    2  C13 UNL     1       0.333  51.703 -17.966  1.00  0.00     0.322 C 
HETATM    3  O2  UNL     1       1.119  52.638 -18.002  1.00  0.00    -0.247 OA
HETATM    4  N3  UNL     1      -0.268  51.067 -19.029  1.00  0.00    -0.295 N 
HETATM    5  H16 UNL     1      -0.985  50.734 -16.768  1.00  0.00     0.164 HD
HETATM    6  H17 UNL     1      -0.624  50.147 -18.839  1.00  0.00     0.172 HD
ENDROOT
BRANCH   4   7
HETATM    7  C14 UNL     1      -0.160  51.456 -20.372  1.00  0.00     0.111 A 
HETATM    8  C15 UNL     1       0.570  52.613 -20.636  1.00  0.00     0.080 A 
HETATM    9  C16 UNL     1       0.649  52.984 -21.981  1.00  0.00     0.065 A 
HETATM   10  N4  UNL     1       1.236  54.045 -22.610  1.00  0.00    -0.299 N 
HETATM   11  C23 UNL     1       0.060  52.242 -22.996  1.00  0.00     0.036 A 
HETATM   12  N5  UNL     1       1.070  54.059 -23.942  1.00  0.00    -0.299 N 
HETATM   13  H19 UNL     1       1.764  54.802 -22.191  1.00  0.00     0.187 HD
HETATM   14  C17 UNL     1       0.362  52.948 -24.201  1.00  0.00     0.072 A 
ATOM     15  H5  UNL     1       1.407  54.755 -24.606  1.00  0.00     0.187 HD
HETATM   16  C24 UNL     1      -0.645  51.091 -22.643  1.00  0.00     0.105 A 
HETATM   17  N7  UNL     1      -0.728  50.715 -21.340  1.00  0.00    -0.351 N 
ATOM     18  H7  UNL     1      -1.227  49.860 -21.093  1.00  0.00     0.166 HD
BRANCH  14  19
HETATM   19  C18 UNL     1      -0.005  52.609 -25.574  1.00  0.00    -0.001 A 
HETATM   20  C19 UNL     1      -1.333  52.666 -26.005  1.00  0.00     0.031 A 
HETATM   21  C20 UNL     1      -1.612  52.322 -27.317  1.00  0.00     0.091 A 
HETATM   22  N6  UNL     1      -0.678  51.934 -28.208  1.00  0.00    -0.343 N 
HETATM   23  C21 UNL     1       0.596  51.879 -27.763  1.00  0.00     0.189 A 
ATOM     24  H6  UNL     1      -0.920  51.695 -29.170  1.00  0.00     0.167 HD
HETATM   25  F2  UNL     1       1.538  51.496 -28.632  1.00  0.00    -0.186 F 
HETATM   26  C22 UNL     1       0.978  52.199 -26.475  1.00  0.00     0.075 A 
ENDBRANCH  14  19
ENDBRANCH   4   7
BRANCH   1  27
HETATM   27  C12 UNL     1       0.445  51.616 -15.498  1.00  0.00     0.114 C 
HETATM   28  C11 UNL     1       1.915  51.222 -15.323  1.00  0.00     0.029 C 
HETATM   29  C10 UNL     1       2.428  51.642 -13.950  1.00  0.00     0.032 C 
HETATM   30  C9  UNL     1       1.543  51.086 -12.833  1.00  0.00     0.273 C 
HETATM   31  N1  UNL     1       0.158  51.515 -13.011  1.00  0.00     0.094 N 
HETATM   32  C25 UNL     1      -0.403  51.110 -14.305  1.00  0.00     0.297 C 
BRANCH  31  33
HETATM   33  C8  UNL     1      -0.716  51.183 -11.872  1.00  0.00     0.317 C 
BRANCH  33  34
HETATM   34  C7  UNL     1      -1.741  52.217 -11.451  1.00  0.00     0.042 A 
HETATM   35  C2  UNL     1      -1.403  53.338 -10.666  1.00  0.00     0.079 A 
HETATM   36  C3  UNL     1      -2.395  54.262 -10.308  1.00  0.00     0.037 A 
HETATM   37  C4  UNL     1      -3.720  54.078 -10.710  1.00  0.00     0.006 A 
HETATM   38  C5  UNL     1      -4.063  52.968 -11.470  1.00  0.00     0.043 A 
HETATM   39  C6  UNL     1      -3.081  52.051 -11.829  1.00  0.00     0.127 A 
HETATM   40  F1  UNL     1      -3.448  50.985 -12.557  1.00  0.00    -0.205 F 
BRANCH  35  41
HETATM   41  O1  UNL     1      -0.087  53.441 -10.299  1.00  0.00    -0.355 OA
HETATM   42  C1  UNL     1       0.675  54.512 -10.840  1.00  0.00     0.210 C 
ENDBRANCH  35  41
ENDBRANCH  33  34
ENDBRANCH  31  33
ENDBRANCH   1  27
TORSDOF 6
ENDMDL
MODEL 7
REMARK minimizedAffinity -9.65243149
REMARK  6 active torsions:
REMARK  status: ('A' for Active; 'I' for Inactive)
REMARK    1  A    between atoms: O1_2  and  C2_3 
REMARK    2  A    between atoms: C7_9  and  C8_10 
REMARK    3  A    between atoms: C8_10  and  N1_11 
REMARK    4  A    between atoms: C12_15  and  N2_16 
REMARK       I    between atoms: N2_16  and  C13_17 
REMARK       I    between atoms: C13_17  and  N3_19 
REMARK    5  A    between atoms: N3_19  and  C14_20 
REMARK    6  A    between atoms: C17_26  and  C18_27 
ROOT
HETATM    1  N2  UNL     1       1.416  52.766 -16.123  1.00  0.00    -0.337 N 
HETATM    2  C13 UNL     1       0.997  52.309 -17.362  1.00  0.00     0.322 C 
HETATM    3  O2  UNL     1       0.520  51.195 -17.522  1.00  0.00    -0.247 OA
HETATM    4  N3  UNL     1       1.168  53.294 -18.309  1.00  0.00    -0.295 N 
HETATM    5  H16 UNL     1       2.195  53.405 -16.147  1.00  0.00     0.164 HD
HETATM    6  H17 UNL     1       1.277  54.226 -17.951  1.00  0.00     0.172 HD
ENDROOT
BRANCH   4   7
HETATM    7  C14 UNL     1       0.911  53.154 -19.681  1.00  0.00     0.111 A 
HETATM    8  C15 UNL     1       1.499  54.090 -20.530  1.00  0.00     0.080 A 
HETATM    9  C16 UNL     1       1.215  53.934 -21.889  1.00  0.00     0.065 A 
HETATM   10  N4  UNL     1       1.575  54.655 -22.993  1.00  0.00    -0.299 N 
HETATM   11  C23 UNL     1       0.419  52.904 -22.373  1.00  0.00     0.036 A 
HETATM   12  N5  UNL     1       1.074  54.186 -24.146  1.00  0.00    -0.299 N 
HETATM   13  H19 UNL     1       2.159  55.481 -23.031  1.00  0.00     0.187 HD
HETATM   14  C17 UNL     1       0.371  53.099 -23.787  1.00  0.00     0.072 A 
ATOM     15  H5  UNL     1       1.198  54.569 -25.083  1.00  0.00     0.187 HD
HETATM   16  C24 UNL     1      -0.122  52.006 -21.453  1.00  0.00     0.105 A 
HETATM   17  N7  UNL     1       0.147  52.141 -20.128  1.00  0.00    -0.351 N 
ATOM     18  H7  UNL     1      -0.235  51.467 -19.464  1.00  0.00     0.166 HD
BRANCH  14  19
HETATM   19  C18 UNL     1      -0.320  52.300 -24.796  1.00  0.00    -0.001 A 
HETATM   20  C19 UNL     1       0.372  51.392 -25.602  1.00  0.00     0.031 A 
HETATM   21  C20 UNL     1      -0.344  50.674 -26.545  1.00  0.00     0.091 A 
HETATM   22  N6  UNL     1      -1.674  50.796 -26.734  1.00  0.00    -0.343 N 
HETATM   23  C21 UNL     1      -2.316  51.687 -25.947  1.00  0.00     0.189 A 
ATOM     24  H6  UNL     1      -2.169  50.244 -27.434  1.00  0.00     0.167 HD
HETATM   25  F2  UNL     1      -3.635  51.824 -26.120  1.00  0.00    -0.186 F 
HETATM   26  C22 UNL     1      -1.694  52.453 -24.981  1.00  0.00     0.075 A 
ENDBRANCH  14  19
ENDBRANCH   4   7
BRANCH   1  27
HETATM   27  C12 UNL     1       1.358  51.885 -14.954  1.00  0.00     0.114 C 
HETATM   28  C11 UNL     1       1.795  50.475 -15.362  1.00  0.00     0.029 C 
HETATM   29  C10 UNL     1       1.636  49.502 -14.199  1.00  0.00     0.032 C 
HETATM   30  C9  UNL     1       0.210  49.527 -13.646  1.00  0.00     0.273 C 
HETATM   31  N1  UNL     1      -0.158  50.879 -13.231  1.00  0.00     0.094 N 
HETATM   32  C25 UNL     1      -0.055  51.858 -14.319  1.00  0.00     0.297 C 
BRANCH  31  33
HETATM   33  C8  UNL     1      -1.440  50.950 -12.508  1.00  0.00     0.317 C 
BRANCH  33  34
HETATM   34  C7  UNL     1      -1.728  52.208 -11.713  1.00  0.00     0.042 A 
HETATM   35  C2  UNL     1      -0.748  52.842 -10.923  1.00  0.00     0.079 A 
HETATM   36  C3  UNL     1      -1.074  54.004 -10.209  1.00  0.00     0.037 A 
HETATM   37  C4  UNL     1      -2.364  54.536 -10.263  1.00  0.00     0.006 A 
HETATM   38  C5  UNL     1      -3.339  53.908 -11.027  1.00  0.00     0.043 A 
HETATM   39  C6  UNL     1      -3.018  52.756 -11.738  1.00  0.00     0.127 A 
HETATM   40  F1  UNL     1      -3.986  52.170 -12.459  1.00  0.00    -0.205 F 
BRANCH  35  41
HETATM   41  O1  UNL     1       0.488  52.252 -10.911  1.00  0.00    -0.355 OA
HETATM   42  C1  UNL     1       1.631  53.097 -10.916  1.00  0.00     0.210 C 
ENDBRANCH  35  41
ENDBRANCH  33  34
ENDBRANCH  31  33
ENDBRANCH   1  27
TORSDOF 6
ENDMDL
MODEL 8
REMARK minimizedAffinity -9.62596321
REMARK  6 active torsions:
REMARK  status: ('A' for Active; 'I' for Inactive)
REMARK    1  A    between atoms: O1_2  and  C2_3 
REMARK    2  A    between atoms: C7_9  and  C8_10 
REMARK    3  A    between atoms: C8_10  and  N1_11 
REMARK    4  A    between atoms: C12_15  and  N2_16 
REMARK       I    between atoms: N2_16  and  C13_17 
REMARK       I    between atoms: C13_17  and  N3_19 
REMARK    5  A    between atoms: N3_19  and  C14_20 
REMARK    6  A    between atoms: C17_26  and  C18_27 
ROOT
HETATM    1  N2  UNL     1       2.013  52.890 -16.213  1.00  0.00    -0.337 N 
HETATM    2  C13 UNL     1       1.212  52.421 -17.242  1.00  0.00     0.322 C 
HETATM    3  O2  UNL     1       0.434  51.490 -17.093  1.00  0.00    -0.247 OA
HETATM    4  N3  UNL     1       1.412  53.176 -18.375  1.00  0.00    -0.295 N 
HETATM    5  H16 UNL     1       2.905  53.257 -16.503  1.00  0.00     0.164 HD
HETATM    6  H17 UNL     1       1.844  54.071 -18.229  1.00  0.00     0.172 HD
ENDROOT
BRANCH   4   7
HETATM    7  C14 UNL     1       0.816  52.941 -19.623  1.00  0.00     0.111 A 
HETATM    8  C15 UNL     1       1.436  53.510 -20.734  1.00  0.00     0.080 A 
HETATM    9  C16 UNL     1       0.814  53.270 -21.961  1.00  0.00     0.065 A 
HETATM   10  N4  UNL     1       1.101  53.676 -23.234  1.00  0.00    -0.299 N 
HETATM   11  C23 UNL     1      -0.335  52.499 -22.079  1.00  0.00     0.036 A 
HETATM   12  N5  UNL     1       0.234  53.242 -24.162  1.00  0.00    -0.299 N 
HETATM   13  H19 UNL     1       1.874  54.255 -23.542  1.00  0.00     0.187 HD
HETATM   14  C17 UNL     1      -0.650  52.502 -23.472  1.00  0.00     0.072 A 
ATOM     15  H5  UNL     1       0.244  53.432 -25.164  1.00  0.00     0.187 HD
HETATM   16  C24 UNL     1      -0.884  51.960 -20.915  1.00  0.00     0.105 A 
HETATM   17  N7  UNL     1      -0.289  52.180 -19.714  1.00  0.00    -0.351 N 
ATOM     18  H7  UNL     1      -0.685  51.764 -18.871  1.00  0.00     0.166 HD
BRANCH  14  19
HETATM   19  C18 UNL     1      -1.756  51.841 -24.160  1.00  0.00    -0.001 A 
HETATM   20  C19 UNL     1      -1.531  50.785 -25.048  1.00  0.00     0.031 A 
HETATM   21  C20 UNL     1      -2.625  50.210 -25.673  1.00  0.00     0.091 A 
HETATM   22  N6  UNL     1      -3.898  50.606 -25.477  1.00  0.00    -0.343 N 
HETATM   23  C21 UNL     1      -4.086  51.634 -24.621  1.00  0.00     0.189 A 
ATOM     24  H6  UNL     1      -4.680  50.153 -25.950  1.00  0.00     0.167 HD
HETATM   25  F2  UNL     1      -5.342  52.043 -24.414  1.00  0.00    -0.186 F 
HETATM   26  C22 UNL     1      -3.064  52.277 -23.951  1.00  0.00     0.075 A 
ENDBRANCH  14  19
ENDBRANCH   4   7
BRANCH   1  27
HETATM   27  C12 UNL     1       1.997  52.228 -14.906  1.00  0.00     0.114 C 
HETATM   28  C11 UNL     1       2.521  50.797 -15.057  1.00  0.00     0.029 C 
HETATM   29  C10 UNL     1       2.410  50.038 -13.740  1.00  0.00     0.032 C 
HETATM   30  C9  UNL     1       0.980  50.075 -13.198  1.00  0.00     0.273 C 
HETATM   31  N1  UNL     1       0.528  51.454 -13.029  1.00  0.00     0.094 N 
HETATM   32  C25 UNL     1       0.582  52.229 -14.274  1.00  0.00     0.297 C 
BRANCH  31  33
HETATM   33  C8  UNL     1      -0.762  51.574 -12.328  1.00  0.00     0.317 C 
BRANCH  33  34
HETATM   34  C7  UNL     1      -1.021  52.848 -11.549  1.00  0.00     0.042 A 
HETATM   35  C2  UNL     1      -2.323  53.312 -11.274  1.00  0.00     0.079 A 
HETATM   36  C3  UNL     1      -2.501  54.498 -10.548  1.00  0.00     0.037 A 
HETATM   37  C4  UNL     1      -1.400  55.233 -10.101  1.00  0.00     0.006 A 
HETATM   38  C5  UNL     1      -0.114  54.789 -10.381  1.00  0.00     0.043 A 
HETATM   39  C6  UNL     1       0.065  53.612 -11.099  1.00  0.00     0.127 A 
HETATM   40  F1  UNL     1       1.320  53.217 -11.360  1.00  0.00    -0.205 F 
BRANCH  35  41
HETATM   41  O1  UNL     1      -3.350  52.545 -11.758  1.00  0.00    -0.355 OA
HETATM   42  C1  UNL     1      -4.228  51.937 -10.820  1.00  0.00     0.210 C 
ENDBRANCH  35  41
ENDBRANCH  33  34
ENDBRANCH  31  33
ENDBRANCH   1  27
TORSDOF 6
ENDMDL
MODEL 9
REMARK minimizedAffinity -9.54105568
REMARK  6 active torsions:
REMARK  status: ('A' for Active; 'I' for Inactive)
REMARK    1  A    between atoms: O1_2  and  C2_3 
REMARK    2  A    between atoms: C7_9  and  C8_10 
REMARK    3  A    between atoms: C8_10  and  N1_11 
REMARK    4  A    between atoms: C12_15  and  N2_16 
REMARK       I    between atoms: N2_16  and  C13_17 
REMARK       I    between atoms: C13_17  and  N3_19 
REMARK    5  A    between atoms: N3_19  and  C14_20 
REMARK    6  A    between atoms: C17_26  and  C18_27 
ROOT
HETATM    1  N2  UNL     1      -4.254  48.528 -23.881  1.00  0.00    -0.337 N 
HETATM    2  C13 UNL     1      -4.214  48.292 -25.246  1.00  0.00     0.322 C 
HETATM    3  O2  UNL     1      -3.163  48.181 -25.861  1.00  0.00    -0.247 OA
HETATM    4  N3  UNL     1      -5.494  48.172 -25.740  1.00  0.00    -0.295 N 
HETATM    5  H16 UNL     1      -5.040  49.075 -23.568  1.00  0.00     0.164 HD
HETATM    6  H17 UNL     1      -6.206  47.984 -25.057  1.00  0.00     0.172 HD
ENDROOT
BRANCH   4   7
HETATM    7  C14 UNL     1      -5.829  47.996 -27.090  1.00  0.00     0.111 A 
HETATM    8  C15 UNL     1      -7.038  47.357 -27.361  1.00  0.00     0.080 A 
HETATM    9  C16 UNL     1      -7.339  47.184 -28.714  1.00  0.00     0.065 A 
HETATM   10  N4  UNL     1      -8.391  46.590 -29.353  1.00  0.00    -0.299 N 
HETATM   11  C23 UNL     1      -6.506  47.635 -29.729  1.00  0.00     0.036 A 
HETATM   12  N5  UNL     1      -8.305  46.611 -30.693  1.00  0.00    -0.299 N 
HETATM   13  H19 UNL     1      -9.201  46.147 -28.937  1.00  0.00     0.187 HD
HETATM   14  C17 UNL     1      -7.159  47.263 -30.944  1.00  0.00     0.072 A 
ATOM     15  H5  UNL     1      -8.963  46.219 -31.367  1.00  0.00     0.187 HD
HETATM   16  C24 UNL     1      -5.319  48.272 -29.368  1.00  0.00     0.105 A 
HETATM   17  N7  UNL     1      -5.012  48.452 -28.056  1.00  0.00    -0.351 N 
ATOM     18  H7  UNL     1      -4.153  48.939 -27.802  1.00  0.00     0.166 HD
BRANCH  14  19
HETATM   19  C18 UNL     1      -6.729  47.498 -32.320  1.00  0.00    -0.001 A 
HETATM   20  C19 UNL     1      -7.634  47.443 -33.384  1.00  0.00     0.031 A 
HETATM   21  C20 UNL     1      -7.156  47.666 -34.664  1.00  0.00     0.091 A 
HETATM   22  N6  UNL     1      -5.866  47.935 -34.950  1.00  0.00    -0.343 N 
HETATM   23  C21 UNL     1      -5.011  47.973 -33.905  1.00  0.00     0.189 A 
ATOM     24  H6  UNL     1      -5.552  48.101 -35.906  1.00  0.00     0.167 HD
HETATM   25  F2  UNL     1      -3.727  48.237 -34.167  1.00  0.00    -0.186 F 
HETATM   26  C22 UNL     1      -5.386  47.762 -32.593  1.00  0.00     0.075 A 
ENDBRANCH  14  19
ENDBRANCH   4   7
BRANCH   1  27
HETATM   27  C12 UNL     1      -3.011  48.719 -23.130  1.00  0.00     0.114 C 
HETATM   28  C11 UNL     1      -2.708  47.454 -22.322  1.00  0.00     0.029 C 
HETATM   29  C10 UNL     1      -1.484  47.658 -21.435  1.00  0.00     0.032 C 
HETATM   30  C9  UNL     1      -1.645  48.890 -20.542  1.00  0.00     0.273 C 
HETATM   31  N1  UNL     1      -1.892  50.082 -21.349  1.00  0.00     0.094 N 
HETATM   32  C25 UNL     1      -3.080  49.958 -22.202  1.00  0.00     0.297 C 
BRANCH  31  33
HETATM   33  C8  UNL     1      -1.863  51.337 -20.577  1.00  0.00     0.317 C 
BRANCH  33  34
HETATM   34  C7  UNL     1      -0.620  52.198 -20.686  1.00  0.00     0.042 A 
HETATM   35  C2  UNL     1       0.126  52.592 -19.557  1.00  0.00     0.079 A 
HETATM   36  C3  UNL     1       1.267  53.389 -19.721  1.00  0.00     0.037 A 
HETATM   37  C4  UNL     1       1.669  53.809 -20.991  1.00  0.00     0.006 A 
HETATM   38  C5  UNL     1       0.929  53.438 -22.107  1.00  0.00     0.043 A 
HETATM   39  C6  UNL     1      -0.202  52.645 -21.947  1.00  0.00     0.127 A 
HETATM   40  F1  UNL     1      -0.898  52.312 -23.045  1.00  0.00    -0.205 F 
BRANCH  35  41
HETATM   41  O1  UNL     1      -0.339  52.152 -18.346  1.00  0.00    -0.355 OA
HETATM   42  C1  UNL     1       0.277  51.008 -17.770  1.00  0.00     0.210 C 
ENDBRANCH  35  41
ENDBRANCH  33  34
ENDBRANCH  31  33
ENDBRANCH   1  27
TORSDOF 6
ENDMDL
