MODEL 1
REMARK minimizedAffinity -9.74173832
REMARK  4 active torsions:
REMARK  status: ('A' for Active; 'I' for Inactive)
REMARK    1  A    between atoms: C2_2  and  N1_3 
REMARK    2  A    between atoms: C2_2  and  C16_25 
REMARK       I    between atoms: N1_3  and  C3_4 
REMARK       I    between atoms: C3_4  and  N2_6 
REMARK    3  A    between atoms: N2_6  and  C4_7 
REMARK    4  A    between atoms: C7_13  and  C8_14 
ROOT
HETATM    1  C4  UNL     1      -2.416  51.116 -26.849  1.00  0.00     0.111 A 
HETATM    2  C5  UNL     1      -1.360  51.910 -27.275  1.00  0.00     0.080 A 
HETATM    3  C6  UNL     1      -0.536  52.397 -26.262  1.00  0.00     0.065 A 
HETATM    4  N3  UNL     1       0.584  53.178 -26.294  1.00  0.00    -0.299 N 
HETATM    5  N4  UNL     1       1.114  53.429 -25.087  1.00  0.00    -0.299 N 
ATOM      6  H4  UNL     1       1.952  53.969 -24.873  1.00  0.00     0.187 HD
HETATM    7  C7  UNL     1       0.292  52.807 -24.224  1.00  0.00     0.072 A 
HETATM    8  C14 UNL     1      -0.753  52.125 -24.917  1.00  0.00     0.036 A 
HETATM    9  C15 UNL     1      -1.835  51.310 -24.581  1.00  0.00     0.105 A 
HETATM   10  N5  UNL     1      -2.656  50.824 -25.549  1.00  0.00    -0.351 N 
ATOM     11  H5  UNL     1      -3.451  50.238 -25.296  1.00  0.00     0.166 HD
HETATM   12  H8  UNL     1       1.043  53.568 -27.110  1.00  0.00     0.187 HD
ENDROOT
BRANCH   1  13
HETATM   13  N2  UNL     1      -3.350  50.545 -27.714  1.00  0.00    -0.295 N 
HETATM   14  C3  UNL     1      -3.802  49.254 -27.744  1.00  0.00     0.322 C 
HETATM   15  N1  UNL     1      -4.699  49.062 -28.772  1.00  0.00    -0.335 N 
HETATM   16  O1  UNL     1      -3.490  48.355 -26.973  1.00  0.00    -0.247 OA
HETATM   17  H5  UNL     1      -4.656  49.713 -29.542  1.00  0.00     0.165 HD
HETATM   18  H6  UNL     1      -3.802  51.231 -28.296  1.00  0.00     0.172 HD
BRANCH  15  19
HETATM   19  C2  UNL     1      -5.269  47.753 -29.042  1.00  0.00     0.115 C 
HETATM   20  C1  UNL     1      -5.109  47.366 -30.516  1.00  0.00     0.037 C 
BRANCH  19  21
HETATM   21  C16 UNL     1      -6.715  47.735 -28.570  1.00  0.00    -0.034 A 
HETATM   22  C17 UNL     1      -6.992  47.500 -27.212  1.00  0.00     0.012 A 
HETATM   23  C18 UNL     1      -8.307  47.500 -26.739  1.00  0.00     0.044 A 
HETATM   24  C19 UNL     1      -9.355  47.747 -27.618  1.00  0.00     0.138 A 
HETATM   25  F2  UNL     1     -10.609  47.746 -27.143  1.00  0.00    -0.204 F 
HETATM   26  C20 UNL     1      -9.103  47.997 -28.964  1.00  0.00     0.073 A 
HETATM   27 CL1  UNL     1     -10.396  48.317 -30.055  1.00  0.00    -0.081 Cl
HETATM   28  C21 UNL     1      -7.789  47.997 -29.440  1.00  0.00     0.036 A 
ENDBRANCH  19  21
ENDBRANCH  15  19
ENDBRANCH   1  13
BRANCH   7  29
HETATM   29  C8  UNL     1       0.537  52.873 -22.782  1.00  0.00    -0.007 A 
HETATM   30  C9  UNL     1       1.223  53.957 -22.215  1.00  0.00     0.017 A 
HETATM   31  C10 UNL     1       1.446  54.007 -20.836  1.00  0.00     0.043 A 
HETATM   32  C11 UNL     1       0.989  52.973 -20.027  1.00  0.00     0.116 A 
HETATM   33  F1  UNL     1       1.203  53.024 -18.707  1.00  0.00    -0.206 F 
HETATM   34  C12 UNL     1       0.317  51.885 -20.571  1.00  0.00     0.043 A 
HETATM   35  C13 UNL     1       0.094  51.833 -21.949  1.00  0.00     0.017 A 
ENDBRANCH   7  29
TORSDOF 4
ENDMDL
MODEL 2
REMARK minimizedAffinity -9.66231728
REMARK  4 active torsions:
REMARK  status: ('A' for Active; 'I' for Inactive)
REMARK    1  A    between atoms: C2_2  and  N1_3 
REMARK    2  A    between atoms: C2_2  and  C16_25 
REMARK       I    between atoms: N1_3  and  C3_4 
REMARK       I    between atoms: C3_4  and  N2_6 
REMARK    3  A    between atoms: N2_6  and  C4_7 
REMARK    4  A    between atoms: C7_13  and  C8_14 
ROOT
HETATM    1  C4  UNL     1       0.236  52.407 -19.813  1.00  0.00     0.111 A 
HETATM    2  C5  UNL     1       0.896  53.588 -20.125  1.00  0.00     0.080 A 
HETATM    3  C6  UNL     1       1.064  53.833 -21.487  1.00  0.00     0.065 A 
HETATM    4  N3  UNL     1       1.637  54.872 -22.162  1.00  0.00    -0.299 N 
HETATM    5  N4  UNL     1       1.594  54.750 -23.497  1.00  0.00    -0.299 N 
ATOM      6  H4  UNL     1       1.941  55.407 -24.196  1.00  0.00     0.187 HD
HETATM    7  C7  UNL     1       0.990  53.568 -23.707  1.00  0.00     0.072 A 
HETATM    8  C14 UNL     1       0.619  52.959 -22.470  1.00  0.00     0.036 A 
HETATM    9  C15 UNL     1      -0.042  51.799 -22.064  1.00  0.00     0.105 A 
HETATM   10  N5  UNL     1      -0.218  51.535 -20.743  1.00  0.00    -0.351 N 
ATOM     11  H5  UNL     1      -0.692  50.680 -20.453  1.00  0.00     0.166 HD
HETATM   12  H8  UNL     1       2.069  55.702 -21.769  1.00  0.00     0.187 HD
ENDROOT
BRANCH   1  13
HETATM   13  N2  UNL     1      -0.020  51.988 -18.507  1.00  0.00    -0.295 N 
HETATM   14  C3  UNL     1       0.784  52.096 -17.406  1.00  0.00     0.322 C 
HETATM   15  N1  UNL     1       0.194  51.528 -16.298  1.00  0.00    -0.335 N 
HETATM   16  O1  UNL     1       1.887  52.627 -17.360  1.00  0.00    -0.247 OA
HETATM   17  H5  UNL     1      -0.523  50.839 -16.466  1.00  0.00     0.165 HD
HETATM   18  H6  UNL     1      -0.971  51.677 -18.385  1.00  0.00     0.172 HD
BRANCH  15  19
HETATM   19  C2  UNL     1       0.887  51.466 -15.022  1.00  0.00     0.115 C 
HETATM   20  C1  UNL     1       1.515  50.087 -14.793  1.00  0.00     0.037 C 
BRANCH  19  21
HETATM   21  C16 UNL     1      -0.071  51.880 -13.916  1.00  0.00    -0.034 A 
HETATM   22  C17 UNL     1      -1.406  51.439 -13.962  1.00  0.00     0.012 A 
HETATM   23  C18 UNL     1      -2.308  51.780 -12.951  1.00  0.00     0.044 A 
HETATM   24  C19 UNL     1      -1.881  52.555 -11.880  1.00  0.00     0.138 A 
HETATM   25  F2  UNL     1      -2.762  52.868 -10.918  1.00  0.00    -0.204 F 
HETATM   26  C20 UNL     1      -0.561  52.990 -11.805  1.00  0.00     0.073 A 
HETATM   27 CL1  UNL     1      -0.022  53.939 -10.473  1.00  0.00    -0.081 Cl
HETATM   28  C21 UNL     1       0.344  52.652 -12.816  1.00  0.00     0.036 A 
ENDBRANCH  19  21
ENDBRANCH  15  19
ENDBRANCH   1  13
BRANCH   7  29
HETATM   29  C8  UNL     1       0.779  53.070 -25.067  1.00  0.00    -0.007 A 
HETATM   30  C9  UNL     1      -0.056  53.751 -25.965  1.00  0.00     0.017 A 
HETATM   31  C10 UNL     1      -0.244  53.264 -27.262  1.00  0.00     0.043 A 
HETATM   32  C11 UNL     1       0.397  52.096 -27.657  1.00  0.00     0.116 A 
HETATM   33  F1  UNL     1       0.215  51.632 -28.900  1.00  0.00    -0.206 F 
HETATM   34  C12 UNL     1       1.219  51.400 -26.780  1.00  0.00     0.043 A 
HETATM   35  C13 UNL     1       1.408  51.884 -25.484  1.00  0.00     0.017 A 
ENDBRANCH   7  29
TORSDOF 4
ENDMDL
MODEL 3
REMARK minimizedAffinity -9.65357208
REMARK  4 active torsions:
REMARK  status: ('A' for Active; 'I' for Inactive)
REMARK    1  A    between atoms: C2_2  and  N1_3 
REMARK    2  A    between atoms: C2_2  and  C16_25 
REMARK       I    between atoms: N1_3  and  C3_4 
REMARK       I    between atoms: C3_4  and  N2_6 
REMARK    3  A    between atoms: N2_6  and  C4_7 
REMARK    4  A    between atoms: C7_13  and  C8_14 
ROOT
HETATM    1  C4  UNL     1      -2.350  51.111 -26.879  1.00  0.00     0.111 A 
HETATM    2  C5  UNL     1      -1.301  51.923 -27.287  1.00  0.00     0.080 A 
HETATM    3  C6  UNL     1      -0.492  52.409 -26.261  1.00  0.00     0.065 A 
HETATM    4  N3  UNL     1       0.617  53.205 -26.274  1.00  0.00    -0.299 N 
HETATM    5  N4  UNL     1       1.134  53.448 -25.060  1.00  0.00    -0.299 N 
ATOM      6  H4  UNL     1       1.963  53.996 -24.832  1.00  0.00     0.187 HD
HETATM    7  C7  UNL     1       0.313  52.806 -24.211  1.00  0.00     0.072 A 
HETATM    8  C14 UNL     1      -0.717  52.118 -24.922  1.00  0.00     0.036 A 
HETATM    9  C15 UNL     1      -1.792  51.286 -24.604  1.00  0.00     0.105 A 
HETATM   10  N5  UNL     1      -2.597  50.800 -25.584  1.00  0.00    -0.351 N 
ATOM     11  H5  UNL     1      -3.388  50.201 -25.345  1.00  0.00     0.166 HD
HETATM   12  H8  UNL     1       1.078  53.609 -27.082  1.00  0.00     0.187 HD
ENDROOT
BRANCH   1  13
HETATM   13  N2  UNL     1      -3.269  50.537 -27.758  1.00  0.00    -0.295 N 
HETATM   14  C3  UNL     1      -3.801  49.277 -27.730  1.00  0.00     0.322 C 
HETATM   15  N1  UNL     1      -4.650  49.068 -28.795  1.00  0.00    -0.335 N 
HETATM   16  O1  UNL     1      -3.589  48.417 -26.884  1.00  0.00    -0.247 OA
HETATM   17  H5  UNL     1      -4.523  49.660 -29.602  1.00  0.00     0.165 HD
HETATM   18  H6  UNL     1      -3.644  51.207 -28.410  1.00  0.00     0.172 HD
BRANCH  15  19
HETATM   19  C2  UNL     1      -5.286  47.780 -29.011  1.00  0.00     0.115 C 
HETATM   20  C1  UNL     1      -5.246  47.377 -30.489  1.00  0.00     0.037 C 
BRANCH  19  21
HETATM   21  C16 UNL     1      -6.694  47.820 -28.438  1.00  0.00    -0.034 A 
HETATM   22  C17 UNL     1      -7.754  48.259 -29.250  1.00  0.00     0.012 A 
HETATM   23  C18 UNL     1      -9.064  48.286 -28.765  1.00  0.00     0.044 A 
HETATM   24  C19 UNL     1      -9.327  47.864 -27.467  1.00  0.00     0.138 A 
HETATM   25  F2  UNL     1     -10.591  47.894 -27.022  1.00  0.00    -0.204 F 
HETATM   26  C20 UNL     1      -8.295  47.411 -26.650  1.00  0.00     0.073 A 
HETATM   27 CL1  UNL     1      -8.616  46.873 -25.046  1.00  0.00    -0.081 Cl
HETATM   28  C21 UNL     1      -6.984  47.383 -27.133  1.00  0.00     0.036 A 
ENDBRANCH  19  21
ENDBRANCH  15  19
ENDBRANCH   1  13
BRANCH   7  29
HETATM   29  C8  UNL     1       0.545  52.858 -22.767  1.00  0.00    -0.007 A 
HETATM   30  C9  UNL     1       0.085  51.836 -21.923  1.00  0.00     0.017 A 
HETATM   31  C10 UNL     1       0.318  51.899 -20.547  1.00  0.00     0.043 A 
HETATM   32  C11 UNL     1       1.004  52.985 -20.014  1.00  0.00     0.116 A 
HETATM   33  F1  UNL     1       1.225  53.042 -18.695  1.00  0.00    -0.206 F 
HETATM   34  C12 UNL     1       1.458  54.013 -20.831  1.00  0.00     0.043 A 
HETATM   35  C13 UNL     1       1.226  53.952 -22.207  1.00  0.00     0.017 A 
ENDBRANCH   7  29
TORSDOF 4
ENDMDL
MODEL 4
REMARK minimizedAffinity -9.63596439
REMARK  4 active torsions:
REMARK  status: ('A' for Active; 'I' for Inactive)
REMARK    1  A    between atoms: C2_2  and  N1_3 
REMARK    2  A    between atoms: C2_2  and  C16_25 
REMARK       I    between atoms: N1_3  and  C3_4 
REMARK       I    between atoms: C3_4  and  N2_6 
REMARK    3  A    between atoms: N2_6  and  C4_7 
REMARK    4  A    between atoms: C7_13  and  C8_14 
ROOT
HETATM    1  C4  UNL     1       0.543  52.443 -19.796  1.00  0.00     0.111 A 
HETATM    2  C5  UNL     1       1.113  53.656 -20.158  1.00  0.00     0.080 A 
HETATM    3  C6  UNL     1       1.193  53.889 -21.530  1.00  0.00     0.065 A 
HETATM    4  N3  UNL     1       1.665  54.950 -22.248  1.00  0.00    -0.299 N 
HETATM    5  N4  UNL     1       1.560  54.805 -23.577  1.00  0.00    -0.299 N 
ATOM      6  H4  UNL     1       1.828  55.470 -24.302  1.00  0.00     0.187 HD
HETATM    7  C7  UNL     1       1.019  53.585 -23.740  1.00  0.00     0.072 A 
HETATM    8  C14 UNL     1       0.751  52.974 -22.477  1.00  0.00     0.036 A 
HETATM    9  C15 UNL     1       0.185  51.783 -22.022  1.00  0.00     0.105 A 
HETATM   10  N5  UNL     1       0.095  51.529 -20.690  1.00  0.00    -0.351 N 
ATOM     11  H5  UNL     1      -0.310  50.652 -20.364  1.00  0.00     0.166 HD
HETATM   12  H8  UNL     1       2.066  55.810 -21.889  1.00  0.00     0.187 HD
ENDROOT
BRANCH   1  13
HETATM   13  N2  UNL     1       0.383  52.029 -18.473  1.00  0.00    -0.295 N 
HETATM   14  C3  UNL     1      -0.704  51.434 -17.894  1.00  0.00     0.322 C 
HETATM   15  N1  UNL     1      -0.495  51.209 -16.552  1.00  0.00    -0.335 N 
HETATM   16  O1  UNL     1      -1.745  51.116 -18.457  1.00  0.00    -0.247 OA
HETATM   17  H5  UNL     1       0.206  51.775 -16.098  1.00  0.00     0.165 HD
HETATM   18  H6  UNL     1       1.239  52.093 -17.946  1.00  0.00     0.172 HD
BRANCH  15  19
HETATM   19  C2  UNL     1      -1.535  50.642 -15.710  1.00  0.00     0.115 C 
HETATM   20  C1  UNL     1      -2.907  50.716 -16.390  1.00  0.00     0.037 C 
BRANCH  19  21
HETATM   21  C16 UNL     1      -1.502  51.326 -14.352  1.00  0.00    -0.034 A 
HETATM   22  C17 UNL     1      -0.273  51.779 -13.841  1.00  0.00     0.012 A 
HETATM   23  C18 UNL     1      -0.207  52.433 -12.608  1.00  0.00     0.044 A 
HETATM   24  C19 UNL     1      -1.372  52.649 -11.880  1.00  0.00     0.138 A 
HETATM   25  F2  UNL     1      -1.288  53.282 -10.701  1.00  0.00    -0.204 F 
HETATM   26  C20 UNL     1      -2.602  52.223 -12.374  1.00  0.00     0.073 A 
HETATM   27 CL1  UNL     1      -4.050  52.501 -11.485  1.00  0.00    -0.081 Cl
HETATM   28  C21 UNL     1      -2.670  51.568 -13.607  1.00  0.00     0.036 A 
ENDBRANCH  19  21
ENDBRANCH  15  19
ENDBRANCH   1  13
BRANCH   7  29
HETATM   29  C8  UNL     1       0.767  53.054 -25.081  1.00  0.00    -0.007 A 
HETATM   30  C9  UNL     1       1.290  51.813 -25.476  1.00  0.00     0.017 A 
HETATM   31  C10 UNL     1       1.038  51.318 -26.759  1.00  0.00     0.043 A 
HETATM   32  C11 UNL     1       0.269  52.064 -27.645  1.00  0.00     0.116 A 
HETATM   33  F1  UNL     1       0.029  51.587 -28.872  1.00  0.00    -0.206 F 
HETATM   34  C12 UNL     1      -0.249  53.300 -27.276  1.00  0.00     0.043 A 
HETATM   35  C13 UNL     1       0.003  53.796 -25.995  1.00  0.00     0.017 A 
ENDBRANCH   7  29
TORSDOF 4
ENDMDL
MODEL 5
REMARK minimizedAffinity -9.48266983
REMARK  4 active torsions:
REMARK  status: ('A' for Active; 'I' for Inactive)
REMARK    1  A    between atoms: C2_2  and  N1_3 
REMARK    2  A    between atoms: C2_2  and  C16_25 
REMARK       I    between atoms: N1_3  and  C3_4 
REMARK       I    between atoms: C3_4  and  N2_6 
REMARK    3  A    between atoms: N2_6  and  C4_7 
REMARK    4  A    between atoms: C7_13  and  C8_14 
ROOT
HETATM    1  C4  UNL     1      -2.656  50.906 -27.171  1.00  0.00     0.111 A 
HETATM    2  C5  UNL     1      -1.401  51.176 -27.702  1.00  0.00     0.080 A 
HETATM    3  C6  UNL     1      -0.471  51.685 -26.797  1.00  0.00     0.065 A 
HETATM    4  N3  UNL     1       0.837  52.047 -26.943  1.00  0.00    -0.299 N 
HETATM    5  N4  UNL     1       1.414  52.490 -25.816  1.00  0.00    -0.299 N 
ATOM      6  H4  UNL     1       2.378  52.795 -25.685  1.00  0.00     0.187 HD
HETATM    7  C7  UNL     1       0.435  52.442 -24.896  1.00  0.00     0.072 A 
HETATM    8  C14 UNL     1      -0.769  51.921 -25.462  1.00  0.00     0.036 A 
HETATM    9  C15 UNL     1      -2.054  51.613 -25.013  1.00  0.00     0.105 A 
HETATM   10  N5  UNL     1      -2.982  51.117 -25.874  1.00  0.00    -0.351 N 
ATOM     11  H5  UNL     1      -3.922  50.903 -25.543  1.00  0.00     0.166 HD
HETATM   12  H8  UNL     1       1.400  52.008 -27.787  1.00  0.00     0.187 HD
ENDROOT
BRANCH   1  13
HETATM   13  N2  UNL     1      -3.718  50.398 -27.921  1.00  0.00    -0.295 N 
HETATM   14  C3  UNL     1      -4.047  49.091 -28.152  1.00  0.00     0.322 C 
HETATM   15  N1  UNL     1      -5.148  48.991 -28.975  1.00  0.00    -0.335 N 
HETATM   16  O1  UNL     1      -3.476  48.106 -27.701  1.00  0.00    -0.247 OA
HETATM   17  H5  UNL     1      -5.352  49.786 -29.561  1.00  0.00     0.165 HD
HETATM   18  H6  UNL     1      -4.358  51.119 -28.212  1.00  0.00     0.172 HD
BRANCH  15  19
HETATM   19  C2  UNL     1      -5.647  47.699 -29.413  1.00  0.00     0.115 C 
HETATM   20  C1  UNL     1      -5.021  47.280 -30.748  1.00  0.00     0.037 C 
BRANCH  19  21
HETATM   21  C16 UNL     1      -7.167  47.742 -29.451  1.00  0.00    -0.034 A 
HETATM   22  C17 UNL     1      -7.808  48.558 -30.399  1.00  0.00     0.012 A 
HETATM   23  C18 UNL     1      -9.203  48.604 -30.479  1.00  0.00     0.044 A 
HETATM   24  C19 UNL     1      -9.968  47.826 -29.618  1.00  0.00     0.138 A 
HETATM   25  F2  UNL     1     -11.304  47.882 -29.713  1.00  0.00    -0.204 F 
HETATM   26  C20 UNL     1      -9.354  46.999 -28.681  1.00  0.00     0.073 A 
HETATM   27 CL1  UNL     1     -10.296  46.022 -27.622  1.00  0.00    -0.081 Cl
HETATM   28  C21 UNL     1      -7.960  46.952 -28.599  1.00  0.00     0.036 A 
ENDBRANCH  19  21
ENDBRANCH  15  19
ENDBRANCH   1  13
BRANCH   7  29
HETATM   29  C8  UNL     1       0.681  52.876 -23.520  1.00  0.00    -0.007 A 
HETATM   30  C9  UNL     1       1.271  54.120 -23.250  1.00  0.00     0.017 A 
HETATM   31  C10 UNL     1       1.497  54.522 -21.931  1.00  0.00     0.043 A 
HETATM   32  C11 UNL     1       1.138  53.680 -20.884  1.00  0.00     0.116 A 
HETATM   33  F1  UNL     1       1.355  54.068 -19.622  1.00  0.00    -0.206 F 
HETATM   34  C12 UNL     1       0.562  52.440 -21.131  1.00  0.00     0.043 A 
HETATM   35  C13 UNL     1       0.337  52.036 -22.449  1.00  0.00     0.017 A 
ENDBRANCH   7  29
TORSDOF 4
ENDMDL
MODEL 6
REMARK minimizedAffinity -9.43136501
REMARK  4 active torsions:
REMARK  status: ('A' for Active; 'I' for Inactive)
REMARK    1  A    between atoms: C2_2  and  N1_3 
REMARK    2  A    between atoms: C2_2  and  C16_25 
REMARK       I    between atoms: N1_3  and  C3_4 
REMARK       I    between atoms: C3_4  and  N2_6 
REMARK    3  A    between atoms: N2_6  and  C4_7 
REMARK    4  A    between atoms: C7_13  and  C8_14 
ROOT
HETATM    1  C4  UNL     1      -3.701  49.426 -26.768  1.00  0.00     0.111 A 
HETATM    2  C5  UNL     1      -3.739  48.540 -25.700  1.00  0.00     0.080 A 
HETATM    3  C6  UNL     1      -3.028  48.941 -24.569  1.00  0.00     0.065 A 
HETATM    4  N3  UNL     1      -2.851  48.355 -23.349  1.00  0.00    -0.299 N 
HETATM    5  N4  UNL     1      -2.095  49.068 -22.502  1.00  0.00    -0.299 N 
ATOM      6  H4  UNL     1      -1.846  48.837 -21.540  1.00  0.00     0.187 HD
HETATM    7  C7  UNL     1      -1.738  50.157 -23.204  1.00  0.00     0.072 A 
HETATM    8  C14 UNL     1      -2.318  50.133 -24.509  1.00  0.00     0.036 A 
HETATM    9  C15 UNL     1      -2.342  50.967 -25.628  1.00  0.00     0.105 A 
HETATM   10  N5  UNL     1      -3.026  50.600 -26.744  1.00  0.00    -0.351 N 
ATOM     11  H5  UNL     1      -3.031  51.208 -27.562  1.00  0.00     0.166 HD
HETATM   12  H8  UNL     1      -3.228  47.469 -23.028  1.00  0.00     0.187 HD
ENDROOT
BRANCH   1  13
HETATM   13  N2  UNL     1      -4.345  49.197 -27.984  1.00  0.00    -0.295 N 
HETATM   14  C3  UNL     1      -5.370  48.332 -28.254  1.00  0.00     0.322 C 
HETATM   15  N1  UNL     1      -5.712  48.363 -29.588  1.00  0.00    -0.335 N 
HETATM   16  O1  UNL     1      -5.947  47.613 -27.448  1.00  0.00    -0.247 OA
HETATM   17  H5  UNL     1      -5.011  48.700 -30.231  1.00  0.00     0.165 HD
HETATM   18  H6  UNL     1      -4.063  49.852 -28.695  1.00  0.00     0.172 HD
BRANCH  15  19
HETATM   19  C2  UNL     1      -6.735  47.483 -30.126  1.00  0.00     0.115 C 
HETATM   20  C1  UNL     1      -7.661  46.962 -29.022  1.00  0.00     0.037 C 
BRANCH  19  21
HETATM   21  C16 UNL     1      -6.066  46.372 -30.921  1.00  0.00    -0.034 A 
HETATM   22  C17 UNL     1      -4.873  46.646 -31.614  1.00  0.00     0.012 A 
HETATM   23  C18 UNL     1      -4.218  45.644 -32.335  1.00  0.00     0.044 A 
HETATM   24  C19 UNL     1      -4.744  44.357 -32.359  1.00  0.00     0.138 A 
HETATM   25  F2  UNL     1      -4.097  43.410 -33.054  1.00  0.00    -0.204 F 
HETATM   26  C20 UNL     1      -5.914  44.060 -31.668  1.00  0.00     0.073 A 
HETATM   27 CL1  UNL     1      -6.563  42.465 -31.683  1.00  0.00    -0.081 Cl
HETATM   28  C21 UNL     1      -6.572  45.060 -30.947  1.00  0.00     0.036 A 
ENDBRANCH  19  21
ENDBRANCH  15  19
ENDBRANCH   1  13
BRANCH   7  29
HETATM   29  C8  UNL     1      -0.875  51.179 -22.610  1.00  0.00    -0.007 A 
HETATM   30  C9  UNL     1      -0.771  51.316 -21.217  1.00  0.00     0.017 A 
HETATM   31  C10 UNL     1       0.060  52.295 -20.665  1.00  0.00     0.043 A 
HETATM   32  C11 UNL     1       0.781  53.138 -21.503  1.00  0.00     0.116 A 
HETATM   33  F1  UNL     1       1.576  54.074 -20.971  1.00  0.00    -0.206 F 
HETATM   34  C12 UNL     1       0.683  53.025 -22.885  1.00  0.00     0.043 A 
HETATM   35  C13 UNL     1      -0.147  52.049 -23.438  1.00  0.00     0.017 A 
ENDBRANCH   7  29
TORSDOF 4
ENDMDL
MODEL 7
REMARK minimizedAffinity -9.3026495
REMARK  4 active torsions:
REMARK  status: ('A' for Active; 'I' for Inactive)
REMARK    1  A    between atoms: C2_2  and  N1_3 
REMARK    2  A    between atoms: C2_2  and  C16_25 
REMARK       I    between atoms: N1_3  and  C3_4 
REMARK       I    between atoms: C3_4  and  N2_6 
REMARK    3  A    between atoms: N2_6  and  C4_7 
REMARK    4  A    between atoms: C7_13  and  C8_14 
ROOT
HETATM    1  C4  UNL     1      -1.955  50.157 -24.922  1.00  0.00     0.111 A 
HETATM    2  C5  UNL     1      -1.919  50.897 -26.096  1.00  0.00     0.080 A 
HETATM    3  C6  UNL     1      -2.751  50.437 -27.114  1.00  0.00     0.065 A 
HETATM    4  N3  UNL     1      -2.992  50.903 -28.375  1.00  0.00    -0.299 N 
HETATM    5  N4  UNL     1      -3.886  50.180 -29.066  1.00  0.00    -0.299 N 
ATOM      6  H4  UNL     1      -4.230  50.350 -30.012  1.00  0.00     0.187 HD
HETATM    7  C7  UNL     1      -4.228  49.183 -28.233  1.00  0.00     0.072 A 
HETATM    8  C14 UNL     1      -3.554  49.311 -26.981  1.00  0.00     0.036 A 
HETATM    9  C15 UNL     1      -3.533  48.633 -25.762  1.00  0.00     0.105 A 
HETATM   10  N5  UNL     1      -2.729  49.059 -24.752  1.00  0.00    -0.351 N 
ATOM     11  H5  UNL     1      -2.709  48.552 -23.867  1.00  0.00     0.166 HD
HETATM   12  H8  UNL     1      -2.582  51.716 -28.823  1.00  0.00     0.187 HD
ENDROOT
BRANCH   1  13
HETATM   13  N2  UNL     1      -1.189  50.458 -23.795  1.00  0.00    -0.295 N 
HETATM   14  C3  UNL     1      -1.330  51.505 -22.926  1.00  0.00     0.322 C 
HETATM   15  N1  UNL     1      -0.354  51.483 -21.954  1.00  0.00    -0.335 N 
HETATM   16  O1  UNL     1      -2.200  52.366 -22.959  1.00  0.00    -0.247 OA
HETATM   17  H5  UNL     1       0.492  50.976 -22.169  1.00  0.00     0.165 HD
HETATM   18  H6  UNL     1      -0.536  49.725 -23.570  1.00  0.00     0.172 HD
BRANCH  15  19
HETATM   19  C2  UNL     1      -0.261  52.532 -20.953  1.00  0.00     0.115 C 
HETATM   20  C1  UNL     1       0.828  53.550 -21.308  1.00  0.00     0.037 C 
BRANCH  19  21
HETATM   21  C16 UNL     1      -0.066  51.897 -19.585  1.00  0.00    -0.034 A 
HETATM   22  C17 UNL     1      -0.587  50.613 -19.343  1.00  0.00     0.012 A 
HETATM   23  C18 UNL     1      -0.406  49.989 -18.106  1.00  0.00     0.044 A 
HETATM   24  C19 UNL     1       0.307  50.638 -17.105  1.00  0.00     0.138 A 
HETATM   25  F2  UNL     1       0.472  50.019 -15.926  1.00  0.00    -0.204 F 
HETATM   26  C20 UNL     1       0.844  51.902 -17.327  1.00  0.00     0.073 A 
HETATM   27 CL1  UNL     1       1.740  52.706 -16.096  1.00  0.00    -0.081 Cl
HETATM   28  C21 UNL     1       0.664  52.530 -18.563  1.00  0.00     0.036 A 
ENDBRANCH  19  21
ENDBRANCH  15  19
ENDBRANCH   1  13
BRANCH   7  29
HETATM   29  C8  UNL     1      -5.187  48.158 -28.651  1.00  0.00    -0.007 A 
HETATM   30  C9  UNL     1      -5.189  47.663 -29.963  1.00  0.00     0.017 A 
HETATM   31  C10 UNL     1      -6.109  46.682 -30.345  1.00  0.00     0.043 A 
HETATM   32  C11 UNL     1      -7.027  46.201 -29.418  1.00  0.00     0.116 A 
HETATM   33  F1  UNL     1      -7.905  45.261 -29.787  1.00  0.00    -0.206 F 
HETATM   34  C12 UNL     1      -7.047  46.686 -28.116  1.00  0.00     0.043 A 
HETATM   35  C13 UNL     1      -6.130  47.667 -27.733  1.00  0.00     0.017 A 
ENDBRANCH   7  29
TORSDOF 4
ENDMDL
MODEL 8
REMARK minimizedAffinity -9.25417042
REMARK  4 active torsions:
REMARK  status: ('A' for Active; 'I' for Inactive)
REMARK    1  A    between atoms: C2_2  and  N1_3 
REMARK    2  A    between atoms: C2_2  and  C16_25 
REMARK       I    between atoms: N1_3  and  C3_4 
REMARK       I    between atoms: C3_4  and  N2_6 
REMARK    3  A    between atoms: N2_6  and  C4_7 
REMARK    4  A    between atoms: C7_13  and  C8_14 
ROOT
HETATM    1  C4  UNL     1       0.314  52.728 -19.918  1.00  0.00     0.111 A 
HETATM    2  C5  UNL     1       0.989  53.878 -20.303  1.00  0.00     0.080 A 
HETATM    3  C6  UNL     1       1.136  54.048 -21.679  1.00  0.00     0.065 A 
HETATM    4  N3  UNL     1       1.714  55.040 -22.418  1.00  0.00    -0.299 N 
HETATM    5  N4  UNL     1       1.645  54.849 -23.744  1.00  0.00    -0.299 N 
ATOM      6  H4  UNL     1       1.990  55.462 -24.483  1.00  0.00     0.187 HD
HETATM    7  C7  UNL     1       1.017  53.669 -23.881  1.00  0.00     0.072 A 
HETATM    8  C14 UNL     1       0.657  53.132 -22.607  1.00  0.00     0.036 A 
HETATM    9  C15 UNL     1      -0.016  52.007 -22.129  1.00  0.00     0.105 A 
HETATM   10  N5  UNL     1      -0.172  51.816 -20.793  1.00  0.00    -0.351 N 
ATOM     11  H5  UNL     1      -0.656  50.987 -20.449  1.00  0.00     0.166 HD
HETATM   12  H8  UNL     1       2.168  55.881 -22.077  1.00  0.00     0.187 HD
ENDROOT
BRANCH   1  13
HETATM   13  N2  UNL     1       0.075  52.382 -18.587  1.00  0.00    -0.295 N 
HETATM   14  C3  UNL     1      -0.312  51.173 -18.079  1.00  0.00     0.322 C 
HETATM   15  N1  UNL     1      -0.483  51.236 -16.714  1.00  0.00    -0.335 N 
HETATM   16  O1  UNL     1      -0.486  50.140 -18.713  1.00  0.00    -0.247 OA
HETATM   17  H5  UNL     1      -0.651  52.148 -16.317  1.00  0.00     0.165 HD
HETATM   18  H6  UNL     1       0.344  53.114 -17.948  1.00  0.00     0.172 HD
BRANCH  15  19
HETATM   19  C2  UNL     1      -0.953  50.087 -15.958  1.00  0.00     0.115 C 
HETATM   20  C1  UNL     1      -2.085  50.473 -15.000  1.00  0.00     0.037 C 
BRANCH  19  21
HETATM   21  C16 UNL     1       0.229  49.435 -15.259  1.00  0.00    -0.034 A 
HETATM   22  C17 UNL     1       0.392  48.041 -15.338  1.00  0.00     0.012 A 
HETATM   23  C18 UNL     1       1.479  47.410 -14.728  1.00  0.00     0.044 A 
HETATM   24  C19 UNL     1       2.420  48.170 -14.043  1.00  0.00     0.138 A 
HETATM   25  F2  UNL     1       3.458  47.545 -13.468  1.00  0.00    -0.204 F 
HETATM   26  C20 UNL     1       2.288  49.553 -13.964  1.00  0.00     0.073 A 
HETATM   27 CL1  UNL     1       3.457  50.501 -13.128  1.00  0.00    -0.081 Cl
HETATM   28  C21 UNL     1       1.200  50.186 -14.572  1.00  0.00     0.036 A 
ENDBRANCH  19  21
ENDBRANCH  15  19
ENDBRANCH   1  13
BRANCH   7  29
HETATM   29  C8  UNL     1       0.771  53.104 -25.209  1.00  0.00    -0.007 A 
HETATM   30  C9  UNL     1       0.021  53.804 -26.165  1.00  0.00     0.017 A 
HETATM   31  C10 UNL     1      -0.201  53.253 -27.430  1.00  0.00     0.043 A 
HETATM   32  C11 UNL     1       0.321  52.001 -27.736  1.00  0.00     0.116 A 
HETATM   33  F1  UNL     1       0.107  51.475 -28.948  1.00  0.00    -0.206 F 
HETATM   34  C12 UNL     1       1.058  51.286 -26.799  1.00  0.00     0.043 A 
HETATM   35  C13 UNL     1       1.280  51.835 -25.534  1.00  0.00     0.017 A 
ENDBRANCH   7  29
TORSDOF 4
ENDMDL
MODEL 9
REMARK minimizedAffinity -9.25398159
REMARK  4 active torsions:
REMARK  status: ('A' for Active; 'I' for Inactive)
REMARK    1  A    between atoms: C2_2  and  N1_3 
REMARK    2  A    between atoms: C2_2  and  C16_25 
REMARK       I    between atoms: N1_3  and  C3_4 
REMARK       I    between atoms: C3_4  and  N2_6 
REMARK    3  A    between atoms: N2_6  and  C4_7 
REMARK    4  A    between atoms: C7_13  and  C8_14 
ROOT
HETATM    1  C4  UNL     1       0.538  52.674 -19.766  1.00  0.00     0.111 A 
HETATM    2  C5  UNL     1       1.106  53.871 -20.181  1.00  0.00     0.080 A 
HETATM    3  C6  UNL     1       1.186  54.042 -21.563  1.00  0.00     0.065 A 
HETATM    4  N3  UNL     1       1.657  55.071 -22.327  1.00  0.00    -0.299 N 
HETATM    5  N4  UNL     1       1.551  54.866 -23.649  1.00  0.00    -0.299 N 
ATOM      6  H4  UNL     1       1.819  55.499 -24.402  1.00  0.00     0.187 HD
HETATM    7  C7  UNL     1       1.012  53.640 -23.757  1.00  0.00     0.072 A 
HETATM    8  C14 UNL     1       0.745  53.086 -22.467  1.00  0.00     0.036 A 
HETATM    9  C15 UNL     1       0.180  51.915 -21.960  1.00  0.00     0.105 A 
HETATM   10  N5  UNL     1       0.091  51.721 -20.618  1.00  0.00    -0.351 N 
ATOM     11  H5  UNL     1      -0.313  50.859 -20.253  1.00  0.00     0.166 HD
HETATM   12  H8  UNL     1       2.057  55.947 -22.007  1.00  0.00     0.187 HD
ENDROOT
BRANCH   1  13
HETATM   13  N2  UNL     1       0.378  52.320 -18.426  1.00  0.00    -0.295 N 
HETATM   14  C3  UNL     1       1.324  52.279 -17.438  1.00  0.00     0.322 C 
HETATM   15  N1  UNL     1       0.786  51.842 -16.248  1.00  0.00    -0.335 N 
HETATM   16  O1  UNL     1       2.504  52.590 -17.547  1.00  0.00    -0.247 OA
HETATM   17  H5  UNL     1      -0.064  51.302 -16.303  1.00  0.00     0.165 HD
HETATM   18  H6  UNL     1      -0.590  52.197 -18.176  1.00  0.00     0.172 HD
BRANCH  15  19
HETATM   19  C2  UNL     1       1.613  51.657 -15.068  1.00  0.00     0.115 C 
HETATM   20  C1  UNL     1       3.047  52.143 -15.308  1.00  0.00     0.037 C 
BRANCH  19  21
HETATM   21  C16 UNL     1       1.538  50.202 -14.633  1.00  0.00    -0.034 A 
HETATM   22  C17 UNL     1       2.587  49.657 -13.871  1.00  0.00     0.012 A 
HETATM   23  C18 UNL     1       2.540  48.331 -13.434  1.00  0.00     0.044 A 
HETATM   24  C19 UNL     1       1.440  47.541 -13.745  1.00  0.00     0.138 A 
HETATM   25  F2  UNL     1       1.413  46.272 -13.313  1.00  0.00    -0.204 F 
HETATM   26  C20 UNL     1       0.383  48.063 -14.485  1.00  0.00     0.073 A 
HETATM   27 CL1  UNL     1      -0.990  47.095 -14.862  1.00  0.00    -0.081 Cl
HETATM   28  C21 UNL     1       0.427  49.390 -14.925  1.00  0.00     0.036 A 
ENDBRANCH  19  21
ENDBRANCH  15  19
ENDBRANCH   1  13
BRANCH   7  29
HETATM   29  C8  UNL     1       0.761  53.049 -25.072  1.00  0.00    -0.007 A 
HETATM   30  C9  UNL     1       1.219  51.760 -25.385  1.00  0.00     0.017 A 
HETATM   31  C10 UNL     1       0.967  51.209 -26.644  1.00  0.00     0.043 A 
HETATM   32  C11 UNL     1       0.264  51.946 -27.590  1.00  0.00     0.116 A 
HETATM   33  F1  UNL     1       0.025  51.415 -28.795  1.00  0.00    -0.206 F 
HETATM   34  C12 UNL     1      -0.188  53.228 -27.304  1.00  0.00     0.043 A 
HETATM   35  C13 UNL     1       0.063  53.781 -26.046  1.00  0.00     0.017 A 
ENDBRANCH   7  29
TORSDOF 4
ENDMDL
