MODEL 1
REMARK minimizedAffinity -10.4436703
REMARK  5 active torsions:
REMARK  status: ('A' for Active; 'I' for Inactive)
REMARK    1  A    between atoms: C4_4  and  C5_5 
REMARK    2  A    between atoms: C8_11  and  N3_12 
REMARK       I    between atoms: N3_12  and  C9_13 
REMARK       I    between atoms: C9_13  and  N4_15 
REMARK    3  A    between atoms: N4_15  and  C10_16 
REMARK    4  A    between atoms: C14_20  and  O2_21 
REMARK    5  A    between atoms: O2_21  and  C15_22 
ROOT
HETATM    1  C5  UNL     1       0.680  53.181 -23.722  1.00  0.00     0.072 A 
HETATM    2  N1  UNL     1       1.273  54.362 -23.963  1.00  0.00    -0.299 N 
ATOM      3  H1  UNL     1       1.455  54.795 -24.869  1.00  0.00     0.187 HD
HETATM    4  N2  UNL     1       1.571  54.844 -22.748  1.00  0.00    -0.299 N 
HETATM    5  C6  UNL     1       1.224  54.018 -21.718  1.00  0.00     0.065 A 
HETATM    6  C7  UNL     1       1.372  54.141 -20.337  1.00  0.00     0.080 A 
HETATM    7  C8  UNL     1       0.905  53.066 -19.594  1.00  0.00     0.111 A 
HETATM    8  N5  UNL     1       0.336  51.966 -20.142  1.00  0.00    -0.351 N 
ATOM      9  H5  UNL     1       0.002  51.211 -19.543  1.00  0.00     0.166 HD
HETATM   10  C22 UNL     1       0.211  51.869 -21.492  1.00  0.00     0.105 A 
HETATM   11  C23 UNL     1       0.643  52.908 -22.319  1.00  0.00     0.036 A 
HETATM   12  H5  UNL     1       2.023  55.751 -22.687  1.00  0.00     0.187 HD
ENDROOT
BRANCH   7  13
HETATM   13  N3  UNL     1       0.958  53.013 -18.200  1.00  0.00    -0.295 N 
HETATM   14  C9  UNL     1       0.729  51.939 -17.384  1.00  0.00     0.322 C 
HETATM   15  O1  UNL     1       0.375  50.820 -17.736  1.00  0.00    -0.247 OA
HETATM   16  N4  UNL     1       0.940  52.269 -16.059  1.00  0.00    -0.338 N 
HETATM   17  H8  UNL     1       1.611  53.007 -15.906  1.00  0.00     0.164 HD
HETATM   18  H7  UNL     1       1.027  53.927 -17.781  1.00  0.00     0.172 HD
BRANCH  16  19
HETATM   19  C10 UNL     1       0.822  51.262 -15.010  1.00  0.00     0.088 C 
HETATM   20  C11 UNL     1       0.079  50.033 -15.536  1.00  0.00     0.025 C 
HETATM   21  C12 UNL     1       0.026  48.913 -14.495  1.00  0.00     0.004 C 
HETATM   22  C13 UNL     1       0.008  49.422 -13.054  1.00  0.00     0.032 C 
HETATM   23  C14 UNL     1      -0.655  50.796 -12.951  1.00  0.00     0.131 C 
HETATM   24  C21 UNL     1       0.149  51.837 -13.750  1.00  0.00     0.057 C 
BRANCH  23  25
HETATM   25  O2  UNL     1      -0.687  51.242 -11.592  1.00  0.00    -0.346 OA
BRANCH  25  26
HETATM   26  C15 UNL     1      -1.553  52.235 -11.231  1.00  0.00     0.072 A 
HETATM   27  C16 UNL     1      -2.906  51.882 -11.319  1.00  0.00     0.037 A 
HETATM   28  C17 UNL     1      -3.912  52.795 -10.988  1.00  0.00     0.006 A 
HETATM   29  C18 UNL     1      -3.568  54.075 -10.566  1.00  0.00     0.042 A 
HETATM   30  C19 UNL     1      -2.224  54.423 -10.482  1.00  0.00     0.119 A 
HETATM   31  F1  UNL     1      -1.892  55.658 -10.082  1.00  0.00    -0.206 F 
HETATM   32  C20 UNL     1      -1.215  53.520 -10.811  1.00  0.00     0.079 A 
ENDBRANCH  25  26
ENDBRANCH  23  25
ENDBRANCH  16  19
ENDBRANCH   7  13
BRANCH   1  33
HETATM   33  C4  UNL     1       0.190  52.356 -24.826  1.00  0.00    -0.004 A 
HETATM   34  C3  UNL     1       0.800  52.439 -26.082  1.00  0.00     0.038 A 
HETATM   35  C2  UNL     1       0.321  51.649 -27.122  1.00  0.00     0.005 A 
HETATM   36  C1  UNL     1       0.962  51.719 -28.476  1.00  0.00     0.068 C 
HETATM   37  N6  UNL     1      -0.714  50.792 -26.967  1.00  0.00    -0.369 N 
HETATM   38  C25 UNL     1      -1.302  50.741 -25.753  1.00  0.00     0.089 A 
ATOM     39  H6  UNL     1      -1.037  50.206 -27.737  1.00  0.00     0.165 HD
HETATM   40  C24 UNL     1      -0.894  51.495 -24.665  1.00  0.00     0.031 A 
ENDBRANCH   1  33
TORSDOF 5
ENDMDL
MODEL 2
REMARK minimizedAffinity -10.3032904
REMARK  5 active torsions:
REMARK  status: ('A' for Active; 'I' for Inactive)
REMARK    1  A    between atoms: C4_4  and  C5_5 
REMARK    2  A    between atoms: C8_11  and  N3_12 
REMARK       I    between atoms: N3_12  and  C9_13 
REMARK       I    between atoms: C9_13  and  N4_15 
REMARK    3  A    between atoms: N4_15  and  C10_16 
REMARK    4  A    between atoms: C14_20  and  O2_21 
REMARK    5  A    between atoms: O2_21  and  C15_22 
ROOT
HETATM    1  C5  UNL     1      -5.956  47.824 -27.596  1.00  0.00     0.072 A 
HETATM    2  N1  UNL     1      -7.068  47.789 -26.843  1.00  0.00    -0.299 N 
ATOM      3  H1  UNL     1      -8.016  47.559 -27.140  1.00  0.00     0.187 HD
HETATM    4  N2  UNL     1      -6.651  48.123 -25.612  1.00  0.00    -0.299 N 
HETATM    5  C6  UNL     1      -5.318  48.402 -25.530  1.00  0.00     0.065 A 
HETATM    6  C7  UNL     1      -4.514  48.795 -24.460  1.00  0.00     0.080 A 
HETATM    7  C8  UNL     1      -3.178  49.009 -24.772  1.00  0.00     0.111 A 
HETATM    8  N5  UNL     1      -2.663  48.851 -26.014  1.00  0.00    -0.351 N 
ATOM      9  H5  UNL     1      -1.669  49.014 -26.179  1.00  0.00     0.166 HD
HETATM   10  C22 UNL     1      -3.471  48.475 -27.040  1.00  0.00     0.105 A 
HETATM   11  C23 UNL     1      -4.826  48.226 -26.818  1.00  0.00     0.036 A 
HETATM   12  H5  UNL     1      -7.335  48.149 -24.863  1.00  0.00     0.187 HD
ENDROOT
BRANCH   7  13
HETATM   13  N3  UNL     1      -2.222  49.395 -23.831  1.00  0.00    -0.295 N 
HETATM   14  C9  UNL     1      -1.952  50.654 -23.366  1.00  0.00     0.322 C 
HETATM   15  O1  UNL     1      -2.475  51.696 -23.741  1.00  0.00    -0.247 OA
HETATM   16  N4  UNL     1      -0.973  50.623 -22.391  1.00  0.00    -0.338 N 
HETATM   17  H8  UNL     1      -0.927  49.765 -21.862  1.00  0.00     0.164 HD
HETATM   18  H7  UNL     1      -1.578  48.654 -23.607  1.00  0.00     0.172 HD
BRANCH  16  19
HETATM   19  C10 UNL     1      -0.569  51.842 -21.701  1.00  0.00     0.088 C 
HETATM   20  C11 UNL     1       0.711  52.404 -22.321  1.00  0.00     0.025 C 
HETATM   21  C12 UNL     1       1.110  53.740 -21.690  1.00  0.00     0.004 C 
HETATM   22  C13 UNL     1       0.693  53.869 -20.226  1.00  0.00     0.032 C 
HETATM   23  C14 UNL     1       0.650  52.508 -19.530  1.00  0.00     0.131 C 
HETATM   24  C21 UNL     1      -0.411  51.608 -20.187  1.00  0.00     0.057 C 
BRANCH  23  25
HETATM   25  O2  UNL     1       0.285  52.654 -18.154  1.00  0.00    -0.346 OA
BRANCH  25  26
HETATM   26  C15 UNL     1       1.192  52.341 -17.182  1.00  0.00     0.072 A 
HETATM   27  C16 UNL     1       0.699  51.488 -16.186  1.00  0.00     0.037 A 
HETATM   28  C17 UNL     1       1.508  51.082 -15.120  1.00  0.00     0.006 A 
HETATM   29  C18 UNL     1       2.822  51.531 -15.043  1.00  0.00     0.042 A 
HETATM   30  C19 UNL     1       3.307  52.379 -16.032  1.00  0.00     0.119 A 
HETATM   31  F1  UNL     1       4.571  52.818 -15.956  1.00  0.00    -0.206 F 
HETATM   32  C20 UNL     1       2.508  52.790 -17.098  1.00  0.00     0.079 A 
ENDBRANCH  25  26
ENDBRANCH  23  25
ENDBRANCH  16  19
ENDBRANCH   7  13
BRANCH   1  33
HETATM   33  C4  UNL     1      -6.014  47.492 -29.020  1.00  0.00    -0.004 A 
HETATM   34  C3  UNL     1      -6.765  46.393 -29.450  1.00  0.00     0.038 A 
HETATM   35  C2  UNL     1      -6.807  46.091 -30.807  1.00  0.00     0.005 A 
HETATM   36  C1  UNL     1      -7.608  44.919 -31.291  1.00  0.00     0.068 C 
HETATM   37  N6  UNL     1      -6.154  46.825 -31.737  1.00  0.00    -0.369 N 
HETATM   38  C25 UNL     1      -5.418  47.869 -31.299  1.00  0.00     0.089 A 
ATOM     39  H6  UNL     1      -6.214  46.598 -32.730  1.00  0.00     0.165 HD
HETATM   40  C24 UNL     1      -5.315  48.238 -29.969  1.00  0.00     0.031 A 
ENDBRANCH   1  33
TORSDOF 5
ENDMDL
MODEL 3
REMARK minimizedAffinity -10.2591457
REMARK  5 active torsions:
REMARK  status: ('A' for Active; 'I' for Inactive)
REMARK    1  A    between atoms: C4_4  and  C5_5 
REMARK    2  A    between atoms: C8_11  and  N3_12 
REMARK       I    between atoms: N3_12  and  C9_13 
REMARK       I    between atoms: C9_13  and  N4_15 
REMARK    3  A    between atoms: N4_15  and  C10_16 
REMARK    4  A    between atoms: C14_20  and  O2_21 
REMARK    5  A    between atoms: O2_21  and  C15_22 
ROOT
HETATM    1  C5  UNL     1       0.397  53.006 -24.036  1.00  0.00     0.072 A 
HETATM    2  N1  UNL     1       1.076  54.097 -24.428  1.00  0.00    -0.299 N 
ATOM      3  H1  UNL     1       1.227  54.428 -25.381  1.00  0.00     0.187 HD
HETATM    4  N2  UNL     1       1.509  54.651 -23.287  1.00  0.00    -0.299 N 
HETATM    5  C6  UNL     1       1.167  53.958 -22.163  1.00  0.00     0.065 A 
HETATM    6  C7  UNL     1       1.431  54.187 -20.812  1.00  0.00     0.080 A 
HETATM    7  C8  UNL     1       0.924  53.232 -19.941  1.00  0.00     0.111 A 
HETATM    8  N5  UNL     1       0.217  52.150 -20.343  1.00  0.00    -0.351 N 
ATOM      9  H5  UNL     1      -0.138  51.487 -19.653  1.00  0.00     0.166 HD
HETATM   10  C22 UNL     1      -0.020  51.948 -21.666  1.00  0.00     0.105 A 
HETATM   11  C23 UNL     1       0.442  52.862 -22.614  1.00  0.00     0.036 A 
HETATM   12  H5  UNL     1       2.045  55.512 -23.343  1.00  0.00     0.187 HD
ENDROOT
BRANCH   7  13
HETATM   13  N3  UNL     1       1.079  53.297 -18.555  1.00  0.00    -0.295 N 
HETATM   14  C9  UNL     1       0.974  52.282 -17.643  1.00  0.00     0.322 C 
HETATM   15  O1  UNL     1       0.666  51.121 -17.879  1.00  0.00    -0.247 OA
HETATM   16  N4  UNL     1       1.258  52.732 -16.367  1.00  0.00    -0.338 N 
HETATM   17  H8  UNL     1       1.891  53.516 -16.323  1.00  0.00     0.164 HD
HETATM   18  H7  UNL     1       1.121  54.245 -18.215  1.00  0.00     0.172 HD
BRANCH  16  19
HETATM   19  C10 UNL     1       1.275  51.809 -15.238  1.00  0.00     0.088 C 
HETATM   20  C11 UNL     1       0.709  50.451 -15.652  1.00  0.00     0.025 C 
HETATM   21  C12 UNL     1       0.806  49.425 -14.521  1.00  0.00     0.004 C 
HETATM   22  C13 UNL     1       0.715  50.046 -13.128  1.00  0.00     0.032 C 
HETATM   23  C14 UNL     1      -0.129  51.321 -13.133  1.00  0.00     0.131 C 
HETATM   24  C21 UNL     1       0.528  52.390 -14.024  1.00  0.00     0.057 C 
BRANCH  23  25
HETATM   25  O2  UNL     1      -0.224  51.870 -11.815  1.00  0.00    -0.346 OA
BRANCH  25  26
HETATM   26  C15 UNL     1      -1.419  52.371 -11.382  1.00  0.00     0.072 A 
HETATM   27  C16 UNL     1      -1.358  53.694 -10.925  1.00  0.00     0.037 A 
HETATM   28  C17 UNL     1      -2.499  54.344 -10.445  1.00  0.00     0.006 A 
HETATM   29  C18 UNL     1      -3.715  53.668 -10.416  1.00  0.00     0.042 A 
HETATM   30  C19 UNL     1      -3.771  52.354 -10.868  1.00  0.00     0.119 A 
HETATM   31  F1  UNL     1      -4.940  51.700 -10.835  1.00  0.00    -0.206 F 
HETATM   32  C20 UNL     1      -2.639  51.699 -11.348  1.00  0.00     0.079 A 
ENDBRANCH  25  26
ENDBRANCH  23  25
ENDBRANCH  16  19
ENDBRANCH   7  13
BRANCH   1  33
HETATM   33  C4  UNL     1      -0.250  52.139 -25.022  1.00  0.00    -0.004 A 
HETATM   34  C3  UNL     1      -1.186  51.187 -24.606  1.00  0.00     0.038 A 
HETATM   35  C2  UNL     1      -1.790  50.370 -25.556  1.00  0.00     0.005 A 
HETATM   36  C1  UNL     1      -2.798  49.344 -25.133  1.00  0.00     0.068 C 
HETATM   37  N6  UNL     1      -1.514  50.464 -26.877  1.00  0.00    -0.369 N 
HETATM   38  C25 UNL     1      -0.594  51.376 -27.256  1.00  0.00     0.089 A 
ATOM     39  H6  UNL     1      -1.983  49.870 -27.560  1.00  0.00     0.165 HD
HETATM   40  C24 UNL     1       0.060  52.224 -26.379  1.00  0.00     0.031 A 
ENDBRANCH   1  33
TORSDOF 5
ENDMDL
MODEL 4
REMARK minimizedAffinity -9.94886684
REMARK  5 active torsions:
REMARK  status: ('A' for Active; 'I' for Inactive)
REMARK    1  A    between atoms: C4_4  and  C5_5 
REMARK    2  A    between atoms: C8_11  and  N3_12 
REMARK       I    between atoms: N3_12  and  C9_13 
REMARK       I    between atoms: C9_13  and  N4_15 
REMARK    3  A    between atoms: N4_15  and  C10_16 
REMARK    4  A    between atoms: C14_20  and  O2_21 
REMARK    5  A    between atoms: O2_21  and  C15_22 
ROOT
HETATM    1  C5  UNL     1      -0.423  52.063 -23.256  1.00  0.00     0.072 A 
HETATM    2  N1  UNL     1      -1.510  51.289 -23.102  1.00  0.00    -0.299 N 
ATOM      3  H1  UNL     1      -2.102  50.893 -23.831  1.00  0.00     0.187 HD
HETATM    4  N2  UNL     1      -1.641  51.153 -21.774  1.00  0.00    -0.299 N 
HETATM    5  C6  UNL     1      -0.702  51.826 -21.048  1.00  0.00     0.065 A 
HETATM    6  C7  UNL     1      -0.504  51.951 -19.673  1.00  0.00     0.080 A 
HETATM    7  C8  UNL     1       0.569  52.751 -19.300  1.00  0.00     0.111 A 
HETATM    8  N5  UNL     1       1.383  53.374 -20.185  1.00  0.00    -0.351 N 
ATOM      9  H5  UNL     1       2.161  53.942 -19.850  1.00  0.00     0.166 HD
HETATM   10  C22 UNL     1       1.162  53.241 -21.520  1.00  0.00     0.105 A 
HETATM   11  C23 UNL     1       0.113  52.446 -21.987  1.00  0.00     0.036 A 
HETATM   12  H5  UNL     1      -2.405  50.586 -21.421  1.00  0.00     0.187 HD
ENDROOT
BRANCH   7  13
HETATM   13  N3  UNL     1       0.928  52.985 -17.972  1.00  0.00    -0.295 N 
HETATM   14  C9  UNL     1       0.994  52.086 -16.942  1.00  0.00     0.322 C 
HETATM   15  O1  UNL     1       0.691  50.901 -16.990  1.00  0.00    -0.247 OA
HETATM   16  N4  UNL     1       1.451  52.690 -15.786  1.00  0.00    -0.338 N 
HETATM   17  H8  UNL     1       2.059  53.483 -15.931  1.00  0.00     0.164 HD
HETATM   18  H7  UNL     1       0.990  53.967 -17.755  1.00  0.00     0.172 HD
BRANCH  16  19
HETATM   19  C10 UNL     1       1.668  51.911 -14.573  1.00  0.00     0.088 C 
HETATM   20  C11 UNL     1       1.523  50.417 -14.867  1.00  0.00     0.025 C 
HETATM   21  C12 UNL     1       1.845  49.562 -13.640  1.00  0.00     0.004 C 
HETATM   22  C13 UNL     1       1.516  50.250 -12.316  1.00  0.00     0.032 C 
HETATM   23  C14 UNL     1       0.351  51.230 -12.465  1.00  0.00     0.131 C 
HETATM   24  C21 UNL     1       0.729  52.360 -13.439  1.00  0.00     0.057 C 
BRANCH  23  25
HETATM   25  O2  UNL     1       0.042  51.842 -11.209  1.00  0.00    -0.346 OA
BRANCH  25  26
HETATM   26  C15 UNL     1      -1.188  52.409 -11.023  1.00  0.00     0.072 A 
HETATM   27  C16 UNL     1      -1.149  53.741 -10.591  1.00  0.00     0.037 A 
HETATM   28  C17 UNL     1      -2.328  54.454 -10.352  1.00  0.00     0.006 A 
HETATM   29  C18 UNL     1      -3.559  53.835 -10.544  1.00  0.00     0.042 A 
HETATM   30  C19 UNL     1      -3.593  52.512 -10.971  1.00  0.00     0.119 A 
HETATM   31  F1  UNL     1      -4.777  51.912 -11.150  1.00  0.00    -0.206 F 
HETATM   32  C20 UNL     1      -2.423  51.793 -11.211  1.00  0.00     0.079 A 
ENDBRANCH  25  26
ENDBRANCH  23  25
ENDBRANCH  16  19
ENDBRANCH   7  13
BRANCH   1  33
HETATM   33  C4  UNL     1       0.052  52.418 -24.593  1.00  0.00    -0.004 A 
HETATM   34  C3  UNL     1       1.127  51.724 -25.159  1.00  0.00     0.038 A 
HETATM   35  C2  UNL     1       1.566  52.077 -26.431  1.00  0.00     0.005 A 
HETATM   36  C1  UNL     1       2.715  51.344 -27.058  1.00  0.00     0.068 C 
HETATM   37  N6  UNL     1       0.990  53.065 -27.152  1.00  0.00    -0.369 N 
HETATM   38  C25 UNL     1      -0.033  53.735 -26.581  1.00  0.00     0.089 A 
ATOM     39  H6  UNL     1       1.314  53.294 -28.092  1.00  0.00     0.165 HD
HETATM   40  C24 UNL     1      -0.531  53.456 -25.319  1.00  0.00     0.031 A 
ENDBRANCH   1  33
TORSDOF 5
ENDMDL
MODEL 5
REMARK minimizedAffinity -9.93710899
REMARK  5 active torsions:
REMARK  status: ('A' for Active; 'I' for Inactive)
REMARK    1  A    between atoms: C4_4  and  C5_5 
REMARK    2  A    between atoms: C8_11  and  N3_12 
REMARK       I    between atoms: N3_12  and  C9_13 
REMARK       I    between atoms: C9_13  and  N4_15 
REMARK    3  A    between atoms: N4_15  and  C10_16 
REMARK    4  A    between atoms: C14_20  and  O2_21 
REMARK    5  A    between atoms: O2_21  and  C15_22 
ROOT
HETATM    1  C5  UNL     1       0.229  52.852 -23.994  1.00  0.00     0.072 A 
HETATM    2  N1  UNL     1       1.008  53.594 -24.799  1.00  0.00    -0.299 N 
ATOM      3  H1  UNL     1       1.782  54.201 -24.531  1.00  0.00     0.187 HD
HETATM    4  N2  UNL     1       0.539  53.358 -26.033  1.00  0.00    -0.299 N 
HETATM    5  C6  UNL     1      -0.532  52.512 -26.072  1.00  0.00     0.065 A 
HETATM    6  C7  UNL     1      -1.302  52.036 -27.133  1.00  0.00     0.080 A 
HETATM    7  C8  UNL     1      -2.343  51.190 -26.774  1.00  0.00     0.111 A 
HETATM    8  N5  UNL     1      -2.612  50.831 -25.496  1.00  0.00    -0.351 N 
ATOM      9  H5  UNL     1      -3.386  50.197 -25.296  1.00  0.00     0.166 HD
HETATM   10  C22 UNL     1      -1.849  51.316 -24.481  1.00  0.00     0.105 A 
HETATM   11  C23 UNL     1      -0.773  52.165 -24.749  1.00  0.00     0.036 A 
HETATM   12  H5  UNL     1       0.995  53.813 -26.817  1.00  0.00     0.187 HD
ENDROOT
BRANCH   7  13
HETATM   13  N3  UNL     1      -3.213  50.608 -27.697  1.00  0.00    -0.295 N 
HETATM   14  C9  UNL     1      -3.708  49.332 -27.707  1.00  0.00     0.322 C 
HETATM   15  O1  UNL     1      -3.427  48.437 -26.919  1.00  0.00    -0.247 OA
HETATM   16  N4  UNL     1      -4.592  49.151 -28.753  1.00  0.00    -0.338 N 
HETATM   17  H8  UNL     1      -5.076  49.985 -29.051  1.00  0.00     0.164 HD
HETATM   18  H7  UNL     1      -3.346  51.179 -28.517  1.00  0.00     0.172 HD
BRANCH  16  19
HETATM   19  C10 UNL     1      -5.298  47.886 -28.924  1.00  0.00     0.088 C 
HETATM   20  C11 UNL     1      -5.280  47.461 -30.392  1.00  0.00     0.025 C 
HETATM   21  C12 UNL     1      -5.922  46.087 -30.594  1.00  0.00     0.004 C 
HETATM   22  C13 UNL     1      -7.028  45.779 -29.586  1.00  0.00     0.032 C 
HETATM   23  C14 UNL     1      -7.729  47.053 -29.112  1.00  0.00     0.131 C 
HETATM   24  C21 UNL     1      -6.734  47.964 -28.372  1.00  0.00     0.057 C 
BRANCH  23  25
HETATM   25  O2  UNL     1      -8.779  46.740 -28.191  1.00  0.00    -0.346 OA
BRANCH  25  26
HETATM   26  C15 UNL     1     -10.073  47.026 -28.526  1.00  0.00     0.072 A 
HETATM   27  C16 UNL     1     -10.333  46.993 -29.902  1.00  0.00     0.037 A 
HETATM   28  C17 UNL     1     -11.611  47.269 -30.399  1.00  0.00     0.006 A 
HETATM   29  C18 UNL     1     -12.640  47.583 -29.518  1.00  0.00     0.042 A 
HETATM   30  C19 UNL     1     -12.376  47.617 -28.153  1.00  0.00     0.119 A 
HETATM   31  F1  UNL     1     -13.365  47.925 -27.303  1.00  0.00    -0.206 F 
HETATM   32  C20 UNL     1     -11.106  47.343 -27.648  1.00  0.00     0.079 A 
ENDBRANCH  25  26
ENDBRANCH  23  25
ENDBRANCH  16  19
ENDBRANCH   7  13
BRANCH   1  33
HETATM   33  C4  UNL     1       0.455  52.837 -22.549  1.00  0.00    -0.004 A 
HETATM   34  C3  UNL     1      -0.059  51.793 -21.773  1.00  0.00     0.038 A 
HETATM   35  C2  UNL     1       0.164  51.795 -20.401  1.00  0.00     0.005 A 
HETATM   36  C1  UNL     1      -0.375  50.684 -19.550  1.00  0.00     0.068 C 
HETATM   37  N6  UNL     1       0.868  52.769 -19.780  1.00  0.00    -0.369 N 
HETATM   38  C25 UNL     1       1.338  53.778 -20.543  1.00  0.00     0.089 A 
ATOM     39  H6  UNL     1       1.038  52.741 -18.774  1.00  0.00     0.165 HD
HETATM   40  C24 UNL     1       1.159  53.859 -21.913  1.00  0.00     0.031 A 
ENDBRANCH   1  33
TORSDOF 5
ENDMDL
MODEL 6
REMARK minimizedAffinity -9.81884766
REMARK  5 active torsions:
REMARK  status: ('A' for Active; 'I' for Inactive)
REMARK    1  A    between atoms: C4_4  and  C5_5 
REMARK    2  A    between atoms: C8_11  and  N3_12 
REMARK       I    between atoms: N3_12  and  C9_13 
REMARK       I    between atoms: C9_13  and  N4_15 
REMARK    3  A    between atoms: N4_15  and  C10_16 
REMARK    4  A    between atoms: C14_20  and  O2_21 
REMARK    5  A    between atoms: O2_21  and  C15_22 
ROOT
HETATM    1  C5  UNL     1      -0.976  52.137 -23.277  1.00  0.00     0.072 A 
HETATM    2  N1  UNL     1       0.007  52.621 -24.054  1.00  0.00    -0.299 N 
ATOM      3  H1  UNL     1       0.048  52.635 -25.073  1.00  0.00     0.187 HD
HETATM    4  N2  UNL     1       0.924  53.080 -23.189  1.00  0.00    -0.299 N 
HETATM    5  C6  UNL     1       0.596  52.896 -21.877  1.00  0.00     0.065 A 
HETATM    6  C7  UNL     1       1.270  53.211 -20.697  1.00  0.00     0.080 A 
HETATM    7  C8  UNL     1       0.618  52.845 -19.528  1.00  0.00     0.111 A 
HETATM    8  N5  UNL     1      -0.588  52.230 -19.503  1.00  0.00    -0.351 N 
ATOM      9  H5  UNL     1      -1.023  51.994 -18.610  1.00  0.00     0.166 HD
HETATM   10  C22 UNL     1      -1.220  51.928 -20.668  1.00  0.00     0.105 A 
HETATM   11  C23 UNL     1      -0.643  52.269 -21.893  1.00  0.00     0.036 A 
HETATM   12  H5  UNL     1       1.765  53.510 -23.561  1.00  0.00     0.187 HD
ENDROOT
BRANCH   7  13
HETATM   13  N3  UNL     1       1.132  53.087 -18.253  1.00  0.00    -0.295 N 
HETATM   14  C9  UNL     1       0.932  52.364 -17.108  1.00  0.00     0.322 C 
HETATM   15  O1  UNL     1       0.207  51.385 -16.983  1.00  0.00    -0.247 OA
HETATM   16  N4  UNL     1       1.663  52.887 -16.058  1.00  0.00    -0.338 N 
HETATM   17  H8  UNL     1       2.509  53.367 -16.325  1.00  0.00     0.164 HD
HETATM   18  H7  UNL     1       1.570  53.991 -18.178  1.00  0.00     0.172 HD
BRANCH  16  19
HETATM   19  C10 UNL     1       1.660  52.239 -14.751  1.00  0.00     0.088 C 
HETATM   20  C11 UNL     1       2.236  50.827 -14.857  1.00  0.00     0.025 C 
HETATM   21  C12 UNL     1       2.345  50.153 -13.488  1.00  0.00     0.004 C 
HETATM   22  C13 UNL     1       1.275  50.612 -12.498  1.00  0.00     0.032 C 
HETATM   23  C14 UNL     1      -0.013  51.026 -13.211  1.00  0.00     0.131 C 
HETATM   24  C21 UNL     1       0.252  52.233 -14.128  1.00  0.00     0.057 C 
BRANCH  23  25
HETATM   25  O2  UNL     1      -1.009  51.425 -12.265  1.00  0.00    -0.346 OA
BRANCH  25  26
HETATM   26  C15 UNL     1      -0.893  52.632 -11.636  1.00  0.00     0.072 A 
HETATM   27  C16 UNL     1      -2.072  53.083 -11.030  1.00  0.00     0.037 A 
HETATM   28  C17 UNL     1      -2.112  54.305 -10.352  1.00  0.00     0.006 A 
HETATM   29  C18 UNL     1      -0.965  55.089 -10.277  1.00  0.00     0.042 A 
HETATM   30  C19 UNL     1       0.204  54.639 -10.882  1.00  0.00     0.119 A 
HETATM   31  F1  UNL     1       1.308  55.395 -10.816  1.00  0.00    -0.206 F 
HETATM   32  C20 UNL     1       0.252  53.422 -11.561  1.00  0.00     0.079 A 
ENDBRANCH  25  26
ENDBRANCH  23  25
ENDBRANCH  16  19
ENDBRANCH   7  13
BRANCH   1  33
HETATM   33  C4  UNL     1      -2.179  51.558 -23.877  1.00  0.00    -0.004 A 
HETATM   34  C3  UNL     1      -2.089  50.373 -24.614  1.00  0.00     0.038 A 
HETATM   35  C2  UNL     1      -3.242  49.837 -25.179  1.00  0.00     0.005 A 
HETATM   36  C1  UNL     1      -3.169  48.566 -25.971  1.00  0.00     0.068 C 
HETATM   37  N6  UNL     1      -4.457  50.414 -25.037  1.00  0.00    -0.369 N 
HETATM   38  C25 UNL     1      -4.519  51.568 -24.339  1.00  0.00     0.089 A 
ATOM     39  H6  UNL     1      -5.294  49.994 -25.442  1.00  0.00     0.165 HD
HETATM   40  C24 UNL     1      -3.423  52.174 -23.749  1.00  0.00     0.031 A 
ENDBRANCH   1  33
TORSDOF 5
ENDMDL
MODEL 7
REMARK minimizedAffinity -9.62094879
REMARK  5 active torsions:
REMARK  status: ('A' for Active; 'I' for Inactive)
REMARK    1  A    between atoms: C4_4  and  C5_5 
REMARK    2  A    between atoms: C8_11  and  N3_12 
REMARK       I    between atoms: N3_12  and  C9_13 
REMARK       I    between atoms: C9_13  and  N4_15 
REMARK    3  A    between atoms: N4_15  and  C10_16 
REMARK    4  A    between atoms: C14_20  and  O2_21 
REMARK    5  A    between atoms: O2_21  and  C15_22 
ROOT
HETATM    1  C5  UNL     1       0.077  52.694 -24.233  1.00  0.00     0.072 A 
HETATM    2  N1  UNL     1       0.804  53.691 -24.764  1.00  0.00    -0.299 N 
ATOM      3  H1  UNL     1       0.915  53.925 -25.750  1.00  0.00     0.187 HD
HETATM    4  N2  UNL     1       1.348  54.310 -23.706  1.00  0.00    -0.299 N 
HETATM    5  C6  UNL     1       1.032  53.747 -22.504  1.00  0.00     0.065 A 
HETATM    6  C7  UNL     1       1.399  54.073 -21.199  1.00  0.00     0.080 A 
HETATM    7  C8  UNL     1       0.884  53.240 -20.214  1.00  0.00     0.111 A 
HETATM    8  N5  UNL     1       0.078  52.183 -20.472  1.00  0.00    -0.351 N 
ATOM      9  H5  UNL     1      -0.276  51.612 -19.704  1.00  0.00     0.166 HD
HETATM   10  C22 UNL     1      -0.257  51.883 -21.755  1.00  0.00     0.105 A 
HETATM   11  C23 UNL     1       0.205  52.673 -22.809  1.00  0.00     0.036 A 
HETATM   12  H5  UNL     1       1.938  55.120 -23.873  1.00  0.00     0.187 HD
ENDROOT
BRANCH   7  13
HETATM   13  N3  UNL     1       1.133  53.415 -18.852  1.00  0.00    -0.295 N 
HETATM   14  C9  UNL     1       0.981  52.507 -17.840  1.00  0.00     0.322 C 
HETATM   15  O1  UNL     1       0.537  51.370 -17.943  1.00  0.00    -0.247 OA
HETATM   16  N4  UNL     1       1.391  53.038 -16.632  1.00  0.00    -0.338 N 
HETATM   17  H8  UNL     1       2.105  53.748 -16.699  1.00  0.00     0.164 HD
HETATM   18  H7  UNL     1       1.296  54.380 -18.610  1.00  0.00     0.172 HD
BRANCH  16  19
HETATM   19  C10 UNL     1       1.383  52.228 -15.419  1.00  0.00     0.088 C 
HETATM   20  C11 UNL     1       2.613  51.319 -15.379  1.00  0.00     0.025 C 
HETATM   21  C12 UNL     1       2.693  50.528 -14.072  1.00  0.00     0.004 C 
HETATM   22  C13 UNL     1       1.325  50.211 -13.469  1.00  0.00     0.032 C 
HETATM   23  C14 UNL     1       0.249  50.084 -14.547  1.00  0.00     0.131 C 
HETATM   24  C21 UNL     1       0.077  51.422 -15.288  1.00  0.00     0.057 C 
BRANCH  23  25
HETATM   25  O2  UNL     1      -1.016  49.760 -13.964  1.00  0.00    -0.346 OA
BRANCH  25  26
HETATM   26  C15 UNL     1      -1.693  50.712 -13.255  1.00  0.00     0.072 A 
HETATM   27  C16 UNL     1      -1.347  50.776 -11.899  1.00  0.00     0.037 A 
HETATM   28  C17 UNL     1      -1.958  51.697 -11.043  1.00  0.00     0.006 A 
HETATM   29  C18 UNL     1      -2.926  52.564 -11.541  1.00  0.00     0.042 A 
HETATM   30  C19 UNL     1      -3.268  52.495 -12.887  1.00  0.00     0.119 A 
HETATM   31  F1  UNL     1      -4.204  53.325 -13.368  1.00  0.00    -0.206 F 
HETATM   32  C20 UNL     1      -2.665  51.580 -13.748  1.00  0.00     0.079 A 
ENDBRANCH  25  26
ENDBRANCH  23  25
ENDBRANCH  16  19
ENDBRANCH   7  13
BRANCH   1  33
HETATM   33  C4  UNL     1      -0.691  51.795 -25.095  1.00  0.00    -0.004 A 
HETATM   34  C3  UNL     1      -1.465  50.777 -24.528  1.00  0.00     0.038 A 
HETATM   35  C2  UNL     1      -2.188  49.931 -25.361  1.00  0.00     0.005 A 
HETATM   36  C1  UNL     1      -3.027  48.835 -24.775  1.00  0.00     0.068 C 
HETATM   37  N6  UNL     1      -2.180  50.056 -26.708  1.00  0.00    -0.369 N 
HETATM   38  C25 UNL     1      -1.411  51.031 -27.237  1.00  0.00     0.089 A 
ATOM     39  H6  UNL     1      -2.734  49.437 -27.301  1.00  0.00     0.165 HD
HETATM   40  C24 UNL     1      -0.656  51.913 -26.484  1.00  0.00     0.031 A 
ENDBRANCH   1  33
TORSDOF 5
ENDMDL
MODEL 8
REMARK minimizedAffinity -9.60090828
REMARK  5 active torsions:
REMARK  status: ('A' for Active; 'I' for Inactive)
REMARK    1  A    between atoms: C4_4  and  C5_5 
REMARK    2  A    between atoms: C8_11  and  N3_12 
REMARK       I    between atoms: N3_12  and  C9_13 
REMARK       I    between atoms: C9_13  and  N4_15 
REMARK    3  A    between atoms: N4_15  and  C10_16 
REMARK    4  A    between atoms: C14_20  and  O2_21 
REMARK    5  A    between atoms: O2_21  and  C15_22 
ROOT
HETATM    1  C5  UNL     1      -0.633  51.745 -23.500  1.00  0.00     0.072 A 
HETATM    2  N1  UNL     1      -1.679  50.936 -23.264  1.00  0.00    -0.299 N 
ATOM      3  H1  UNL     1      -2.284  50.483 -23.949  1.00  0.00     0.187 HD
HETATM    4  N2  UNL     1      -1.751  50.860 -21.927  1.00  0.00    -0.299 N 
HETATM    5  C6  UNL     1      -0.813  51.604 -21.273  1.00  0.00     0.065 A 
HETATM    6  C7  UNL     1      -0.565  51.802 -19.915  1.00  0.00     0.080 A 
HETATM    7  C8  UNL     1       0.486  52.661 -19.626  1.00  0.00     0.111 A 
HETATM    8  N5  UNL     1       1.238  53.273 -20.572  1.00  0.00    -0.351 N 
ATOM      9  H5  UNL     1       2.004  53.887 -20.296  1.00  0.00     0.166 HD
HETATM   10  C22 UNL     1       0.969  53.067 -21.888  1.00  0.00     0.105 A 
HETATM   11  C23 UNL     1      -0.063  52.210 -22.273  1.00  0.00     0.036 A 
HETATM   12  H5  UNL     1      -2.476  50.279 -21.516  1.00  0.00     0.187 HD
ENDROOT
BRANCH   7  13
HETATM   13  N3  UNL     1       0.889  52.973 -18.326  1.00  0.00    -0.295 N 
HETATM   14  C9  UNL     1       0.942  52.148 -17.235  1.00  0.00     0.322 C 
HETATM   15  O1  UNL     1       0.587  50.976 -17.191  1.00  0.00    -0.247 OA
HETATM   16  N4  UNL     1       1.454  52.811 -16.136  1.00  0.00    -0.338 N 
HETATM   17  H8  UNL     1       2.091  53.564 -16.352  1.00  0.00     0.164 HD
HETATM   18  H7  UNL     1       0.998  53.964 -18.182  1.00  0.00     0.172 HD
BRANCH  16  19
HETATM   19  C10 UNL     1       1.667  52.111 -14.875  1.00  0.00     0.088 C 
HETATM   20  C11 UNL     1       1.696  50.599 -15.104  1.00  0.00     0.025 C 
HETATM   21  C12 UNL     1       2.022  49.835 -13.819  1.00  0.00     0.004 C 
HETATM   22  C13 UNL     1       1.535  50.541 -12.553  1.00  0.00     0.032 C 
HETATM   23  C14 UNL     1       0.289  51.385 -12.822  1.00  0.00     0.131 C 
HETATM   24  C21 UNL     1       0.613  52.507 -13.825  1.00  0.00     0.057 C 
BRANCH  23  25
HETATM   25  O2  UNL     1      -0.166  52.013 -11.620  1.00  0.00    -0.346 OA
BRANCH  25  26
HETATM   26  C15 UNL     1      -1.508  52.136 -11.393  1.00  0.00     0.072 A 
HETATM   27  C16 UNL     1      -2.257  51.002 -11.733  1.00  0.00     0.037 A 
HETATM   28  C17 UNL     1      -3.645  50.978 -11.563  1.00  0.00     0.006 A 
HETATM   29  C18 UNL     1      -4.295  52.096 -11.050  1.00  0.00     0.042 A 
HETATM   30  C19 UNL     1      -3.548  53.221 -10.716  1.00  0.00     0.119 A 
HETATM   31  F1  UNL     1      -4.174  54.301 -10.228  1.00  0.00    -0.206 F 
HETATM   32  C20 UNL     1      -2.165  53.254 -10.883  1.00  0.00     0.079 A 
ENDBRANCH  25  26
ENDBRANCH  23  25
ENDBRANCH  16  19
ENDBRANCH   7  13
BRANCH   1  33
HETATM   33  C4  UNL     1      -0.227  52.055 -24.871  1.00  0.00    -0.004 A 
HETATM   34  C3  UNL     1      -0.340  53.363 -25.353  1.00  0.00     0.038 A 
HETATM   35  C2  UNL     1       0.048  53.640 -26.659  1.00  0.00     0.005 A 
HETATM   36  C1  UNL     1      -0.062  55.036 -27.195  1.00  0.00     0.068 C 
HETATM   37  N6  UNL     1       0.541  52.692 -27.488  1.00  0.00    -0.369 N 
HETATM   38  C25 UNL     1       0.623  51.432 -27.011  1.00  0.00     0.089 A 
ATOM     39  H6  UNL     1       0.839  52.919 -28.437  1.00  0.00     0.165 HD
HETATM   40  C24 UNL     1       0.254  51.066 -25.727  1.00  0.00     0.031 A 
ENDBRANCH   1  33
TORSDOF 5
ENDMDL
MODEL 9
REMARK minimizedAffinity -9.5490818
REMARK  5 active torsions:
REMARK  status: ('A' for Active; 'I' for Inactive)
REMARK    1  A    between atoms: C4_4  and  C5_5 
REMARK    2  A    between atoms: C8_11  and  N3_12 
REMARK       I    between atoms: N3_12  and  C9_13 
REMARK       I    between atoms: C9_13  and  N4_15 
REMARK    3  A    between atoms: N4_15  and  C10_16 
REMARK    4  A    between atoms: C14_20  and  O2_21 
REMARK    5  A    between atoms: O2_21  and  C15_22 
ROOT
HETATM    1  C5  UNL     1      -7.070  46.647 -29.127  1.00  0.00     0.072 A 
HETATM    2  N1  UNL     1      -8.138  46.107 -28.517  1.00  0.00    -0.299 N 
ATOM      3  H1  UNL     1      -8.883  45.553 -28.938  1.00  0.00     0.187 HD
HETATM    4  N2  UNL     1      -8.005  46.461 -27.230  1.00  0.00    -0.299 N 
HETATM    5  C6  UNL     1      -6.909  47.231 -26.972  1.00  0.00     0.065 A 
HETATM    6  C7  UNL     1      -6.431  47.805 -25.794  1.00  0.00     0.080 A 
HETATM    7  C8  UNL     1      -5.271  48.555 -25.929  1.00  0.00     0.111 A 
HETATM    8  N5  UNL     1      -4.624  48.730 -27.106  1.00  0.00    -0.351 N 
ATOM      9  H5  UNL     1      -3.768  49.285 -27.141  1.00  0.00     0.166 HD
HETATM   10  C22 UNL     1      -5.115  48.165 -28.241  1.00  0.00     0.105 A 
HETATM   11  C23 UNL     1      -6.272  47.384 -28.197  1.00  0.00     0.036 A 
HETATM   12  H5  UNL     1      -8.707  46.145 -26.568  1.00  0.00     0.187 HD
ENDROOT
BRANCH   7  13
HETATM   13  N3  UNL     1      -4.640  49.195 -24.861  1.00  0.00    -0.295 N 
HETATM   14  C9  UNL     1      -3.298  49.349 -24.639  1.00  0.00     0.322 C 
HETATM   15  O1  UNL     1      -2.391  48.896 -25.324  1.00  0.00    -0.247 OA
HETATM   16  N4  UNL     1      -3.068  50.097 -23.500  1.00  0.00    -0.338 N 
HETATM   17  H8  UNL     1      -3.794  50.759 -23.270  1.00  0.00     0.164 HD
HETATM   18  H7  UNL     1      -5.278  49.421 -24.115  1.00  0.00     0.172 HD
BRANCH  16  19
HETATM   19  C10 UNL     1      -1.710  50.449 -23.101  1.00  0.00     0.088 C 
HETATM   20  C11 UNL     1      -1.615  50.562 -21.579  1.00  0.00     0.025 C 
HETATM   21  C12 UNL     1      -0.182  50.829 -21.116  1.00  0.00     0.004 C 
HETATM   22  C13 UNL     1       0.645  51.622 -22.126  1.00  0.00     0.032 C 
HETATM   23  C14 UNL     1      -0.231  52.555 -22.964  1.00  0.00     0.131 C 
HETATM   24  C21 UNL     1      -1.233  51.736 -23.797  1.00  0.00     0.057 C 
BRANCH  23  25
HETATM   25  O2  UNL     1       0.566  53.308 -23.883  1.00  0.00    -0.346 OA
BRANCH  25  26
HETATM   26  C15 UNL     1       0.567  52.967 -25.206  1.00  0.00     0.072 A 
HETATM   27  C16 UNL     1       1.333  51.834 -25.509  1.00  0.00     0.037 A 
HETATM   28  C17 UNL     1       1.437  51.365 -26.822  1.00  0.00     0.006 A 
HETATM   29  C18 UNL     1       0.772  52.033 -27.846  1.00  0.00     0.042 A 
HETATM   30  C19 UNL     1       0.015  53.158 -27.541  1.00  0.00     0.119 A 
HETATM   31  F1  UNL     1      -0.621  53.806 -28.527  1.00  0.00    -0.206 F 
HETATM   32  C20 UNL     1      -0.094  53.633 -26.235  1.00  0.00     0.079 A 
ENDBRANCH  25  26
ENDBRANCH  23  25
ENDBRANCH  16  19
ENDBRANCH   7  13
BRANCH   1  33
HETATM   33  C4  UNL     1      -6.859  46.455 -30.562  1.00  0.00    -0.004 A 
HETATM   34  C3  UNL     1      -5.617  46.755 -31.130  1.00  0.00     0.038 A 
HETATM   35  C2  UNL     1      -5.434  46.569 -32.496  1.00  0.00     0.005 A 
HETATM   36  C1  UNL     1      -4.109  46.881 -33.126  1.00  0.00     0.068 C 
HETATM   37  N6  UNL     1      -6.411  46.098 -33.304  1.00  0.00    -0.369 N 
HETATM   38  C25 UNL     1      -7.609  45.833 -32.740  1.00  0.00     0.089 A 
ATOM     39  H6  UNL     1      -6.250  45.949 -34.300  1.00  0.00     0.165 HD
HETATM   40  C24 UNL     1      -7.881  45.995 -31.391  1.00  0.00     0.031 A 
ENDBRANCH   1  33
TORSDOF 5
ENDMDL
