MODEL 1
REMARK minimizedAffinity -9.07069683
REMARK  6 active torsions:
REMARK  status: ('A' for Active; 'I' for Inactive)
REMARK    1  A    between atoms: O1_2  and  C2_3 
REMARK    2  A    between atoms: C2_3  and  C3_4 
REMARK    3  A    between atoms: C3_4  and  N1_5 
REMARK    4  A    between atoms: C3_4  and  C17_28 
REMARK       I    between atoms: N1_5  and  C4_6 
REMARK       I    between atoms: C4_6  and  N2_8 
REMARK    5  A    between atoms: N2_8  and  C5_9 
REMARK    6  A    between atoms: N5_16  and  C9_17 
ROOT
HETATM    1  C5  UNL     1      -3.300  48.789 -24.627  1.00  0.00     0.111 A 
HETATM    2  C6  UNL     1      -4.636  48.409 -24.597  1.00  0.00     0.080 A 
HETATM    3  C7  UNL     1      -5.239  48.260 -25.845  1.00  0.00     0.067 A 
HETATM    4  N3  UNL     1      -6.503  47.901 -26.210  1.00  0.00    -0.298 N 
HETATM    5  N4  UNL     1      -6.704  47.873 -27.535  1.00  0.00    -0.284 N 
ATOM      6  H4  UNL     1      -7.565  47.638 -28.028  1.00  0.00     0.188 HD
HETATM    7  C8  UNL     1      -5.528  48.221 -28.068  1.00  0.00     0.134 A 
HETATM    8  N5  UNL     1      -5.217  48.332 -29.387  1.00  0.00    -0.341 N 
HETATM    9  C15 UNL     1      -4.567  48.476 -27.039  1.00  0.00     0.053 A 
HETATM   10  C16 UNL     1      -3.227  48.861 -26.974  1.00  0.00     0.107 A 
HETATM   11  N6  UNL     1      -2.612  49.014 -25.772  1.00  0.00    -0.351 N 
ATOM     12  H6  UNL     1      -1.633  49.298 -25.732  1.00  0.00     0.166 HD
HETATM   13  H10 UNL     1      -7.278  47.661 -25.603  1.00  0.00     0.187 HD
HETATM   14  H11 UNL     1      -4.267  48.596 -29.616  1.00  0.00     0.167 HD
ENDROOT
BRANCH   1  15
HETATM   15  N2  UNL     1      -2.529  48.990 -23.483  1.00  0.00    -0.295 N 
HETATM   16  C4  UNL     1      -2.660  49.960 -22.526  1.00  0.00     0.322 C 
HETATM   17  N1  UNL     1      -1.693  49.842 -21.558  1.00  0.00    -0.332 N 
HETATM   18  O2  UNL     1      -3.513  50.836 -22.494  1.00  0.00    -0.247 OA
HETATM   19  H7  UNL     1      -0.873  49.292 -21.761  1.00  0.00     0.165 HD
HETATM   20  H8  UNL     1      -1.866  48.246 -23.331  1.00  0.00     0.172 HD
BRANCH  17  21
HETATM   21  C3  UNL     1      -1.600  50.775 -20.435  1.00  0.00     0.143 C 
BRANCH  21  22
HETATM   22  C2  UNL     1      -3.000  51.291 -20.013  1.00  0.00     0.197 C 
BRANCH  22  23
HETATM   23  O1  UNL     1      -2.967  51.825 -18.685  1.00  0.00    -0.394 OA
HETATM   24  C1  UNL     1      -2.782  50.805 -17.714  1.00  0.00     0.201 C 
ENDBRANCH  22  23
ENDBRANCH  21  22
BRANCH  21  25
HETATM   25  C17 UNL     1      -0.579  51.845 -20.809  1.00  0.00    -0.033 A 
HETATM   26  C18 UNL     1      -0.052  52.762 -19.887  1.00  0.00     0.009 A 
HETATM   27  C19 UNL     1       0.853  53.746 -20.296  1.00  0.00     0.001 A 
HETATM   28  C20 UNL     1       1.237  53.834 -21.632  1.00  0.00     0.000 A 
HETATM   29  C21 UNL     1       0.718  52.939 -22.563  1.00  0.00     0.001 A 
HETATM   30  C22 UNL     1      -0.184  51.955 -22.155  1.00  0.00     0.009 A 
ENDBRANCH  21  25
ENDBRANCH  17  21
ENDBRANCH   1  15
BRANCH   8  31
HETATM   31  C9  UNL     1      -5.989  48.141 -30.555  1.00  0.00     0.033 A 
HETATM   32  C10 UNL     1      -7.301  48.654 -30.583  1.00  0.00     0.032 A 
HETATM   33  C11 UNL     1      -8.116  48.502 -31.708  1.00  0.00     0.044 A 
HETATM   34  C12 UNL     1      -7.626  47.834 -32.820  1.00  0.00     0.116 A 
HETATM   35  F1  UNL     1      -8.405  47.687 -33.900  1.00  0.00    -0.206 F 
HETATM   36  C13 UNL     1      -6.339  47.317 -32.825  1.00  0.00     0.044 A 
HETATM   37  C14 UNL     1      -5.527  47.472 -31.696  1.00  0.00     0.032 A 
ENDBRANCH   8  31
TORSDOF 6
ENDMDL
MODEL 2
REMARK minimizedAffinity -8.87518406
REMARK  6 active torsions:
REMARK  status: ('A' for Active; 'I' for Inactive)
REMARK    1  A    between atoms: O1_2  and  C2_3 
REMARK    2  A    between atoms: C2_3  and  C3_4 
REMARK    3  A    between atoms: C3_4  and  N1_5 
REMARK    4  A    between atoms: C3_4  and  C17_28 
REMARK       I    between atoms: N1_5  and  C4_6 
REMARK       I    between atoms: C4_6  and  N2_8 
REMARK    5  A    between atoms: N2_8  and  C5_9 
REMARK    6  A    between atoms: N5_16  and  C9_17 
ROOT
HETATM    1  C5  UNL     1      -3.400  48.718 -24.222  1.00  0.00     0.111 A 
HETATM    2  C6  UNL     1      -2.941  48.640 -25.530  1.00  0.00     0.080 A 
HETATM    3  C7  UNL     1      -3.923  48.403 -26.491  1.00  0.00     0.067 A 
HETATM    4  N3  UNL     1      -3.859  48.273 -27.847  1.00  0.00    -0.298 N 
HETATM    5  N4  UNL     1      -5.044  48.044 -28.432  1.00  0.00    -0.284 N 
ATOM      6  H4  UNL     1      -5.231  47.911 -29.425  1.00  0.00     0.188 HD
HETATM    7  C8  UNL     1      -5.925  48.028 -27.427  1.00  0.00     0.134 A 
HETATM    8  N5  UNL     1      -7.269  47.838 -27.507  1.00  0.00    -0.341 N 
HETATM    9  C15 UNL     1      -5.265  48.251 -26.177  1.00  0.00     0.053 A 
HETATM   10  C16 UNL     1      -5.636  48.340 -24.835  1.00  0.00     0.107 A 
HETATM   11  N6  UNL     1      -4.701  48.570 -23.875  1.00  0.00    -0.351 N 
ATOM     12  H6  UNL     1      -4.979  48.632 -22.896  1.00  0.00     0.166 HD
HETATM   13  H10 UNL     1      -3.037  48.330 -28.437  1.00  0.00     0.187 HD
HETATM   14  H11 UNL     1      -7.792  47.870 -26.640  1.00  0.00     0.167 HD
ENDROOT
BRANCH   1  15
HETATM   15  N2  UNL     1      -2.570  48.946 -23.125  1.00  0.00    -0.295 N 
HETATM   16  C4  UNL     1      -2.660  49.930 -22.177  1.00  0.00     0.322 C 
HETATM   17  N1  UNL     1      -1.640  49.839 -21.262  1.00  0.00    -0.332 N 
HETATM   18  O2  UNL     1      -3.521  50.796 -22.112  1.00  0.00    -0.247 OA
HETATM   19  H7  UNL     1      -0.825  49.295 -21.501  1.00  0.00     0.165 HD
HETATM   20  H8  UNL     1      -1.890  48.213 -22.998  1.00  0.00     0.172 HD
BRANCH  17  21
HETATM   21  C3  UNL     1      -1.497  50.790 -20.161  1.00  0.00     0.143 C 
BRANCH  21  22
HETATM   22  C2  UNL     1      -2.877  51.305 -19.677  1.00  0.00     0.197 C 
BRANCH  22  23
HETATM   23  O1  UNL     1      -2.807  51.751 -18.319  1.00  0.00    -0.394 OA
HETATM   24  C1  UNL     1      -2.447  50.696 -17.438  1.00  0.00     0.201 C 
ENDBRANCH  22  23
ENDBRANCH  21  22
BRANCH  21  25
HETATM   25  C17 UNL     1      -0.503  51.859 -20.602  1.00  0.00    -0.033 A 
HETATM   26  C18 UNL     1       0.059  52.799 -19.724  1.00  0.00     0.009 A 
HETATM   27  C19 UNL     1       0.936  53.781 -20.194  1.00  0.00     0.001 A 
HETATM   28  C20 UNL     1       1.258  53.845 -21.548  1.00  0.00     0.000 A 
HETATM   29  C21 UNL     1       0.703  52.927 -22.436  1.00  0.00     0.001 A 
HETATM   30  C22 UNL     1      -0.171  51.945 -21.967  1.00  0.00     0.009 A 
ENDBRANCH  21  25
ENDBRANCH  17  21
ENDBRANCH   1  15
BRANCH   8  31
HETATM   31  C9  UNL     1      -8.121  47.597 -28.609  1.00  0.00     0.033 A 
HETATM   32  C10 UNL     1      -8.521  48.692 -29.399  1.00  0.00     0.032 A 
HETATM   33  C11 UNL     1      -9.360  48.523 -30.504  1.00  0.00     0.044 A 
HETATM   34  C12 UNL     1      -9.808  47.251 -30.831  1.00  0.00     0.116 A 
HETATM   35  F1  UNL     1     -10.612  47.085 -31.889  1.00  0.00    -0.206 F 
HETATM   36  C13 UNL     1      -9.432  46.152 -30.074  1.00  0.00     0.044 A 
HETATM   37  C14 UNL     1      -8.592  46.327 -28.969  1.00  0.00     0.032 A 
ENDBRANCH   8  31
TORSDOF 6
ENDMDL
MODEL 3
REMARK minimizedAffinity -8.87163639
REMARK  6 active torsions:
REMARK  status: ('A' for Active; 'I' for Inactive)
REMARK    1  A    between atoms: O1_2  and  C2_3 
REMARK    2  A    between atoms: C2_3  and  C3_4 
REMARK    3  A    between atoms: C3_4  and  N1_5 
REMARK    4  A    between atoms: C3_4  and  C17_28 
REMARK       I    between atoms: N1_5  and  C4_6 
REMARK       I    between atoms: C4_6  and  N2_8 
REMARK    5  A    between atoms: N2_8  and  C5_9 
REMARK    6  A    between atoms: N5_16  and  C9_17 
ROOT
HETATM    1  C5  UNL     1      -2.968  50.826 -27.431  1.00  0.00     0.111 A 
HETATM    2  C6  UNL     1      -1.626  51.180 -27.485  1.00  0.00     0.080 A 
HETATM    3  C7  UNL     1      -1.043  51.486 -26.256  1.00  0.00     0.067 A 
HETATM    4  N3  UNL     1       0.224  51.861 -25.916  1.00  0.00    -0.298 N 
HETATM    5  N4  UNL     1       0.399  52.071 -24.604  1.00  0.00    -0.284 N 
ATOM      6  H4  UNL     1       1.254  52.359 -24.129  1.00  0.00     0.188 HD
HETATM    7  C8  UNL     1      -0.793  51.820 -24.054  1.00  0.00     0.134 A 
HETATM    8  N5  UNL     1      -1.129  51.887 -22.738  1.00  0.00    -0.341 N 
HETATM    9  C15 UNL     1      -1.741  51.445 -25.058  1.00  0.00     0.053 A 
HETATM   10  C16 UNL     1      -3.088  51.083 -25.099  1.00  0.00     0.107 A 
HETATM   11  N6  UNL     1      -3.684  50.780 -26.282  1.00  0.00    -0.351 N 
ATOM     12  H6  UNL     1      -4.669  50.517 -26.305  1.00  0.00     0.166 HD
HETATM   13  H10 UNL     1       1.017  51.992 -26.532  1.00  0.00     0.187 HD
HETATM   14  H11 UNL     1      -2.082  51.650 -22.492  1.00  0.00     0.167 HD
ENDROOT
BRANCH   1  15
HETATM   15  N2  UNL     1      -3.723  50.490 -28.554  1.00  0.00    -0.295 N 
HETATM   16  C4  UNL     1      -4.198  49.261 -28.925  1.00  0.00     0.322 C 
HETATM   17  N1  UNL     1      -4.885  49.328 -30.113  1.00  0.00    -0.332 N 
HETATM   18  O2  UNL     1      -4.057  48.213 -28.310  1.00  0.00    -0.247 OA
HETATM   19  H7  UNL     1      -4.749  50.133 -30.703  1.00  0.00     0.165 HD
HETATM   20  H8  UNL     1      -4.015  51.300 -29.077  1.00  0.00     0.172 HD
BRANCH  17  21
HETATM   21  C3  UNL     1      -5.472  48.143 -30.738  1.00  0.00     0.143 C 
BRANCH  21  22
HETATM   22  C2  UNL     1      -5.169  48.099 -32.258  1.00  0.00     0.197 C 
BRANCH  22  23
HETATM   23  O1  UNL     1      -3.958  47.379 -32.515  1.00  0.00    -0.394 OA
HETATM   24  C1  UNL     1      -3.421  47.694 -33.792  1.00  0.00     0.201 C 
ENDBRANCH  22  23
ENDBRANCH  21  22
BRANCH  21  25
HETATM   25  C17 UNL     1      -6.947  48.101 -30.351  1.00  0.00    -0.033 A 
HETATM   26  C18 UNL     1      -7.922  48.922 -30.940  1.00  0.00     0.009 A 
HETATM   27  C19 UNL     1      -9.253  48.866 -30.516  1.00  0.00     0.001 A 
HETATM   28  C20 UNL     1      -9.628  47.998 -29.493  1.00  0.00     0.000 A 
HETATM   29  C21 UNL     1      -8.674  47.183 -28.891  1.00  0.00     0.001 A 
HETATM   30  C22 UNL     1      -7.345  47.237 -29.315  1.00  0.00     0.009 A 
ENDBRANCH  21  25
ENDBRANCH  17  21
ENDBRANCH   1  15
BRANCH   8  31
HETATM   31  C9  UNL     1      -0.378  52.234 -21.591  1.00  0.00     0.033 A 
HETATM   32  C10 UNL     1      -0.634  51.548 -20.389  1.00  0.00     0.032 A 
HETATM   33  C11 UNL     1       0.074  51.841 -19.220  1.00  0.00     0.044 A 
HETATM   34  C12 UNL     1       1.051  52.825 -19.244  1.00  0.00     0.116 A 
HETATM   35  F1  UNL     1       1.733  53.108 -18.126  1.00  0.00    -0.206 F 
HETATM   36  C13 UNL     1       1.329  53.518 -20.412  1.00  0.00     0.044 A 
HETATM   37  C14 UNL     1       0.617  53.222 -21.579  1.00  0.00     0.032 A 
ENDBRANCH   8  31
TORSDOF 6
ENDMDL
MODEL 4
REMARK minimizedAffinity -8.78549671
REMARK  6 active torsions:
REMARK  status: ('A' for Active; 'I' for Inactive)
REMARK    1  A    between atoms: O1_2  and  C2_3 
REMARK    2  A    between atoms: C2_3  and  C3_4 
REMARK    3  A    between atoms: C3_4  and  N1_5 
REMARK    4  A    between atoms: C3_4  and  C17_28 
REMARK       I    between atoms: N1_5  and  C4_6 
REMARK       I    between atoms: C4_6  and  N2_8 
REMARK    5  A    between atoms: N2_8  and  C5_9 
REMARK    6  A    between atoms: N5_16  and  C9_17 
ROOT
HETATM    1  C5  UNL     1      -0.370  50.875 -20.843  1.00  0.00     0.111 A 
HETATM    2  C6  UNL     1       0.285  52.063 -20.541  1.00  0.00     0.080 A 
HETATM    3  C7  UNL     1       0.575  52.254 -19.191  1.00  0.00     0.067 A 
HETATM    4  N3  UNL     1       1.199  53.270 -18.528  1.00  0.00    -0.298 N 
HETATM    5  N4  UNL     1       1.287  53.086 -17.203  1.00  0.00    -0.284 N 
ATOM      6  H4  UNL     1       1.706  53.712 -16.515  1.00  0.00     0.188 HD
HETATM    7  C8  UNL     1       0.705  51.904 -16.981  1.00  0.00     0.134 A 
HETATM    8  N5  UNL     1       0.548  51.269 -15.789  1.00  0.00    -0.341 N 
HETATM    9  C15 UNL     1       0.237  51.336 -18.208  1.00  0.00     0.053 A 
HETATM   10  C16 UNL     1      -0.424  50.172 -18.601  1.00  0.00     0.107 A 
HETATM   11  N6  UNL     1      -0.720  49.957 -19.911  1.00  0.00    -0.351 N 
ATOM     12  H6  UNL     1      -1.206  49.105 -20.191  1.00  0.00     0.166 HD
HETATM   13  H10 UNL     1       1.590  54.118 -18.921  1.00  0.00     0.187 HD
HETATM   14  H11 UNL     1       0.091  50.365 -15.804  1.00  0.00     0.167 HD
ENDROOT
BRANCH   1  15
HETATM   15  N2  UNL     1      -0.746  50.507 -22.134  1.00  0.00    -0.295 N 
HETATM   16  C4  UNL     1      -0.955  51.310 -23.222  1.00  0.00     0.322 C 
HETATM   17  N1  UNL     1      -1.338  50.578 -24.319  1.00  0.00    -0.332 N 
HETATM   18  O2  UNL     1      -0.828  52.526 -23.261  1.00  0.00    -0.247 OA
HETATM   19  H7  UNL     1      -1.682  49.641 -24.177  1.00  0.00     0.165 HD
HETATM   20  H8  UNL     1      -0.757  49.507 -22.260  1.00  0.00     0.172 HD
BRANCH  17  21
HETATM   21  C3  UNL     1      -1.646  51.205 -25.604  1.00  0.00     0.143 C 
BRANCH  21  22
HETATM   22  C2  UNL     1      -2.792  50.459 -26.335  1.00  0.00     0.197 C 
BRANCH  22  23
HETATM   23  O1  UNL     1      -2.593  49.043 -26.283  1.00  0.00    -0.394 OA
HETATM   24  C1  UNL     1      -3.781  48.359 -25.912  1.00  0.00     0.201 C 
ENDBRANCH  22  23
ENDBRANCH  21  22
BRANCH  21  25
HETATM   25  C17 UNL     1      -0.338  51.340 -26.376  1.00  0.00    -0.033 A 
HETATM   26  C18 UNL     1       0.923  51.126 -25.798  1.00  0.00     0.009 A 
HETATM   27  C19 UNL     1       2.091  51.302 -26.547  1.00  0.00     0.001 A 
HETATM   28  C20 UNL     1       2.017  51.703 -27.879  1.00  0.00     0.000 A 
HETATM   29  C21 UNL     1       0.775  51.928 -28.467  1.00  0.00     0.001 A 
HETATM   30  C22 UNL     1      -0.391  51.751 -27.720  1.00  0.00     0.009 A 
ENDBRANCH  21  25
ENDBRANCH  17  21
ENDBRANCH   1  15
BRANCH   8  31
HETATM   31  C9  UNL     1       0.915  51.633 -14.473  1.00  0.00     0.033 A 
HETATM   32  C10 UNL     1      -0.051  52.252 -13.655  1.00  0.00     0.032 A 
HETATM   33  C11 UNL     1       0.245  52.635 -12.344  1.00  0.00     0.044 A 
HETATM   34  C12 UNL     1       1.514  52.400 -11.836  1.00  0.00     0.116 A 
HETATM   35  F1  UNL     1       1.802  52.765 -10.579  1.00  0.00    -0.206 F 
HETATM   36  C13 UNL     1       2.487  51.792 -12.615  1.00  0.00     0.044 A 
HETATM   37  C14 UNL     1       2.185  51.410 -13.927  1.00  0.00     0.032 A 
ENDBRANCH   8  31
TORSDOF 6
ENDMDL
MODEL 5
REMARK minimizedAffinity -8.7656889
REMARK  6 active torsions:
REMARK  status: ('A' for Active; 'I' for Inactive)
REMARK    1  A    between atoms: O1_2  and  C2_3 
REMARK    2  A    between atoms: C2_3  and  C3_4 
REMARK    3  A    between atoms: C3_4  and  N1_5 
REMARK    4  A    between atoms: C3_4  and  C17_28 
REMARK       I    between atoms: N1_5  and  C4_6 
REMARK       I    between atoms: C4_6  and  N2_8 
REMARK    5  A    between atoms: N2_8  and  C5_9 
REMARK    6  A    between atoms: N5_16  and  C9_17 
ROOT
HETATM    1  C5  UNL     1      -4.366  48.685 -26.806  1.00  0.00     0.111 A 
HETATM    2  C6  UNL     1      -3.116  49.103 -27.243  1.00  0.00     0.080 A 
HETATM    3  C7  UNL     1      -2.353  49.784 -26.294  1.00  0.00     0.067 A 
HETATM    4  N3  UNL     1      -1.104  50.329 -26.349  1.00  0.00    -0.298 N 
HETATM    5  N4  UNL     1      -0.711  50.914 -25.209  1.00  0.00    -0.284 N 
ATOM      6  H4  UNL     1       0.175  51.384 -25.025  1.00  0.00     0.188 HD
HETATM    7  C8  UNL     1      -1.735  50.746 -24.367  1.00  0.00     0.134 A 
HETATM    8  N5  UNL     1      -1.820  51.159 -23.074  1.00  0.00    -0.341 N 
HETATM    9  C15 UNL     1      -2.800  50.036 -25.006  1.00  0.00     0.053 A 
HETATM   10  C16 UNL     1      -4.073  49.583 -24.655  1.00  0.00     0.107 A 
HETATM   11  N6  UNL     1      -4.839  48.916 -25.559  1.00  0.00    -0.351 N 
ATOM     12  H6  UNL     1      -5.769  48.590 -25.296  1.00  0.00     0.166 HD
HETATM   13  H10 UNL     1      -0.465  50.335 -27.136  1.00  0.00     0.187 HD
HETATM   14  H11 UNL     1      -2.671  50.935 -22.573  1.00  0.00     0.167 HD
ENDROOT
BRANCH   1  15
HETATM   15  N2  UNL     1      -5.272  47.992 -27.609  1.00  0.00    -0.295 N 
HETATM   16  C4  UNL     1      -5.380  47.998 -28.973  1.00  0.00     0.322 C 
HETATM   17  N1  UNL     1      -6.415  47.201 -29.398  1.00  0.00    -0.332 N 
HETATM   18  O2  UNL     1      -4.668  48.615 -29.754  1.00  0.00    -0.247 OA
HETATM   19  H7  UNL     1      -7.123  46.935 -28.731  1.00  0.00     0.165 HD
HETATM   20  H8  UNL     1      -5.834  47.343 -27.082  1.00  0.00     0.172 HD
BRANCH  17  21
HETATM   21  C3  UNL     1      -6.755  47.057 -30.813  1.00  0.00     0.143 C 
BRANCH  21  22
HETATM   22  C2  UNL     1      -8.258  47.345 -31.064  1.00  0.00     0.197 C 
BRANCH  22  23
HETATM   23  O1  UNL     1      -8.432  48.604 -31.722  1.00  0.00    -0.394 OA
HETATM   24  C1  UNL     1      -8.774  49.633 -30.804  1.00  0.00     0.201 C 
ENDBRANCH  22  23
ENDBRANCH  21  22
BRANCH  21  25
HETATM   25  C17 UNL     1      -6.251  45.692 -31.270  1.00  0.00    -0.033 A 
HETATM   26  C18 UNL     1      -5.111  45.520 -32.071  1.00  0.00     0.009 A 
HETATM   27  C19 UNL     1      -4.719  44.245 -32.491  1.00  0.00     0.001 A 
HETATM   28  C20 UNL     1      -5.464  43.126 -32.126  1.00  0.00     0.000 A 
HETATM   29  C21 UNL     1      -6.602  43.278 -31.340  1.00  0.00     0.001 A 
HETATM   30  C22 UNL     1      -6.994  44.550 -30.918  1.00  0.00     0.009 A 
ENDBRANCH  21  25
ENDBRANCH  17  21
ENDBRANCH   1  15
BRANCH   8  31
HETATM   31  C9  UNL     1      -0.915  51.869 -22.251  1.00  0.00     0.033 A 
HETATM   32  C10 UNL     1      -1.069  51.780 -20.854  1.00  0.00     0.032 A 
HETATM   33  C11 UNL     1      -0.207  52.454 -19.984  1.00  0.00     0.044 A 
HETATM   34  C12 UNL     1       0.821  53.225 -20.506  1.00  0.00     0.116 A 
HETATM   35  F1  UNL     1       1.649  53.873 -19.675  1.00  0.00    -0.206 F 
HETATM   36  C13 UNL     1       0.999  53.334 -21.877  1.00  0.00     0.044 A 
HETATM   37  C14 UNL     1       0.134  52.656 -22.743  1.00  0.00     0.032 A 
ENDBRANCH   8  31
TORSDOF 6
ENDMDL
MODEL 6
REMARK minimizedAffinity -8.74304104
REMARK  6 active torsions:
REMARK  status: ('A' for Active; 'I' for Inactive)
REMARK    1  A    between atoms: O1_2  and  C2_3 
REMARK    2  A    between atoms: C2_3  and  C3_4 
REMARK    3  A    between atoms: C3_4  and  N1_5 
REMARK    4  A    between atoms: C3_4  and  C17_28 
REMARK       I    between atoms: N1_5  and  C4_6 
REMARK       I    between atoms: C4_6  and  N2_8 
REMARK    5  A    between atoms: N2_8  and  C5_9 
REMARK    6  A    between atoms: N5_16  and  C9_17 
ROOT
HETATM    1  C5  UNL     1       0.841  52.763 -18.647  1.00  0.00     0.111 A 
HETATM    2  C6  UNL     1      -0.040  51.834 -19.185  1.00  0.00     0.080 A 
HETATM    3  C7  UNL     1      -0.100  51.810 -20.579  1.00  0.00     0.067 A 
HETATM    4  N3  UNL     1      -0.825  51.048 -21.447  1.00  0.00    -0.298 N 
HETATM    5  N4  UNL     1      -0.605  51.331 -22.739  1.00  0.00    -0.284 N 
ATOM      6  H4  UNL     1      -1.036  50.893 -23.553  1.00  0.00     0.188 HD
HETATM    7  C8  UNL     1       0.304  52.310 -22.726  1.00  0.00     0.134 A 
HETATM    8  N5  UNL     1       0.861  52.938 -23.796  1.00  0.00    -0.341 N 
HETATM    9  C15 UNL     1       0.657  52.651 -21.381  1.00  0.00     0.053 A 
HETATM   10  C16 UNL     1       1.512  53.557 -20.754  1.00  0.00     0.107 A 
HETATM   11  N6  UNL     1       1.592  53.603 -19.398  1.00  0.00    -0.351 N 
ATOM     12  H6  UNL     1       2.218  54.270 -18.946  1.00  0.00     0.166 HD
HETATM   13  H10 UNL     1      -1.490  50.317 -21.223  1.00  0.00     0.187 HD
HETATM   14  H11 UNL     1       1.549  53.656 -23.603  1.00  0.00     0.167 HD
ENDROOT
BRANCH   1  15
HETATM   15  N2  UNL     1       1.037  52.937 -17.278  1.00  0.00    -0.295 N 
HETATM   16  C4  UNL     1       1.000  51.996 -16.285  1.00  0.00     0.322 C 
HETATM   17  N1  UNL     1       1.222  52.560 -15.052  1.00  0.00    -0.332 N 
HETATM   18  O2  UNL     1       0.802  50.798 -16.429  1.00  0.00    -0.247 OA
HETATM   19  H7  UNL     1       1.115  53.557 -14.952  1.00  0.00     0.165 HD
HETATM   20  H8  UNL     1       1.338  53.872 -17.049  1.00  0.00     0.172 HD
BRANCH  17  21
HETATM   21  C3  UNL     1       1.209  51.768 -13.822  1.00  0.00     0.143 C 
BRANCH  21  22
HETATM   22  C2  UNL     1       1.585  50.289 -14.099  1.00  0.00     0.197 C 
BRANCH  22  23
HETATM   23  O1  UNL     1       2.958  50.044 -13.776  1.00  0.00    -0.394 OA
HETATM   24  C1  UNL     1       3.341  50.702 -12.577  1.00  0.00     0.201 C 
ENDBRANCH  22  23
ENDBRANCH  21  22
BRANCH  21  25
HETATM   25  C17 UNL     1      -0.136  51.999 -13.141  1.00  0.00    -0.033 A 
HETATM   26  C18 UNL     1      -1.356  51.557 -13.676  1.00  0.00     0.009 A 
HETATM   27  C19 UNL     1      -2.562  51.832 -13.025  1.00  0.00     0.001 A 
HETATM   28  C20 UNL     1      -2.569  52.558 -11.836  1.00  0.00     0.000 A 
HETATM   29  C21 UNL     1      -1.369  53.012 -11.295  1.00  0.00     0.001 A 
HETATM   30  C22 UNL     1      -0.164  52.736 -11.943  1.00  0.00     0.009 A 
ENDBRANCH  21  25
ENDBRANCH  17  21
ENDBRANCH   1  15
BRANCH   8  31
HETATM   31  C9  UNL     1       0.666  52.779 -25.187  1.00  0.00     0.033 A 
HETATM   32  C10 UNL     1       1.189  51.629 -25.810  1.00  0.00     0.032 A 
HETATM   33  C11 UNL     1       1.029  51.409 -27.181  1.00  0.00     0.044 A 
HETATM   34  C12 UNL     1       0.339  52.340 -27.944  1.00  0.00     0.116 A 
HETATM   35  F1  UNL     1       0.183  52.132 -29.258  1.00  0.00    -0.206 F 
HETATM   36  C13 UNL     1      -0.189  53.481 -27.361  1.00  0.00     0.044 A 
HETATM   37  C14 UNL     1      -0.026  53.697 -25.988  1.00  0.00     0.032 A 
ENDBRANCH   8  31
TORSDOF 6
ENDMDL
MODEL 7
REMARK minimizedAffinity -8.57148647
REMARK  6 active torsions:
REMARK  status: ('A' for Active; 'I' for Inactive)
REMARK    1  A    between atoms: O1_2  and  C2_3 
REMARK    2  A    between atoms: C2_3  and  C3_4 
REMARK    3  A    between atoms: C3_4  and  N1_5 
REMARK    4  A    between atoms: C3_4  and  C17_28 
REMARK       I    between atoms: N1_5  and  C4_6 
REMARK       I    between atoms: C4_6  and  N2_8 
REMARK    5  A    between atoms: N2_8  and  C5_9 
REMARK    6  A    between atoms: N5_16  and  C9_17 
ROOT
HETATM    1  C5  UNL     1      -4.353  48.728 -26.788  1.00  0.00     0.111 A 
HETATM    2  C6  UNL     1      -3.101  49.141 -27.225  1.00  0.00     0.080 A 
HETATM    3  C7  UNL     1      -2.327  49.800 -26.269  1.00  0.00     0.067 A 
HETATM    4  N3  UNL     1      -1.072  50.333 -26.323  1.00  0.00    -0.298 N 
HETATM    5  N4  UNL     1      -0.668  50.895 -25.175  1.00  0.00    -0.284 N 
ATOM      6  H4  UNL     1       0.224  51.354 -24.988  1.00  0.00     0.188 HD
HETATM    7  C8  UNL     1      -1.688  50.724 -24.330  1.00  0.00     0.134 A 
HETATM    8  N5  UNL     1      -1.763  51.117 -23.030  1.00  0.00    -0.341 N 
HETATM    9  C15 UNL     1      -2.764  50.035 -24.975  1.00  0.00     0.053 A 
HETATM   10  C16 UNL     1      -4.039  49.589 -24.625  1.00  0.00     0.107 A 
HETATM   11  N6  UNL     1      -4.817  48.944 -25.534  1.00  0.00    -0.351 N 
ATOM     12  H6  UNL     1      -5.749  48.622 -25.272  1.00  0.00     0.166 HD
HETATM   13  H10 UNL     1      -0.437  50.345 -27.112  1.00  0.00     0.187 HD
HETATM   14  H11 UNL     1      -2.613  50.893 -22.529  1.00  0.00     0.167 HD
ENDROOT
BRANCH   1  15
HETATM   15  N2  UNL     1      -5.269  48.057 -27.597  1.00  0.00    -0.295 N 
HETATM   16  C4  UNL     1      -5.340  48.030 -28.964  1.00  0.00     0.322 C 
HETATM   17  N1  UNL     1      -6.401  47.272 -29.395  1.00  0.00    -0.332 N 
HETATM   18  O2  UNL     1      -4.579  48.589 -29.740  1.00  0.00    -0.247 OA
HETATM   19  H7  UNL     1      -7.139  47.059 -28.742  1.00  0.00     0.165 HD
HETATM   20  H8  UNL     1      -5.876  47.451 -27.068  1.00  0.00     0.172 HD
BRANCH  17  21
HETATM   21  C3  UNL     1      -6.710  47.104 -30.815  1.00  0.00     0.143 C 
BRANCH  21  22
HETATM   22  C2  UNL     1      -5.989  48.171 -31.679  1.00  0.00     0.197 C 
BRANCH  22  23
HETATM   23  O1  UNL     1      -5.702  47.660 -32.985  1.00  0.00    -0.394 OA
HETATM   24  C1  UNL     1      -4.305  47.519 -33.197  1.00  0.00     0.201 C 
ENDBRANCH  22  23
ENDBRANCH  21  22
BRANCH  21  25
HETATM   25  C17 UNL     1      -8.228  47.048 -30.952  1.00  0.00    -0.033 A 
HETATM   26  C18 UNL     1      -8.887  46.247 -31.897  1.00  0.00     0.009 A 
HETATM   27  C19 UNL     1     -10.281  46.266 -32.002  1.00  0.00     0.001 A 
HETATM   28  C20 UNL     1     -11.036  47.091 -31.171  1.00  0.00     0.000 A 
HETATM   29  C21 UNL     1     -10.399  47.899 -30.234  1.00  0.00     0.001 A 
HETATM   30  C22 UNL     1      -9.008  47.879 -30.127  1.00  0.00     0.009 A 
ENDBRANCH  21  25
ENDBRANCH  17  21
ENDBRANCH   1  15
BRANCH   8  31
HETATM   31  C9  UNL     1      -0.847  51.805 -22.201  1.00  0.00     0.033 A 
HETATM   32  C10 UNL     1      -0.981  51.677 -20.805  1.00  0.00     0.032 A 
HETATM   33  C11 UNL     1      -0.107  52.328 -19.929  1.00  0.00     0.044 A 
HETATM   34  C12 UNL     1       0.913  53.114 -20.444  1.00  0.00     0.116 A 
HETATM   35  F1  UNL     1       1.752  53.739 -19.608  1.00  0.00    -0.206 F 
HETATM   36  C13 UNL     1       1.072  53.260 -21.814  1.00  0.00     0.044 A 
HETATM   37  C14 UNL     1       0.195  52.606 -22.686  1.00  0.00     0.032 A 
ENDBRANCH   8  31
TORSDOF 6
ENDMDL
MODEL 8
REMARK minimizedAffinity -8.44895077
REMARK  6 active torsions:
REMARK  status: ('A' for Active; 'I' for Inactive)
REMARK    1  A    between atoms: O1_2  and  C2_3 
REMARK    2  A    between atoms: C2_3  and  C3_4 
REMARK    3  A    between atoms: C3_4  and  N1_5 
REMARK    4  A    between atoms: C3_4  and  C17_28 
REMARK       I    between atoms: N1_5  and  C4_6 
REMARK       I    between atoms: C4_6  and  N2_8 
REMARK    5  A    between atoms: N2_8  and  C5_9 
REMARK    6  A    between atoms: N5_16  and  C9_17 
ROOT
HETATM    1  C5  UNL     1       0.884  52.573 -18.374  1.00  0.00     0.111 A 
HETATM    2  C6  UNL     1      -0.008  51.635 -18.878  1.00  0.00     0.080 A 
HETATM    3  C7  UNL     1      -0.109  51.599 -20.268  1.00  0.00     0.067 A 
HETATM    4  N3  UNL     1      -0.856  50.826 -21.108  1.00  0.00    -0.298 N 
HETATM    5  N4  UNL     1      -0.675  51.098 -22.408  1.00  0.00    -0.284 N 
ATOM      6  H4  UNL     1      -1.128  50.651 -23.206  1.00  0.00     0.188 HD
HETATM    7  C8  UNL     1       0.229  52.082 -22.431  1.00  0.00     0.134 A 
HETATM    8  N5  UNL     1       0.752  52.702 -23.522  1.00  0.00    -0.341 N 
HETATM    9  C15 UNL     1       0.620  52.435 -21.100  1.00  0.00     0.053 A 
HETATM   10  C16 UNL     1       1.489  53.351 -20.507  1.00  0.00     0.107 A 
HETATM   11  N6  UNL     1       1.609  53.410 -19.154  1.00  0.00    -0.351 N 
ATOM     12  H6  UNL     1       2.246  54.083 -18.727  1.00  0.00     0.166 HD
HETATM   13  H10 UNL     1      -1.510  50.094 -20.858  1.00  0.00     0.187 HD
HETATM   14  H11 UNL     1       1.441  53.425 -23.356  1.00  0.00     0.167 HD
ENDROOT
BRANCH   1  15
HETATM   15  N2  UNL     1       1.120  52.760 -17.013  1.00  0.00    -0.295 N 
HETATM   16  C4  UNL     1       0.705  51.988 -15.962  1.00  0.00     0.322 C 
HETATM   17  N1  UNL     1       1.120  52.511 -14.761  1.00  0.00    -0.332 N 
HETATM   18  O2  UNL     1       0.051  50.957 -16.034  1.00  0.00    -0.247 OA
HETATM   19  H7  UNL     1       1.414  53.475 -14.732  1.00  0.00     0.165 HD
HETATM   20  H8  UNL     1       1.764  53.515 -16.835  1.00  0.00     0.172 HD
BRANCH  17  21
HETATM   21  C3  UNL     1       0.784  51.885 -13.483  1.00  0.00     0.143 C 
BRANCH  21  22
HETATM   22  C2  UNL     1       0.111  52.896 -12.519  1.00  0.00     0.197 C 
BRANCH  22  23
HETATM   23  O1  UNL     1      -1.157  52.405 -12.071  1.00  0.00    -0.394 OA
HETATM   24  C1  UNL     1      -1.970  51.982 -13.156  1.00  0.00     0.201 C 
ENDBRANCH  22  23
ENDBRANCH  21  22
BRANCH  21  25
HETATM   25  C17 UNL     1       2.044  51.202 -12.960  1.00  0.00    -0.033 A 
HETATM   26  C18 UNL     1       2.393  51.166 -11.602  1.00  0.00     0.009 A 
HETATM   27  C19 UNL     1       3.581  50.557 -11.186  1.00  0.00     0.001 A 
HETATM   28  C20 UNL     1       4.441  49.984 -12.120  1.00  0.00     0.000 A 
HETATM   29  C21 UNL     1       4.116  50.018 -13.473  1.00  0.00     0.001 A 
HETATM   30  C22 UNL     1       2.929  50.624 -13.889  1.00  0.00     0.009 A 
ENDBRANCH  21  25
ENDBRANCH  17  21
ENDBRANCH   1  15
BRANCH   8  31
HETATM   31  C9  UNL     1       0.515  52.530 -24.906  1.00  0.00     0.033 A 
HETATM   32  C10 UNL     1       1.488  51.860 -25.673  1.00  0.00     0.032 A 
HETATM   33  C11 UNL     1       1.315  51.654 -27.044  1.00  0.00     0.044 A 
HETATM   34  C12 UNL     1       0.163  52.116 -27.663  1.00  0.00     0.116 A 
HETATM   35  F1  UNL     1      -0.006  51.920 -28.978  1.00  0.00    -0.206 F 
HETATM   36  C13 UNL     1      -0.814  52.779 -26.936  1.00  0.00     0.044 A 
HETATM   37  C14 UNL     1      -0.636  52.982 -25.563  1.00  0.00     0.032 A 
ENDBRANCH   8  31
TORSDOF 6
ENDMDL
MODEL 9
REMARK minimizedAffinity -8.40196419
REMARK  6 active torsions:
REMARK  status: ('A' for Active; 'I' for Inactive)
REMARK    1  A    between atoms: O1_2  and  C2_3 
REMARK    2  A    between atoms: C2_3  and  C3_4 
REMARK    3  A    between atoms: C3_4  and  N1_5 
REMARK    4  A    between atoms: C3_4  and  C17_28 
REMARK       I    between atoms: N1_5  and  C4_6 
REMARK       I    between atoms: C4_6  and  N2_8 
REMARK    5  A    between atoms: N2_8  and  C5_9 
REMARK    6  A    between atoms: N5_16  and  C9_17 
ROOT
HETATM    1  C5  UNL     1      -3.425  49.132 -25.687  1.00  0.00     0.111 A 
HETATM    2  C6  UNL     1      -4.638  48.741 -25.136  1.00  0.00     0.080 A 
HETATM    3  C7  UNL     1      -5.559  48.215 -26.042  1.00  0.00     0.067 A 
HETATM    4  N3  UNL     1      -6.823  47.729 -25.878  1.00  0.00    -0.298 N 
HETATM    5  N4  UNL     1      -7.399  47.307 -27.012  1.00  0.00    -0.284 N 
ATOM      6  H4  UNL     1      -8.333  46.913 -27.126  1.00  0.00     0.188 HD
HETATM    7  C8  UNL     1      -6.481  47.515 -27.961  1.00  0.00     0.134 A 
HETATM    8  N5  UNL     1      -6.586  47.242 -29.289  1.00  0.00    -0.341 N 
HETATM    9  C15 UNL     1      -5.298  48.089 -27.398  1.00  0.00     0.053 A 
HETATM   10  C16 UNL     1      -4.053  48.512 -27.865  1.00  0.00     0.107 A 
HETATM   11  N6  UNL     1      -3.135  49.029 -27.006  1.00  0.00    -0.351 N 
ATOM     12  H6  UNL     1      -2.227  49.339 -27.355  1.00  0.00     0.166 HD
HETATM   13  H10 UNL     1      -7.352  47.657 -25.016  1.00  0.00     0.187 HD
HETATM   14  H11 UNL     1      -5.783  47.453 -29.868  1.00  0.00     0.167 HD
ENDROOT
BRANCH   1  15
HETATM   15  N2  UNL     1      -2.381  49.682 -24.944  1.00  0.00    -0.295 N 
HETATM   16  C4  UNL     1      -1.954  50.982 -24.906  1.00  0.00     0.322 C 
HETATM   17  N1  UNL     1      -0.878  51.131 -24.066  1.00  0.00    -0.332 N 
HETATM   18  O2  UNL     1      -2.438  51.922 -25.521  1.00  0.00    -0.247 OA
HETATM   19  H7  UNL     1      -0.358  50.310 -23.798  1.00  0.00     0.165 HD
HETATM   20  H8  UNL     1      -1.984  49.022 -24.293  1.00  0.00     0.172 HD
BRANCH  17  21
HETATM   21  C3  UNL     1      -0.219  52.422 -23.869  1.00  0.00     0.143 C 
BRANCH  21  22
HETATM   22  C2  UNL     1       0.965  52.606 -24.853  1.00  0.00     0.197 C 
BRANCH  22  23
HETATM   23  O1  UNL     1       0.696  53.661 -25.782  1.00  0.00    -0.394 OA
HETATM   24  C1  UNL     1       0.347  53.156 -27.063  1.00  0.00     0.201 C 
ENDBRANCH  22  23
ENDBRANCH  21  22
BRANCH  21  25
HETATM   25  C17 UNL     1       0.119  52.545 -22.387  1.00  0.00    -0.033 A 
HETATM   26  C18 UNL     1      -0.473  51.750 -21.393  1.00  0.00     0.009 A 
HETATM   27  C19 UNL     1      -0.152  51.935 -20.045  1.00  0.00     0.001 A 
HETATM   28  C20 UNL     1       0.759  52.920 -19.669  1.00  0.00     0.000 A 
HETATM   29  C21 UNL     1       1.350  53.724 -20.640  1.00  0.00     0.001 A 
HETATM   30  C22 UNL     1       1.030  53.539 -21.986  1.00  0.00     0.009 A 
ENDBRANCH  21  25
ENDBRANCH  17  21
ENDBRANCH   1  15
BRANCH   8  31
HETATM   31  C9  UNL     1      -7.639  46.694 -30.057  1.00  0.00     0.033 A 
HETATM   32  C10 UNL     1      -8.615  47.567 -30.575  1.00  0.00     0.032 A 
HETATM   33  C11 UNL     1      -9.680  47.091 -31.345  1.00  0.00     0.044 A 
HETATM   34  C12 UNL     1      -9.779  45.732 -31.605  1.00  0.00     0.116 A 
HETATM   35  F1  UNL     1     -10.798  45.272 -32.342  1.00  0.00    -0.206 F 
HETATM   36  C13 UNL     1      -8.834  44.846 -31.110  1.00  0.00     0.044 A 
HETATM   37  C14 UNL     1      -7.769  45.328 -30.340  1.00  0.00     0.032 A 
ENDBRANCH   8  31
TORSDOF 6
ENDMDL
