MODEL 1
REMARK minimizedAffinity -8.53897667
REMARK  6 active torsions:
REMARK  status: ('A' for Active; 'I' for Inactive)
REMARK    1  A    between atoms: O1_2  and  C2_3 
REMARK    2  A    between atoms: C2_3  and  C3_4 
REMARK    3  A    between atoms: C3_4  and  N1_5 
REMARK    4  A    between atoms: C3_4  and  C15_26 
REMARK       I    between atoms: N1_5  and  C4_6 
REMARK       I    between atoms: C4_6  and  N2_8 
REMARK    5  A    between atoms: N2_8  and  C5_9 
REMARK    6  A    between atoms: N5_16  and  C9_17 
ROOT
HETATM    1  C5  UNL     1      -0.271  51.959 -20.473  1.00  0.00     0.111 A 
HETATM    2  C6  UNL     1       0.564  52.845 -19.792  1.00  0.00     0.080 A 
HETATM    3  C7  UNL     1       0.869  52.494 -18.477  1.00  0.00     0.067 A 
HETATM    4  N3  UNL     1       1.626  53.097 -17.513  1.00  0.00    -0.298 N 
HETATM    5  N4  UNL     1       1.681  52.424 -16.355  1.00  0.00    -0.284 N 
ATOM      6  H4  UNL     1       2.189  52.677 -15.507  1.00  0.00     0.188 HD
HETATM    7  C8  UNL     1       0.920  51.348 -16.562  1.00  0.00     0.130 A 
HETATM    8  N5  UNL     1       0.679  50.375 -15.654  1.00  0.00    -0.368 N 
HETATM    9  C13 UNL     1       0.383  51.338 -17.880  1.00  0.00     0.052 A 
HETATM   10  C14 UNL     1      -0.444  50.507 -18.634  1.00  0.00     0.107 A 
HETATM   11  N6  UNL     1      -0.746  50.827 -19.919  1.00  0.00    -0.351 N 
ATOM     12  H6  UNL     1      -1.338  50.205 -20.469  1.00  0.00     0.166 HD
HETATM   13  H10 UNL     1       2.134  53.971 -17.580  1.00  0.00     0.187 HD
HETATM   14  H11 UNL     1       0.300  49.488 -15.969  1.00  0.00     0.161 HD
ENDROOT
BRANCH   1  15
HETATM   15  N2  UNL     1      -0.573  52.277 -21.802  1.00  0.00    -0.295 N 
HETATM   16  C4  UNL     1      -0.833  51.369 -22.804  1.00  0.00     0.322 C 
HETATM   17  N1  UNL     1      -0.944  52.029 -24.018  1.00  0.00    -0.332 N 
HETATM   18  O2  UNL     1      -0.988  50.161 -22.690  1.00  0.00    -0.247 OA
HETATM   19  H7  UNL     1      -0.332  52.821 -24.118  1.00  0.00     0.165 HD
HETATM   20  H8  UNL     1      -0.815  53.230 -22.011  1.00  0.00     0.172 HD
BRANCH  17  21
HETATM   21  C3  UNL     1      -1.200  51.276 -25.246  1.00  0.00     0.143 C 
BRANCH  21  22
HETATM   22  C2  UNL     1      -2.527  51.723 -25.906  1.00  0.00     0.197 C 
BRANCH  22  23
HETATM   23  O1  UNL     1      -3.250  52.594 -25.026  1.00  0.00    -0.394 OA
HETATM   24  C1  UNL     1      -4.398  51.958 -24.481  1.00  0.00     0.201 C 
ENDBRANCH  22  23
ENDBRANCH  21  22
BRANCH  21  25
HETATM   25  C15 UNL     1      -0.008  51.407 -26.185  1.00  0.00    -0.033 A 
HETATM   26  C16 UNL     1      -0.157  51.595 -27.570  1.00  0.00     0.009 A 
HETATM   27  C17 UNL     1       0.963  51.730 -28.394  1.00  0.00     0.001 A 
HETATM   28  C18 UNL     1       2.244  51.692 -27.849  1.00  0.00     0.000 A 
HETATM   29  C19 UNL     1       2.408  51.527 -26.477  1.00  0.00     0.001 A 
HETATM   30  C20 UNL     1       1.290  51.390 -25.650  1.00  0.00     0.009 A 
ENDBRANCH  21  25
ENDBRANCH  17  21
ENDBRANCH   1  15
BRANCH   8  31
HETATM   31  C9  UNL     1       1.446  50.311 -14.418  1.00  0.00     0.109 C 
HETATM   32  C10 UNL     1       2.820  50.928 -14.569  1.00  0.00     0.053 C 
HETATM   33  C11 UNL     1       3.597  50.230 -13.479  1.00  0.00     0.169 C 
HETATM   34  O3  UNL     1       3.103  48.886 -13.428  1.00  0.00    -0.389 OA
HETATM   35  C12 UNL     1       1.790  48.874 -14.019  1.00  0.00     0.192 C 
ENDBRANCH   8  31
TORSDOF 6
ENDMDL
MODEL 2
REMARK minimizedAffinity -8.4677906
REMARK  6 active torsions:
REMARK  status: ('A' for Active; 'I' for Inactive)
REMARK    1  A    between atoms: O1_2  and  C2_3 
REMARK    2  A    between atoms: C2_3  and  C3_4 
REMARK    3  A    between atoms: C3_4  and  N1_5 
REMARK    4  A    between atoms: C3_4  and  C15_26 
REMARK       I    between atoms: N1_5  and  C4_6 
REMARK       I    between atoms: C4_6  and  N2_8 
REMARK    5  A    between atoms: N2_8  and  C5_9 
REMARK    6  A    between atoms: N5_16  and  C9_17 
ROOT
HETATM    1  C5  UNL     1       0.960  52.977 -19.783  1.00  0.00     0.111 A 
HETATM    2  C6  UNL     1       1.402  53.975 -20.651  1.00  0.00     0.080 A 
HETATM    3  C7  UNL     1       1.154  53.749 -22.005  1.00  0.00     0.067 A 
HETATM    4  N3  UNL     1       1.439  54.472 -23.129  1.00  0.00    -0.298 N 
HETATM    5  N4  UNL     1       1.017  53.906 -24.269  1.00  0.00    -0.284 N 
ATOM      6  H4  UNL     1       1.109  54.268 -25.218  1.00  0.00     0.188 HD
HETATM    7  C8  UNL     1       0.448  52.763 -23.879  1.00  0.00     0.130 A 
HETATM    8  N5  UNL     1      -0.120  51.854 -24.703  1.00  0.00    -0.368 N 
HETATM    9  C13 UNL     1       0.505  52.611 -22.465  1.00  0.00     0.052 A 
HETATM   10  C14 UNL     1       0.094  51.664 -21.528  1.00  0.00     0.107 A 
HETATM   11  N6  UNL     1       0.319  51.870 -20.205  1.00  0.00    -0.351 N 
ATOM     12  H6  UNL     1      -0.000  51.181 -19.524  1.00  0.00     0.166 HD
HETATM   13  H10 UNL     1       1.919  55.361 -23.188  1.00  0.00     0.187 HD
HETATM   14  H11 UNL     1      -0.734  51.148 -24.311  1.00  0.00     0.161 HD
ENDROOT
BRANCH   1  15
HETATM   15  N2  UNL     1       1.177  53.192 -18.417  1.00  0.00    -0.295 N 
HETATM   16  C4  UNL     1       0.935  52.280 -17.414  1.00  0.00     0.322 C 
HETATM   17  N1  UNL     1       1.123  52.880 -16.179  1.00  0.00    -0.332 N 
HETATM   18  O2  UNL     1       0.635  51.101 -17.539  1.00  0.00    -0.247 OA
HETATM   19  H7  UNL     1       0.848  53.848 -16.141  1.00  0.00     0.165 HD
HETATM   20  H8  UNL     1       1.731  53.988 -18.151  1.00  0.00     0.172 HD
BRANCH  17  21
HETATM   21  C3  UNL     1       0.905  52.120 -14.948  1.00  0.00     0.143 C 
BRANCH  21  22
HETATM   22  C2  UNL     1      -0.385  51.269 -15.043  1.00  0.00     0.197 C 
BRANCH  22  23
HETATM   23  O1  UNL     1      -1.332  51.690 -14.052  1.00  0.00    -0.394 OA
HETATM   24  C1  UNL     1      -0.699  52.353 -12.966  1.00  0.00     0.201 C 
ENDBRANCH  22  23
ENDBRANCH  21  22
BRANCH  21  25
HETATM   25  C15 UNL     1       2.137  51.279 -14.640  1.00  0.00    -0.033 A 
HETATM   26  C16 UNL     1       3.442  51.735 -14.890  1.00  0.00     0.009 A 
HETATM   27  C17 UNL     1       4.547  50.940 -14.575  1.00  0.00     0.001 A 
HETATM   28  C18 UNL     1       4.366  49.687 -13.994  1.00  0.00     0.000 A 
HETATM   29  C19 UNL     1       3.080  49.230 -13.720  1.00  0.00     0.001 A 
HETATM   30  C20 UNL     1       1.974  50.022 -14.036  1.00  0.00     0.009 A 
ENDBRANCH  21  25
ENDBRANCH  17  21
ENDBRANCH   1  15
BRANCH   8  31
HETATM   31  C9  UNL     1      -0.367  52.175 -26.102  1.00  0.00     0.109 C 
HETATM   32  C10 UNL     1       0.214  53.518 -26.488  1.00  0.00     0.053 C 
HETATM   33  C11 UNL     1      -0.644  53.900 -27.670  1.00  0.00     0.169 C 
HETATM   34  O3  UNL     1      -1.965  53.426 -27.380  1.00  0.00    -0.389 OA
HETATM   35  C12 UNL     1      -1.854  52.379 -26.399  1.00  0.00     0.192 C 
ENDBRANCH   8  31
TORSDOF 6
ENDMDL
MODEL 3
REMARK minimizedAffinity -8.46560383
REMARK  6 active torsions:
REMARK  status: ('A' for Active; 'I' for Inactive)
REMARK    1  A    between atoms: O1_2  and  C2_3 
REMARK    2  A    between atoms: C2_3  and  C3_4 
REMARK    3  A    between atoms: C3_4  and  N1_5 
REMARK    4  A    between atoms: C3_4  and  C15_26 
REMARK       I    between atoms: N1_5  and  C4_6 
REMARK       I    between atoms: C4_6  and  N2_8 
REMARK    5  A    between atoms: N2_8  and  C5_9 
REMARK    6  A    between atoms: N5_16  and  C9_17 
ROOT
HETATM    1  C5  UNL     1      -3.209  48.851 -24.383  1.00  0.00     0.111 A 
HETATM    2  C6  UNL     1      -4.570  48.548 -24.364  1.00  0.00     0.080 A 
HETATM    3  C7  UNL     1      -5.148  48.296 -25.608  1.00  0.00     0.067 A 
HETATM    4  N3  UNL     1      -6.422  47.983 -25.988  1.00  0.00    -0.298 N 
HETATM    5  N4  UNL     1      -6.576  47.806 -27.308  1.00  0.00    -0.284 N 
ATOM      6  H4  UNL     1      -7.428  47.559 -27.811  1.00  0.00     0.188 HD
HETATM    7  C8  UNL     1      -5.361  48.025 -27.814  1.00  0.00     0.130 A 
HETATM    8  N5  UNL     1      -5.038  47.959 -29.125  1.00  0.00    -0.368 N 
HETATM    9  C13 UNL     1      -4.422  48.337 -26.791  1.00  0.00     0.052 A 
HETATM   10  C14 UNL     1      -3.065  48.647 -26.719  1.00  0.00     0.107 A 
HETATM   11  N6  UNL     1      -2.482  48.887 -25.515  1.00  0.00    -0.351 N 
ATOM     12  H6  UNL     1      -1.485  49.096 -25.469  1.00  0.00     0.166 HD
HETATM   13  H10 UNL     1      -7.237  47.875 -25.396  1.00  0.00     0.187 HD
HETATM   14  H11 UNL     1      -4.061  47.897 -29.391  1.00  0.00     0.161 HD
ENDROOT
BRANCH   1  15
HETATM   15  N2  UNL     1      -2.601  49.084 -23.144  1.00  0.00    -0.295 N 
HETATM   16  C4  UNL     1      -2.711  50.240 -22.403  1.00  0.00     0.322 C 
HETATM   17  N1  UNL     1      -1.862  50.176 -21.308  1.00  0.00    -0.332 N 
HETATM   18  O2  UNL     1      -3.452  51.189 -22.612  1.00  0.00    -0.247 OA
HETATM   19  H7  UNL     1      -0.995  49.696 -21.481  1.00  0.00     0.165 HD
HETATM   20  H8  UNL     1      -2.218  48.294 -22.655  1.00  0.00     0.172 HD
BRANCH  17  21
HETATM   21  C3  UNL     1      -1.780  51.299 -20.373  1.00  0.00     0.143 C 
BRANCH  21  22
HETATM   22  C2  UNL     1      -1.689  50.799 -18.911  1.00  0.00     0.197 C 
BRANCH  22  23
HETATM   23  O1  UNL     1      -2.702  51.420 -18.109  1.00  0.00    -0.394 OA
HETATM   24  C1  UNL     1      -2.944  50.696 -16.911  1.00  0.00     0.201 C 
ENDBRANCH  22  23
ENDBRANCH  21  22
BRANCH  21  25
HETATM   25  C15 UNL     1      -0.613  52.200 -20.755  1.00  0.00    -0.033 A 
HETATM   26  C16 UNL     1      -0.155  52.321 -22.078  1.00  0.00     0.009 A 
HETATM   27  C17 UNL     1       0.907  53.173 -22.389  1.00  0.00     0.001 A 
HETATM   28  C18 UNL     1       1.518  53.925 -21.389  1.00  0.00     0.000 A 
HETATM   29  C19 UNL     1       1.063  53.833 -20.077  1.00  0.00     0.001 A 
HETATM   30  C20 UNL     1       0.003  52.981 -19.763  1.00  0.00     0.009 A 
ENDBRANCH  21  25
ENDBRANCH  17  21
ENDBRANCH   1  15
BRANCH   8  31
HETATM   31  C9  UNL     1      -5.973  47.398 -30.091  1.00  0.00     0.109 C 
HETATM   32  C10 UNL     1      -5.263  46.675 -31.215  1.00  0.00     0.053 C 
HETATM   33  C11 UNL     1      -6.286  46.741 -32.323  1.00  0.00     0.169 C 
HETATM   34  O3  UNL     1      -6.932  48.015 -32.200  1.00  0.00    -0.389 OA
HETATM   35  C12 UNL     1      -6.745  48.477 -30.850  1.00  0.00     0.192 C 
ENDBRANCH   8  31
TORSDOF 6
ENDMDL
MODEL 4
REMARK minimizedAffinity -8.43021679
REMARK  6 active torsions:
REMARK  status: ('A' for Active; 'I' for Inactive)
REMARK    1  A    between atoms: O1_2  and  C2_3 
REMARK    2  A    between atoms: C2_3  and  C3_4 
REMARK    3  A    between atoms: C3_4  and  N1_5 
REMARK    4  A    between atoms: C3_4  and  C15_26 
REMARK       I    between atoms: N1_5  and  C4_6 
REMARK       I    between atoms: C4_6  and  N2_8 
REMARK    5  A    between atoms: N2_8  and  C5_9 
REMARK    6  A    between atoms: N5_16  and  C9_17 
ROOT
HETATM    1  C5  UNL     1      -2.410  49.513 -25.992  1.00  0.00     0.111 A 
HETATM    2  C6  UNL     1      -2.813  49.719 -27.311  1.00  0.00     0.080 A 
HETATM    3  C7  UNL     1      -4.025  49.128 -27.669  1.00  0.00     0.067 A 
HETATM    4  N3  UNL     1      -4.726  49.096 -28.841  1.00  0.00    -0.298 N 
HETATM    5  N4  UNL     1      -5.878  48.414 -28.775  1.00  0.00    -0.284 N 
ATOM      6  H4  UNL     1      -6.562  48.269 -29.518  1.00  0.00     0.188 HD
HETATM    7  C8  UNL     1      -5.926  47.969 -27.518  1.00  0.00     0.130 A 
HETATM    8  N5  UNL     1      -6.922  47.219 -26.994  1.00  0.00    -0.368 N 
HETATM    9  C13 UNL     1      -4.787  48.387 -26.775  1.00  0.00     0.052 A 
HETATM   10  C14 UNL     1      -4.310  48.233 -25.475  1.00  0.00     0.107 A 
HETATM   11  N6  UNL     1      -3.137  48.808 -25.104  1.00  0.00    -0.351 N 
ATOM     12  H6  UNL     1      -2.803  48.706 -24.146  1.00  0.00     0.166 HD
HETATM   13  H10 UNL     1      -4.475  49.522 -29.725  1.00  0.00     0.187 HD
HETATM   14  H11 UNL     1      -6.999  47.136 -25.985  1.00  0.00     0.161 HD
ENDROOT
BRANCH   1  15
HETATM   15  N2  UNL     1      -1.208  50.117 -25.602  1.00  0.00    -0.295 N 
HETATM   16  C4  UNL     1      -1.076  51.400 -25.119  1.00  0.00     0.322 C 
HETATM   17  N1  UNL     1       0.267  51.711 -24.975  1.00  0.00    -0.332 N 
HETATM   18  O2  UNL     1      -1.972  52.174 -24.814  1.00  0.00    -0.247 OA
HETATM   19  H7  UNL     1       0.865  51.306 -25.676  1.00  0.00     0.165 HD
HETATM   20  H8  UNL     1      -0.408  49.523 -25.472  1.00  0.00     0.172 HD
BRANCH  17  21
HETATM   21  C3  UNL     1       0.671  53.033 -24.495  1.00  0.00     0.143 C 
BRANCH  21  22
HETATM   22  C2  UNL     1      -0.245  54.138 -25.075  1.00  0.00     0.197 C 
BRANCH  22  23
HETATM   23  O1  UNL     1       0.359  54.727 -26.233  1.00  0.00    -0.394 OA
HETATM   24  C1  UNL     1      -0.142  54.160 -27.436  1.00  0.00     0.201 C 
ENDBRANCH  22  23
ENDBRANCH  21  22
BRANCH  21  25
HETATM   25  C15 UNL     1       0.700  53.039 -22.972  1.00  0.00    -0.033 A 
HETATM   26  C16 UNL     1       0.261  51.946 -22.206  1.00  0.00     0.009 A 
HETATM   27  C17 UNL     1       0.322  51.985 -20.810  1.00  0.00     0.001 A 
HETATM   28  C18 UNL     1       0.834  53.106 -20.162  1.00  0.00     0.000 A 
HETATM   29  C19 UNL     1       1.292  54.188 -20.907  1.00  0.00     0.001 A 
HETATM   30  C20 UNL     1       1.231  54.153 -22.302  1.00  0.00     0.009 A 
ENDBRANCH  21  25
ENDBRANCH  17  21
ENDBRANCH   1  15
BRANCH   8  31
HETATM   31  C9  UNL     1      -8.170  47.032 -27.721  1.00  0.00     0.109 C 
HETATM   32  C10 UNL     1      -8.012  46.074 -28.882  1.00  0.00     0.053 C 
HETATM   33  C11 UNL     1      -9.139  46.499 -29.792  1.00  0.00     0.169 C 
HETATM   34  O3  UNL     1      -9.237  47.924 -29.675  1.00  0.00    -0.389 OA
HETATM   35  C12 UNL     1      -8.629  48.309 -28.428  1.00  0.00     0.192 C 
ENDBRANCH   8  31
TORSDOF 6
ENDMDL
MODEL 5
REMARK minimizedAffinity -8.28374386
REMARK  6 active torsions:
REMARK  status: ('A' for Active; 'I' for Inactive)
REMARK    1  A    between atoms: O1_2  and  C2_3 
REMARK    2  A    between atoms: C2_3  and  C3_4 
REMARK    3  A    between atoms: C3_4  and  N1_5 
REMARK    4  A    between atoms: C3_4  and  C15_26 
REMARK       I    between atoms: N1_5  and  C4_6 
REMARK       I    between atoms: C4_6  and  N2_8 
REMARK    5  A    between atoms: N2_8  and  C5_9 
REMARK    6  A    between atoms: N5_16  and  C9_17 
ROOT
HETATM    1  C5  UNL     1       1.051  53.086 -19.437  1.00  0.00     0.111 A 
HETATM    2  C6  UNL     1       0.267  52.012 -19.857  1.00  0.00     0.080 A 
HETATM    3  C7  UNL     1       0.030  51.940 -21.230  1.00  0.00     0.067 A 
HETATM    4  N3  UNL     1      -0.681  51.064 -21.999  1.00  0.00    -0.298 N 
HETATM    5  N4  UNL     1      -0.658  51.339 -23.311  1.00  0.00    -0.284 N 
ATOM      6  H4  UNL     1      -1.105  50.819 -24.067  1.00  0.00     0.188 HD
HETATM    7  C8  UNL     1       0.083  52.445 -23.404  1.00  0.00     0.130 A 
HETATM    8  N5  UNL     1       0.376  53.094 -24.553  1.00  0.00    -0.368 N 
HETATM    9  C13 UNL     1       0.544  52.869 -22.126  1.00  0.00     0.052 A 
HETATM   10  C14 UNL     1       1.320  53.911 -21.620  1.00  0.00     0.107 A 
HETATM   11  N6  UNL     1       1.569  53.993 -20.288  1.00  0.00    -0.351 N 
ATOM     12  H6  UNL     1       2.152  54.748 -19.928  1.00  0.00     0.166 HD
HETATM   13  H10 UNL     1      -1.206  50.254 -21.692  1.00  0.00     0.187 HD
HETATM   14  H11 UNL     1       1.134  53.769 -24.560  1.00  0.00     0.161 HD
ENDROOT
BRANCH   1  15
HETATM   15  N2  UNL     1       1.323  53.167 -18.066  1.00  0.00    -0.295 N 
HETATM   16  C4  UNL     1       0.912  52.260 -17.114  1.00  0.00     0.322 C 
HETATM   17  N1  UNL     1       1.232  52.731 -15.850  1.00  0.00    -0.332 N 
HETATM   18  O2  UNL     1       0.378  51.177 -17.302  1.00  0.00    -0.247 OA
HETATM   19  H7  UNL     1       1.160  53.730 -15.748  1.00  0.00     0.165 HD
HETATM   20  H8  UNL     1       2.030  53.816 -17.767  1.00  0.00     0.172 HD
BRANCH  17  21
HETATM   21  C3  UNL     1       0.879  51.954 -14.662  1.00  0.00     0.143 C 
BRANCH  21  22
HETATM   22  C2  UNL     1      -0.502  51.276 -14.833  1.00  0.00     0.197 C 
BRANCH  22  23
HETATM   23  O1  UNL     1      -1.348  51.582 -13.716  1.00  0.00    -0.394 OA
HETATM   24  C1  UNL     1      -0.689  52.410 -12.768  1.00  0.00     0.201 C 
ENDBRANCH  22  23
ENDBRANCH  21  22
BRANCH  21  25
HETATM   25  C15 UNL     1       1.985  50.954 -14.355  1.00  0.00    -0.033 A 
HETATM   26  C16 UNL     1       1.721  49.611 -14.038  1.00  0.00     0.009 A 
HETATM   27  C17 UNL     1       2.767  48.720 -13.781  1.00  0.00     0.001 A 
HETATM   28  C18 UNL     1       4.089  49.153 -13.850  1.00  0.00     0.000 A 
HETATM   29  C19 UNL     1       4.368  50.475 -14.184  1.00  0.00     0.001 A 
HETATM   30  C20 UNL     1       3.325  51.368 -14.439  1.00  0.00     0.009 A 
ENDBRANCH  21  25
ENDBRANCH  17  21
ENDBRANCH   1  15
BRANCH   8  31
HETATM   31  C9  UNL     1       0.089  52.481 -25.843  1.00  0.00     0.109 C 
HETATM   32  C10 UNL     1       1.288  51.747 -26.403  1.00  0.00     0.053 C 
HETATM   33  C11 UNL     1       0.994  51.756 -27.885  1.00  0.00     0.169 C 
HETATM   34  O3  UNL     1       0.369  53.015 -28.165  1.00  0.00    -0.389 OA
HETATM   35  C12 UNL     1      -0.182  53.519 -26.934  1.00  0.00     0.192 C 
ENDBRANCH   8  31
TORSDOF 6
ENDMDL
MODEL 6
REMARK minimizedAffinity -8.27752018
REMARK  6 active torsions:
REMARK  status: ('A' for Active; 'I' for Inactive)
REMARK    1  A    between atoms: O1_2  and  C2_3 
REMARK    2  A    between atoms: C2_3  and  C3_4 
REMARK    3  A    between atoms: C3_4  and  N1_5 
REMARK    4  A    between atoms: C3_4  and  C15_26 
REMARK       I    between atoms: N1_5  and  C4_6 
REMARK       I    between atoms: C4_6  and  N2_8 
REMARK    5  A    between atoms: N2_8  and  C5_9 
REMARK    6  A    between atoms: N5_16  and  C9_17 
ROOT
HETATM    1  C5  UNL     1       0.936  52.994 -18.991  1.00  0.00     0.111 A 
HETATM    2  C6  UNL     1       0.038  52.026 -19.440  1.00  0.00     0.080 A 
HETATM    3  C7  UNL     1      -0.105  51.934 -20.824  1.00  0.00     0.067 A 
HETATM    4  N3  UNL     1      -0.876  51.137 -21.622  1.00  0.00    -0.298 N 
HETATM    5  N4  UNL     1      -0.717  51.353 -22.935  1.00  0.00    -0.284 N 
ATOM      6  H4  UNL     1      -1.178  50.873 -23.709  1.00  0.00     0.188 HD
HETATM    7  C8  UNL     1       0.180  52.339 -23.001  1.00  0.00     0.130 A 
HETATM    8  N5  UNL     1       0.647  52.894 -24.142  1.00  0.00    -0.368 N 
HETATM    9  C13 UNL     1       0.601  52.744 -21.704  1.00  0.00     0.052 A 
HETATM   10  C14 UNL     1       1.480  53.685 -21.169  1.00  0.00     0.107 A 
HETATM   11  N6  UNL     1       1.639  53.784 -19.824  1.00  0.00    -0.351 N 
ATOM     12  H6  UNL     1       2.297  54.463 -19.441  1.00  0.00     0.166 HD
HETATM   13  H10 UNL     1      -1.533  50.422 -21.333  1.00  0.00     0.187 HD
HETATM   14  H11 UNL     1       1.492  53.455 -24.108  1.00  0.00     0.161 HD
ENDROOT
BRANCH   1  15
HETATM   15  N2  UNL     1       1.114  53.090 -17.605  1.00  0.00    -0.295 N 
HETATM   16  C4  UNL     1       1.045  52.042 -16.715  1.00  0.00     0.322 C 
HETATM   17  N1  UNL     1       1.125  52.523 -15.417  1.00  0.00    -0.332 N 
HETATM   18  O2  UNL     1       0.962  50.850 -16.975  1.00  0.00    -0.247 OA
HETATM   19  H7  UNL     1       0.680  53.415 -15.277  1.00  0.00     0.165 HD
HETATM   20  H8  UNL     1       1.516  53.937 -17.243  1.00  0.00     0.172 HD
BRANCH  17  21
HETATM   21  C3  UNL     1       1.052  51.602 -14.283  1.00  0.00     0.143 C 
BRANCH  21  22
HETATM   22  C2  UNL     1       2.447  51.397 -13.644  1.00  0.00     0.197 C 
BRANCH  22  23
HETATM   23  O1  UNL     1       2.892  50.049 -13.842  1.00  0.00    -0.394 OA
HETATM   24  C1  UNL     1       4.309  49.951 -13.814  1.00  0.00     0.201 C 
ENDBRANCH  22  23
ENDBRANCH  21  22
BRANCH  21  25
HETATM   25  C15 UNL     1       0.019  52.101 -13.282  1.00  0.00    -0.033 A 
HETATM   26  C16 UNL     1      -1.345  51.780 -13.382  1.00  0.00     0.009 A 
HETATM   27  C17 UNL     1      -2.258  52.244 -12.432  1.00  0.00     0.001 A 
HETATM   28  C18 UNL     1      -1.822  53.021 -11.362  1.00  0.00     0.000 A 
HETATM   29  C19 UNL     1      -0.471  53.331 -11.236  1.00  0.00     0.001 A 
HETATM   30  C20 UNL     1       0.444  52.870 -12.186  1.00  0.00     0.009 A 
ENDBRANCH  21  25
ENDBRANCH  17  21
ENDBRANCH   1  15
BRANCH   8  31
HETATM   31  C9  UNL     1       0.370  52.278 -25.432  1.00  0.00     0.109 C 
HETATM   32  C10 UNL     1       1.628  51.763 -26.098  1.00  0.00     0.053 C 
HETATM   33  C11 UNL     1       1.232  51.764 -27.555  1.00  0.00     0.169 C 
HETATM   34  O3  UNL     1       0.396  52.912 -27.745  1.00  0.00    -0.389 OA
HETATM   35  C12 UNL     1      -0.139  53.287 -26.463  1.00  0.00     0.192 C 
ENDBRANCH   8  31
TORSDOF 6
ENDMDL
MODEL 7
REMARK minimizedAffinity -8.23867702
REMARK  6 active torsions:
REMARK  status: ('A' for Active; 'I' for Inactive)
REMARK    1  A    between atoms: O1_2  and  C2_3 
REMARK    2  A    between atoms: C2_3  and  C3_4 
REMARK    3  A    between atoms: C3_4  and  N1_5 
REMARK    4  A    between atoms: C3_4  and  C15_26 
REMARK       I    between atoms: N1_5  and  C4_6 
REMARK       I    between atoms: C4_6  and  N2_8 
REMARK    5  A    between atoms: N2_8  and  C5_9 
REMARK    6  A    between atoms: N5_16  and  C9_17 
ROOT
HETATM    1  C5  UNL     1      -0.299  51.605 -21.900  1.00  0.00     0.111 A 
HETATM    2  C6  UNL     1       0.533  52.628 -21.446  1.00  0.00     0.080 A 
HETATM    3  C7  UNL     1       0.711  52.691 -20.064  1.00  0.00     0.067 A 
HETATM    4  N3  UNL     1       1.425  53.536 -19.264  1.00  0.00    -0.298 N 
HETATM    5  N4  UNL     1       1.346  53.254 -17.955  1.00  0.00    -0.284 N 
ATOM      6  H4  UNL     1       1.801  53.739 -17.182  1.00  0.00     0.188 HD
HETATM    7  C8  UNL     1       0.538  52.194 -17.895  1.00  0.00     0.130 A 
HETATM    8  N5  UNL     1       0.166  51.559 -16.760  1.00  0.00    -0.368 N 
HETATM    9  C13 UNL     1       0.108  51.795 -19.192  1.00  0.00     0.052 A 
HETATM   10  C14 UNL     1      -0.708  50.801 -19.730  1.00  0.00     0.107 A 
HETATM   11  N6  UNL     1      -0.886  50.717 -21.074  1.00  0.00    -0.351 N 
ATOM     12  H6  UNL     1      -1.471  49.977 -21.462  1.00  0.00     0.166 HD
HETATM   13  H10 UNL     1       1.990  54.328 -19.546  1.00  0.00     0.187 HD
HETATM   14  H11 UNL     1      -0.242  50.632 -16.824  1.00  0.00     0.161 HD
ENDROOT
BRANCH   1  15
HETATM   15  N2  UNL     1      -0.474  51.505 -23.285  1.00  0.00    -0.295 N 
HETATM   16  C4  UNL     1      -1.623  51.829 -23.972  1.00  0.00     0.322 C 
HETATM   17  N1  UNL     1      -1.489  51.469 -25.304  1.00  0.00    -0.332 N 
HETATM   18  O2  UNL     1      -2.621  52.382 -23.533  1.00  0.00    -0.247 OA
HETATM   19  H7  UNL     1      -0.957  50.628 -25.456  1.00  0.00     0.165 HD
HETATM   20  H8  UNL     1       0.347  51.381 -23.852  1.00  0.00     0.172 HD
BRANCH  17  21
HETATM   21  C3  UNL     1      -2.590  51.691 -26.243  1.00  0.00     0.143 C 
BRANCH  21  22
HETATM   22  C2  UNL     1      -2.073  52.288 -27.574  1.00  0.00     0.197 C 
BRANCH  22  23
HETATM   23  O1  UNL     1      -1.695  53.658 -27.390  1.00  0.00    -0.394 OA
HETATM   24  C1  UNL     1      -0.312  53.863 -27.644  1.00  0.00     0.201 C 
ENDBRANCH  22  23
ENDBRANCH  21  22
BRANCH  21  25
HETATM   25  C15 UNL     1      -3.360  50.393 -26.446  1.00  0.00    -0.033 A 
HETATM   26  C16 UNL     1      -3.972  49.705 -25.384  1.00  0.00     0.009 A 
HETATM   27  C17 UNL     1      -4.686  48.527 -25.616  1.00  0.00     0.001 A 
HETATM   28  C18 UNL     1      -4.811  48.026 -26.910  1.00  0.00     0.000 A 
HETATM   29  C19 UNL     1      -4.228  48.706 -27.975  1.00  0.00     0.001 A 
HETATM   30  C20 UNL     1      -3.513  49.883 -27.746  1.00  0.00     0.009 A 
ENDBRANCH  21  25
ENDBRANCH  17  21
ENDBRANCH   1  15
BRANCH   8  31
HETATM   31  C9  UNL     1       0.827  51.854 -15.497  1.00  0.00     0.109 C 
HETATM   32  C10 UNL     1       2.304  51.526 -15.539  1.00  0.00     0.053 C 
HETATM   33  C11 UNL     1       2.617  51.309 -14.078  1.00  0.00     0.169 C 
HETATM   34  O3  UNL     1       1.465  50.674 -13.509  1.00  0.00    -0.389 OA
HETATM   35  C12 UNL     1       0.339  50.955 -14.359  1.00  0.00     0.192 C 
ENDBRANCH   8  31
TORSDOF 6
ENDMDL
MODEL 8
REMARK minimizedAffinity -8.16455364
REMARK  6 active torsions:
REMARK  status: ('A' for Active; 'I' for Inactive)
REMARK    1  A    between atoms: O1_2  and  C2_3 
REMARK    2  A    between atoms: C2_3  and  C3_4 
REMARK    3  A    between atoms: C3_4  and  N1_5 
REMARK    4  A    between atoms: C3_4  and  C15_26 
REMARK       I    between atoms: N1_5  and  C4_6 
REMARK       I    between atoms: C4_6  and  N2_8 
REMARK    5  A    between atoms: N2_8  and  C5_9 
REMARK    6  A    between atoms: N5_16  and  C9_17 
ROOT
HETATM    1  C5  UNL     1      -3.036  49.257 -25.014  1.00  0.00     0.111 A 
HETATM    2  C6  UNL     1      -3.417  48.934 -26.316  1.00  0.00     0.080 A 
HETATM    3  C7  UNL     1      -4.718  48.455 -26.461  1.00  0.00     0.067 A 
HETATM    4  N3  UNL     1      -5.432  48.035 -27.548  1.00  0.00    -0.298 N 
HETATM    5  N4  UNL     1      -6.685  47.650 -27.269  1.00  0.00    -0.284 N 
ATOM      6  H4  UNL     1      -7.395  47.313 -27.919  1.00  0.00     0.188 HD
HETATM    7  C8  UNL     1      -6.793  47.809 -25.948  1.00  0.00     0.130 A 
HETATM    8  N5  UNL     1      -7.897  47.538 -25.217  1.00  0.00    -0.368 N 
HETATM    9  C13 UNL     1      -5.587  48.314 -25.387  1.00  0.00     0.052 A 
HETATM   10  C14 UNL     1      -5.124  48.662 -24.119  1.00  0.00     0.107 A 
HETATM   11  N6  UNL     1      -3.863  49.138 -23.958  1.00  0.00    -0.351 N 
ATOM     12  H6  UNL     1      -3.538  49.408 -23.029  1.00  0.00     0.166 HD
HETATM   13  H10 UNL     1      -5.122  47.987 -28.511  1.00  0.00     0.187 HD
HETATM   14  H11 UNL     1      -7.972  47.914 -24.278  1.00  0.00     0.161 HD
ENDROOT
BRANCH   1  15
HETATM   15  N2  UNL     1      -1.741  49.762 -24.846  1.00  0.00    -0.295 N 
HETATM   16  C4  UNL     1      -1.424  51.065 -24.534  1.00  0.00     0.322 C 
HETATM   17  N1  UNL     1      -0.050  51.240 -24.591  1.00  0.00    -0.332 N 
HETATM   18  O2  UNL     1      -2.192  51.960 -24.213  1.00  0.00    -0.247 OA
HETATM   19  H7  UNL     1       0.408  50.703 -25.309  1.00  0.00     0.165 HD
HETATM   20  H8  UNL     1      -0.991  49.100 -24.747  1.00  0.00     0.172 HD
BRANCH  17  21
HETATM   21  C3  UNL     1       0.539  52.551 -24.320  1.00  0.00     0.143 C 
BRANCH  21  22
HETATM   22  C2  UNL     1      -0.240  53.672 -25.050  1.00  0.00     0.197 C 
BRANCH  22  23
HETATM   23  O1  UNL     1       0.469  54.084 -26.226  1.00  0.00    -0.394 OA
HETATM   24  C1  UNL     1      -0.090  53.519 -27.404  1.00  0.00     0.201 C 
ENDBRANCH  22  23
ENDBRANCH  21  22
BRANCH  21  25
HETATM   25  C15 UNL     1       0.614  52.779 -22.816  1.00  0.00    -0.033 A 
HETATM   26  C16 UNL     1       0.227  51.799 -21.886  1.00  0.00     0.009 A 
HETATM   27  C17 UNL     1       0.330  52.041 -20.513  1.00  0.00     0.001 A 
HETATM   28  C18 UNL     1       0.831  53.255 -20.050  1.00  0.00     0.000 A 
HETATM   29  C19 UNL     1       1.238  54.227 -20.959  1.00  0.00     0.001 A 
HETATM   30  C20 UNL     1       1.135  53.989 -22.331  1.00  0.00     0.009 A 
ENDBRANCH  21  25
ENDBRANCH  17  21
ENDBRANCH   1  15
BRANCH   8  31
HETATM   31  C9  UNL     1      -9.169  47.263 -25.872  1.00  0.00     0.109 C 
HETATM   32  C10 UNL     1      -9.716  48.481 -26.585  1.00  0.00     0.053 C 
HETATM   33  C11 UNL     1     -11.195  48.181 -26.623  1.00  0.00     0.169 C 
HETATM   34  O3  UNL     1     -11.505  47.518 -25.391  1.00  0.00    -0.389 OA
HETATM   35  C12 UNL     1     -10.286  46.958 -24.871  1.00  0.00     0.192 C 
ENDBRANCH   8  31
TORSDOF 6
ENDMDL
MODEL 9
REMARK minimizedAffinity -8.08980083
REMARK  6 active torsions:
REMARK  status: ('A' for Active; 'I' for Inactive)
REMARK    1  A    between atoms: O1_2  and  C2_3 
REMARK    2  A    between atoms: C2_3  and  C3_4 
REMARK    3  A    between atoms: C3_4  and  N1_5 
REMARK    4  A    between atoms: C3_4  and  C15_26 
REMARK       I    between atoms: N1_5  and  C4_6 
REMARK       I    between atoms: C4_6  and  N2_8 
REMARK    5  A    between atoms: N2_8  and  C5_9 
REMARK    6  A    between atoms: N5_16  and  C9_17 
ROOT
HETATM    1  C5  UNL     1      -4.499  48.457 -26.421  1.00  0.00     0.111 A 
HETATM    2  C6  UNL     1      -4.399  48.292 -27.802  1.00  0.00     0.080 A 
HETATM    3  C7  UNL     1      -5.550  47.829 -28.438  1.00  0.00     0.067 A 
HETATM    4  N3  UNL     1      -5.832  47.540 -29.743  1.00  0.00    -0.298 N 
HETATM    5  N4  UNL     1      -7.087  47.120 -29.956  1.00  0.00    -0.284 N 
ATOM      6  H4  UNL     1      -7.517  46.860 -30.844  1.00  0.00     0.188 HD
HETATM    7  C8  UNL     1      -7.644  47.118 -28.744  1.00  0.00     0.130 A 
HETATM    8  N5  UNL     1      -8.918  46.756 -28.471  1.00  0.00    -0.368 N 
HETATM    9  C13 UNL     1      -6.725  47.556 -27.750  1.00  0.00     0.052 A 
HETATM   10  C14 UNL     1      -6.738  47.751 -26.369  1.00  0.00     0.107 A 
HETATM   11  N6  UNL     1      -5.629  48.209 -25.733  1.00  0.00    -0.351 N 
ATOM     12  H6  UNL     1      -5.653  48.366 -24.726  1.00  0.00     0.166 HD
HETATM   13  H10 UNL     1      -5.211  47.609 -30.541  1.00  0.00     0.187 HD
HETATM   14  H11 UNL     1      -9.325  47.016 -27.579  1.00  0.00     0.161 HD
ENDROOT
BRANCH   1  15
HETATM   15  N2  UNL     1      -3.362  48.944 -25.763  1.00  0.00    -0.295 N 
HETATM   16  C4  UNL     1      -2.926  50.249 -25.778  1.00  0.00     0.322 C 
HETATM   17  N1  UNL     1      -1.696  50.339 -25.146  1.00  0.00    -0.332 N 
HETATM   18  O2  UNL     1      -3.510  51.223 -26.233  1.00  0.00    -0.247 OA
HETATM   19  H7  UNL     1      -1.098  49.542 -25.284  1.00  0.00     0.165 HD
HETATM   20  H8  UNL     1      -2.937  48.355 -25.068  1.00  0.00     0.172 HD
BRANCH  17  21
HETATM   21  C3  UNL     1      -1.008  51.628 -25.050  1.00  0.00     0.143 C 
BRANCH  21  22
HETATM   22  C2  UNL     1      -0.544  51.903 -23.599  1.00  0.00     0.197 C 
BRANCH  22  23
HETATM   23  O1  UNL     1      -1.120  50.943 -22.703  1.00  0.00    -0.394 OA
HETATM   24  C1  UNL     1      -1.128  51.412 -21.361  1.00  0.00     0.201 C 
ENDBRANCH  22  23
ENDBRANCH  21  22
BRANCH  21  25
HETATM   25  C15 UNL     1       0.141  51.671 -26.048  1.00  0.00    -0.033 A 
HETATM   26  C16 UNL     1       1.485  51.545 -25.656  1.00  0.00     0.009 A 
HETATM   27  C17 UNL     1       2.509  51.572 -26.606  1.00  0.00     0.001 A 
HETATM   28  C18 UNL     1       2.208  51.710 -27.958  1.00  0.00     0.000 A 
HETATM   29  C19 UNL     1       0.881  51.815 -28.365  1.00  0.00     0.001 A 
HETATM   30  C20 UNL     1      -0.145  51.791 -27.417  1.00  0.00     0.009 A 
ENDBRANCH  21  25
ENDBRANCH  17  21
ENDBRANCH   1  15
BRANCH   8  31
HETATM   31  C9  UNL     1      -9.878  46.557 -29.549  1.00  0.00     0.109 C 
HETATM   32  C10 UNL     1      -9.426  45.488 -30.521  1.00  0.00     0.053 C 
HETATM   33  C11 UNL     1     -10.170  45.876 -31.777  1.00  0.00     0.169 C 
HETATM   34  O3  UNL     1     -10.197  47.309 -31.804  1.00  0.00    -0.389 OA
HETATM   35  C12 UNL     1      -9.994  47.781 -30.459  1.00  0.00     0.192 C 
ENDBRANCH   8  31
TORSDOF 6
ENDMDL
