MODEL 1
REMARK minimizedAffinity -8.6438055
REMARK  8 active torsions:
REMARK  status: ('A' for Active; 'I' for Inactive)
REMARK    1  A    between atoms: O1_2  and  C2_3 
REMARK    2  A    between atoms: C2_3  and  C3_4 
REMARK    3  A    between atoms: C3_4  and  N1_5 
REMARK    4  A    between atoms: C3_4  and  C17_29 
REMARK       I    between atoms: N1_5  and  C4_6 
REMARK       I    between atoms: C4_6  and  N2_8 
REMARK    5  A    between atoms: N2_8  and  C5_9 
REMARK    6  A    between atoms: C8_15  and  O3_16 
REMARK    7  A    between atoms: O3_16  and  C9_17 
REMARK    8  A    between atoms: C9_17  and  C10_18 
ROOT
HETATM    1  C5  UNL     1      -0.021  52.418 -22.613  1.00  0.00     0.111 A 
HETATM    2  C6  UNL     1       0.552  53.322 -23.503  1.00  0.00     0.080 A 
HETATM    3  C7  UNL     1       0.314  53.056 -24.851  1.00  0.00     0.067 A 
HETATM    4  N3  UNL     1       0.693  53.706 -25.997  1.00  0.00    -0.298 N 
HETATM    5  N4  UNL     1       0.255  53.118 -27.127  1.00  0.00    -0.279 N 
ATOM      6  H4  UNL     1       0.419  53.402 -28.093  1.00  0.00     0.189 HD
HETATM    7  C8  UNL     1      -0.443  52.075 -26.678  1.00  0.00     0.171 A 
HETATM    8  C15 UNL     1      -0.436  51.967 -25.275  1.00  0.00     0.060 A 
HETATM    9  C16 UNL     1      -0.975  51.113 -24.317  1.00  0.00     0.108 A 
HETATM   10  N6  UNL     1      -0.765  51.353 -22.995  1.00  0.00    -0.351 N 
ATOM     11  H6  UNL     1      -1.168  50.732 -22.292  1.00  0.00     0.166 HD
HETATM   12  H10 UNL     1       1.257  54.547 -26.077  1.00  0.00     0.187 HD
ENDROOT
BRANCH   1  13
HETATM   13  N2  UNL     1       0.112  52.513 -21.227  1.00  0.00    -0.295 N 
HETATM   14  C4  UNL     1       0.120  51.509 -20.299  1.00  0.00     0.322 C 
HETATM   15  N1  UNL     1       0.215  52.014 -19.021  1.00  0.00    -0.332 N 
HETATM   16  O2  UNL     1       0.049  50.306 -20.523  1.00  0.00    -0.247 OA
HETATM   17  H7  UNL     1      -0.209  52.924 -18.882  1.00  0.00     0.165 HD
HETATM   18  H8  UNL     1       0.261  53.459 -20.915  1.00  0.00     0.172 HD
BRANCH  15  19
HETATM   19  C3  UNL     1       0.058  51.132 -17.869  1.00  0.00     0.143 C 
BRANCH  19  20
HETATM   20  C2  UNL     1      -1.397  51.165 -17.327  1.00  0.00     0.197 C 
BRANCH  20  21
HETATM   21  O1  UNL     1      -2.283  51.825 -18.245  1.00  0.00    -0.394 OA
HETATM   22  C1  UNL     1      -3.238  50.942 -18.820  1.00  0.00     0.201 C 
ENDBRANCH  20  21
ENDBRANCH  19  20
BRANCH  19  23
HETATM   23  C17 UNL     1       1.145  51.457 -16.855  1.00  0.00    -0.033 A 
HETATM   24  C18 UNL     1       2.149  52.413 -17.087  1.00  0.00     0.009 A 
HETATM   25  C19 UNL     1       3.144  52.652 -16.133  1.00  0.00     0.001 A 
HETATM   26  C20 UNL     1       3.155  51.935 -14.938  1.00  0.00     0.000 A 
HETATM   27  C21 UNL     1       2.176  50.976 -14.695  1.00  0.00     0.001 A 
HETATM   28  C22 UNL     1       1.182  50.735 -15.649  1.00  0.00     0.009 A 
ENDBRANCH  19  23
ENDBRANCH  15  19
ENDBRANCH   1  13
BRANCH   7  29
HETATM   29  O3  UNL     1      -1.049  51.218 -27.530  1.00  0.00    -0.328 OA
BRANCH  29  30
HETATM   30  C9  UNL     1      -2.467  51.389 -27.652  1.00  0.00     0.234 C 
BRANCH  30  31
HETATM   31  C10 UNL     1      -3.275  50.342 -26.908  1.00  0.00     0.033 A 
HETATM   32  C11 UNL     1      -3.464  49.066 -27.441  1.00  0.00     0.027 A 
HETATM   33  C12 UNL     1      -4.229  48.143 -26.733  1.00  0.00     0.003 A 
HETATM   34  C13 UNL     1      -4.794  48.515 -25.520  1.00  0.00     0.017 A 
HETATM   35  C14 UNL     1      -4.580  49.807 -25.069  1.00  0.00     0.088 A 
HETATM   36  N5  UNL     1      -3.847  50.725 -25.736  1.00  0.00    -0.367 N 
ATOM     37  H5  UNL     1      -3.727  51.670 -25.373  1.00  0.00     0.165 HD
ENDBRANCH  30  31
ENDBRANCH  29  30
ENDBRANCH   7  29
TORSDOF 8
ENDMDL
MODEL 2
REMARK minimizedAffinity -8.5869627
REMARK  8 active torsions:
REMARK  status: ('A' for Active; 'I' for Inactive)
REMARK    1  A    between atoms: O1_2  and  C2_3 
REMARK    2  A    between atoms: C2_3  and  C3_4 
REMARK    3  A    between atoms: C3_4  and  N1_5 
REMARK    4  A    between atoms: C3_4  and  C17_29 
REMARK       I    between atoms: N1_5  and  C4_6 
REMARK       I    between atoms: C4_6  and  N2_8 
REMARK    5  A    between atoms: N2_8  and  C5_9 
REMARK    6  A    between atoms: C8_15  and  O3_16 
REMARK    7  A    between atoms: O3_16  and  C9_17 
REMARK    8  A    between atoms: C9_17  and  C10_18 
ROOT
HETATM    1  C5  UNL     1      -3.064  48.827 -24.378  1.00  0.00     0.111 A 
HETATM    2  C6  UNL     1      -4.408  48.475 -24.466  1.00  0.00     0.080 A 
HETATM    3  C7  UNL     1      -4.905  48.354 -25.763  1.00  0.00     0.067 A 
HETATM    4  N3  UNL     1      -6.145  48.023 -26.246  1.00  0.00    -0.298 N 
HETATM    5  N4  UNL     1      -6.223  48.021 -27.591  1.00  0.00    -0.279 N 
ATOM      6  H4  UNL     1      -7.033  47.824 -28.178  1.00  0.00     0.189 HD
HETATM    7  C8  UNL     1      -4.984  48.337 -27.969  1.00  0.00     0.171 A 
HETATM    8  C15 UNL     1      -4.117  48.573 -26.885  1.00  0.00     0.060 A 
HETATM    9  C16 UNL     1      -2.781  48.919 -26.708  1.00  0.00     0.108 A 
HETATM   10  N6  UNL     1      -2.268  49.036 -25.453  1.00  0.00    -0.351 N 
ATOM     11  H6  UNL     1      -1.286  49.282 -25.323  1.00  0.00     0.166 HD
HETATM   12  H10 UNL     1      -6.980  47.800 -25.713  1.00  0.00     0.187 HD
ENDROOT
BRANCH   1  13
HETATM   13  N2  UNL     1      -2.392  49.002 -23.168  1.00  0.00    -0.295 N 
HETATM   14  C4  UNL     1      -2.568  49.976 -22.225  1.00  0.00     0.322 C 
HETATM   15  N1  UNL     1      -1.667  49.838 -21.193  1.00  0.00    -0.332 N 
HETATM   16  O2  UNL     1      -3.399  50.877 -22.253  1.00  0.00    -0.247 OA
HETATM   17  H7  UNL     1      -0.771  49.440 -21.449  1.00  0.00     0.165 HD
HETATM   18  H8  UNL     1      -1.725  48.268 -22.984  1.00  0.00     0.172 HD
BRANCH  15  19
HETATM   19  C3  UNL     1      -1.558  50.874 -20.171  1.00  0.00     0.143 C 
BRANCH  19  20
HETATM   20  C2  UNL     1      -2.954  51.426 -19.774  1.00  0.00     0.197 C 
BRANCH  20  21
HETATM   21  O1  UNL     1      -3.021  51.718 -18.369  1.00  0.00    -0.394 OA
HETATM   22  C1  UNL     1      -2.375  50.733 -17.572  1.00  0.00     0.201 C 
ENDBRANCH  20  21
ENDBRANCH  19  20
BRANCH  19  23
HETATM   23  C17 UNL     1      -0.548  51.913 -20.637  1.00  0.00    -0.033 A 
HETATM   24  C18 UNL     1      -0.062  52.936 -19.805  1.00  0.00     0.009 A 
HETATM   25  C19 UNL     1       0.843  53.886 -20.292  1.00  0.00     0.001 A 
HETATM   26  C20 UNL     1       1.270  53.831 -21.618  1.00  0.00     0.000 A 
HETATM   27  C21 UNL     1       0.790  52.831 -22.460  1.00  0.00     0.001 A 
HETATM   28  C22 UNL     1      -0.116  51.884 -21.974  1.00  0.00     0.009 A 
ENDBRANCH  19  23
ENDBRANCH  15  19
ENDBRANCH   1  13
BRANCH   7  29
HETATM   29  O3  UNL     1      -4.656  48.442 -29.277  1.00  0.00    -0.328 OA
BRANCH  29  30
HETATM   30  C9  UNL     1      -5.721  48.156 -30.192  1.00  0.00     0.234 C 
BRANCH  30  31
HETATM   31  C10 UNL     1      -5.598  46.805 -30.871  1.00  0.00     0.033 A 
HETATM   32  C11 UNL     1      -4.622  46.573 -31.841  1.00  0.00     0.027 A 
HETATM   33  C12 UNL     1      -4.557  45.324 -32.452  1.00  0.00     0.003 A 
HETATM   34  C13 UNL     1      -5.470  44.341 -32.090  1.00  0.00     0.017 A 
HETATM   35  C14 UNL     1      -6.424  44.655 -31.137  1.00  0.00     0.088 A 
HETATM   36  N5  UNL     1      -6.513  45.859 -30.531  1.00  0.00    -0.367 N 
ATOM     37  H5  UNL     1      -7.241  46.051 -29.843  1.00  0.00     0.165 HD
ENDBRANCH  30  31
ENDBRANCH  29  30
ENDBRANCH   7  29
TORSDOF 8
ENDMDL
MODEL 3
REMARK minimizedAffinity -8.55661583
REMARK  8 active torsions:
REMARK  status: ('A' for Active; 'I' for Inactive)
REMARK    1  A    between atoms: O1_2  and  C2_3 
REMARK    2  A    between atoms: C2_3  and  C3_4 
REMARK    3  A    between atoms: C3_4  and  N1_5 
REMARK    4  A    between atoms: C3_4  and  C17_29 
REMARK       I    between atoms: N1_5  and  C4_6 
REMARK       I    between atoms: C4_6  and  N2_8 
REMARK    5  A    between atoms: N2_8  and  C5_9 
REMARK    6  A    between atoms: C8_15  and  O3_16 
REMARK    7  A    between atoms: O3_16  and  C9_17 
REMARK    8  A    between atoms: C9_17  and  C10_18 
ROOT
HETATM    1  C5  UNL     1      -2.802  51.023 -27.150  1.00  0.00     0.111 A 
HETATM    2  C6  UNL     1      -2.176  52.206 -27.532  1.00  0.00     0.080 A 
HETATM    3  C7  UNL     1      -1.192  52.664 -26.656  1.00  0.00     0.067 A 
HETATM    4  N3  UNL     1      -0.368  53.759 -26.690  1.00  0.00    -0.298 N 
HETATM    5  N4  UNL     1       0.459  53.852 -25.631  1.00  0.00    -0.279 N 
ATOM      6  H4  UNL     1       1.146  54.578 -25.426  1.00  0.00     0.189 HD
HETATM    7  C8  UNL     1       0.164  52.767 -24.917  1.00  0.00     0.171 A 
HETATM    8  C15 UNL     1      -0.864  51.992 -25.487  1.00  0.00     0.060 A 
HETATM    9  C16 UNL     1      -1.538  50.813 -25.181  1.00  0.00     0.108 A 
HETATM   10  N6  UNL     1      -2.497  50.339 -26.022  1.00  0.00    -0.351 N 
ATOM     11  H6  UNL     1      -2.986  49.470 -25.802  1.00  0.00     0.166 HD
HETATM   12  H10 UNL     1      -0.328  54.485 -27.401  1.00  0.00     0.187 HD
ENDROOT
BRANCH   1  13
HETATM   13  N2  UNL     1      -3.815  50.414 -27.892  1.00  0.00    -0.295 N 
HETATM   14  C4  UNL     1      -3.996  49.086 -28.161  1.00  0.00     0.322 C 
HETATM   15  N1  UNL     1      -5.086  48.888 -28.979  1.00  0.00    -0.332 N 
HETATM   16  O2  UNL     1      -3.305  48.158 -27.756  1.00  0.00    -0.247 OA
HETATM   17  H7  UNL     1      -5.281  49.640 -29.630  1.00  0.00     0.165 HD
HETATM   18  H8  UNL     1      -4.505  51.071 -28.219  1.00  0.00     0.172 HD
BRANCH  15  19
HETATM   19  C3  UNL     1      -5.354  47.568 -29.538  1.00  0.00     0.143 C 
BRANCH  19  20
HETATM   20  C2  UNL     1      -5.641  47.647 -31.063  1.00  0.00     0.197 C 
BRANCH  20  21
HETATM   21  O1  UNL     1      -4.472  48.051 -31.794  1.00  0.00    -0.394 OA
HETATM   22  C1  UNL     1      -4.674  48.042 -33.202  1.00  0.00     0.201 C 
ENDBRANCH  20  21
ENDBRANCH  19  20
BRANCH  19  23
HETATM   23  C17 UNL     1      -6.432  46.894 -28.701  1.00  0.00    -0.033 A 
HETATM   24  C18 UNL     1      -6.938  47.448 -27.513  1.00  0.00     0.009 A 
HETATM   25  C19 UNL     1      -7.907  46.772 -26.763  1.00  0.00     0.001 A 
HETATM   26  C20 UNL     1      -8.380  45.531 -27.186  1.00  0.00     0.000 A 
HETATM   27  C21 UNL     1      -7.882  44.961 -28.355  1.00  0.00     0.001 A 
HETATM   28  C22 UNL     1      -6.911  45.634 -29.103  1.00  0.00     0.009 A 
ENDBRANCH  19  23
ENDBRANCH  15  19
ENDBRANCH   1  13
BRANCH   7  29
HETATM   29  O3  UNL     1       0.794  52.502 -23.750  1.00  0.00    -0.328 OA
BRANCH  29  30
HETATM   30  C9  UNL     1       0.015  51.771 -22.795  1.00  0.00     0.234 C 
BRANCH  30  31
HETATM   31  C10 UNL     1       0.253  52.197 -21.358  1.00  0.00     0.033 A 
HETATM   32  C11 UNL     1       1.077  53.282 -21.056  1.00  0.00     0.027 A 
HETATM   33  C12 UNL     1       1.283  53.626 -19.723  1.00  0.00     0.003 A 
HETATM   34  C13 UNL     1       0.673  52.876 -18.725  1.00  0.00     0.017 A 
HETATM   35  C14 UNL     1      -0.111  51.800 -19.103  1.00  0.00     0.088 A 
HETATM   36  N5  UNL     1      -0.325  51.440 -20.388  1.00  0.00    -0.367 N 
ATOM     37  H5  UNL     1      -0.900  50.631 -20.621  1.00  0.00     0.165 HD
ENDBRANCH  30  31
ENDBRANCH  29  30
ENDBRANCH   7  29
TORSDOF 8
ENDMDL
MODEL 4
REMARK minimizedAffinity -8.42293262
REMARK  8 active torsions:
REMARK  status: ('A' for Active; 'I' for Inactive)
REMARK    1  A    between atoms: O1_2  and  C2_3 
REMARK    2  A    between atoms: C2_3  and  C3_4 
REMARK    3  A    between atoms: C3_4  and  N1_5 
REMARK    4  A    between atoms: C3_4  and  C17_29 
REMARK       I    between atoms: N1_5  and  C4_6 
REMARK       I    between atoms: C4_6  and  N2_8 
REMARK    5  A    between atoms: N2_8  and  C5_9 
REMARK    6  A    between atoms: C8_15  and  O3_16 
REMARK    7  A    between atoms: O3_16  and  C9_17 
REMARK    8  A    between atoms: C9_17  and  C10_18 
ROOT
HETATM    1  C5  UNL     1      -4.044  49.024 -26.031  1.00  0.00     0.111 A 
HETATM    2  C6  UNL     1      -3.547  48.483 -24.848  1.00  0.00     0.080 A 
HETATM    3  C7  UNL     1      -2.725  49.333 -24.109  1.00  0.00     0.067 A 
HETATM    4  N3  UNL     1      -2.070  49.170 -22.915  1.00  0.00    -0.298 N 
HETATM    5  N4  UNL     1      -1.358  50.247 -22.533  1.00  0.00    -0.279 N 
ATOM      6  H4  UNL     1      -0.781  50.362 -21.699  1.00  0.00     0.189 HD
HETATM    7  C8  UNL     1      -1.591  51.128 -23.505  1.00  0.00     0.171 A 
HETATM    8  C15 UNL     1      -2.419  50.622 -24.524  1.00  0.00     0.060 A 
HETATM    9  C16 UNL     1      -2.961  51.085 -25.720  1.00  0.00     0.108 A 
HETATM   10  N6  UNL     1      -3.773  50.280 -26.457  1.00  0.00    -0.351 N 
ATOM     11  H6  UNL     1      -4.177  50.623 -27.330  1.00  0.00     0.166 HD
HETATM   12  H10 UNL     1      -2.058  48.346 -22.320  1.00  0.00     0.187 HD
ENDROOT
BRANCH   1  13
HETATM   13  N2  UNL     1      -4.876  48.326 -26.906  1.00  0.00    -0.295 N 
HETATM   14  C4  UNL     1      -4.966  48.431 -28.266  1.00  0.00     0.322 C 
HETATM   15  N1  UNL     1      -5.953  47.610 -28.765  1.00  0.00    -0.332 N 
HETATM   16  O2  UNL     1      -4.286  49.149 -28.990  1.00  0.00    -0.247 OA
HETATM   17  H7  UNL     1      -6.740  47.454 -28.146  1.00  0.00     0.165 HD
HETATM   18  H8  UNL     1      -5.440  47.634 -26.438  1.00  0.00     0.172 HD
BRANCH  15  19
HETATM   19  C3  UNL     1      -6.343  47.698 -30.168  1.00  0.00     0.143 C 
BRANCH  19  20
HETATM   20  C2  UNL     1      -7.855  48.018 -30.316  1.00  0.00     0.197 C 
BRANCH  20  21
HETATM   21  O1  UNL     1      -8.377  48.637 -29.129  1.00  0.00    -0.394 OA
HETATM   22  C1  UNL     1      -9.512  47.957 -28.607  1.00  0.00     0.201 C 
ENDBRANCH  20  21
ENDBRANCH  19  20
BRANCH  19  23
HETATM   23  C17 UNL     1      -5.862  46.446 -30.886  1.00  0.00    -0.033 A 
HETATM   24  C18 UNL     1      -4.696  46.410 -31.670  1.00  0.00     0.009 A 
HETATM   25  C19 UNL     1      -4.315  45.240 -32.335  1.00  0.00     0.001 A 
HETATM   26  C20 UNL     1      -5.097  44.091 -32.233  1.00  0.00     0.000 A 
HETATM   27  C21 UNL     1      -6.262  44.109 -31.471  1.00  0.00     0.001 A 
HETATM   28  C22 UNL     1      -6.644  45.279 -30.808  1.00  0.00     0.009 A 
ENDBRANCH  19  23
ENDBRANCH  15  19
ENDBRANCH   1  13
BRANCH   7  29
HETATM   29  O3  UNL     1      -1.035  52.360 -23.483  1.00  0.00    -0.328 OA
BRANCH  29  30
HETATM   30  C9  UNL     1       0.282  52.439 -24.045  1.00  0.00     0.234 C 
BRANCH  30  31
HETATM   31  C10 UNL     1       0.295  52.513 -25.560  1.00  0.00     0.033 A 
HETATM   32  C11 UNL     1       0.869  51.498 -26.327  1.00  0.00     0.027 A 
HETATM   33  C12 UNL     1       0.877  51.617 -27.714  1.00  0.00     0.003 A 
HETATM   34  C13 UNL     1       0.323  52.746 -28.302  1.00  0.00     0.017 A 
HETATM   35  C14 UNL     1      -0.206  53.721 -27.474  1.00  0.00     0.088 A 
HETATM   36  N5  UNL     1      -0.224  53.635 -26.126  1.00  0.00    -0.367 N 
ATOM     37  H5  UNL     1      -0.612  54.385 -25.554  1.00  0.00     0.165 HD
ENDBRANCH  30  31
ENDBRANCH  29  30
ENDBRANCH   7  29
TORSDOF 8
ENDMDL
MODEL 5
REMARK minimizedAffinity -8.42006302
REMARK  8 active torsions:
REMARK  status: ('A' for Active; 'I' for Inactive)
REMARK    1  A    between atoms: O1_2  and  C2_3 
REMARK    2  A    between atoms: C2_3  and  C3_4 
REMARK    3  A    between atoms: C3_4  and  N1_5 
REMARK    4  A    between atoms: C3_4  and  C17_29 
REMARK       I    between atoms: N1_5  and  C4_6 
REMARK       I    between atoms: C4_6  and  N2_8 
REMARK    5  A    between atoms: N2_8  and  C5_9 
REMARK    6  A    between atoms: C8_15  and  O3_16 
REMARK    7  A    between atoms: O3_16  and  C9_17 
REMARK    8  A    between atoms: C9_17  and  C10_18 
ROOT
HETATM    1  C5  UNL     1      -3.541  48.999 -25.690  1.00  0.00     0.111 A 
HETATM    2  C6  UNL     1      -4.743  48.646 -25.082  1.00  0.00     0.080 A 
HETATM    3  C7  UNL     1      -5.697  48.093 -25.935  1.00  0.00     0.067 A 
HETATM    4  N3  UNL     1      -6.967  47.625 -25.714  1.00  0.00    -0.298 N 
HETATM    5  N4  UNL     1      -7.579  47.165 -26.823  1.00  0.00    -0.279 N 
ATOM      6  H4  UNL     1      -8.521  46.784 -26.915  1.00  0.00     0.189 HD
HETATM    7  C8  UNL     1      -6.655  47.327 -27.770  1.00  0.00     0.171 A 
HETATM    8  C15 UNL     1      -5.468  47.912 -27.292  1.00  0.00     0.060 A 
HETATM    9  C16 UNL     1      -4.236  48.290 -27.819  1.00  0.00     0.108 A 
HETATM   10  N6  UNL     1      -3.284  48.825 -27.008  1.00  0.00    -0.351 N 
ATOM     11  H6  UNL     1      -2.378  49.095 -27.392  1.00  0.00     0.166 HD
HETATM   12  H10 UNL     1      -7.476  47.601 -24.836  1.00  0.00     0.187 HD
ENDROOT
BRANCH   1  13
HETATM   13  N2  UNL     1      -2.470  49.572 -25.003  1.00  0.00    -0.295 N 
HETATM   14  C4  UNL     1      -2.016  50.860 -25.051  1.00  0.00     0.322 C 
HETATM   15  N1  UNL     1      -0.894  51.021 -24.268  1.00  0.00    -0.332 N 
HETATM   16  O2  UNL     1      -2.503  51.783 -25.693  1.00  0.00    -0.247 OA
HETATM   17  H7  UNL     1      -0.301  50.204 -24.187  1.00  0.00     0.165 HD
HETATM   18  H8  UNL     1      -2.026  48.927 -24.368  1.00  0.00     0.172 HD
BRANCH  15  19
HETATM   19  C3  UNL     1      -0.140  52.269 -24.314  1.00  0.00     0.143 C 
BRANCH  19  20
HETATM   20  C2  UNL     1       1.005  52.199 -25.361  1.00  0.00     0.197 C 
BRANCH  20  21
HETATM   21  O1  UNL     1       0.958  53.316 -26.263  1.00  0.00    -0.394 OA
HETATM   22  C1  UNL     1       0.211  53.041 -27.441  1.00  0.00     0.201 C 
ENDBRANCH  20  21
ENDBRANCH  19  20
BRANCH  19  23
HETATM   23  C17 UNL     1       0.286  52.634 -22.899  1.00  0.00    -0.033 A 
HETATM   24  C18 UNL     1      -0.112  51.903 -21.766  1.00  0.00     0.009 A 
HETATM   25  C19 UNL     1       0.281  52.300 -20.483  1.00  0.00     0.001 A 
HETATM   26  C20 UNL     1       1.073  53.434 -20.313  1.00  0.00     0.000 A 
HETATM   27  C21 UNL     1       1.468  54.177 -21.422  1.00  0.00     0.001 A 
HETATM   28  C22 UNL     1       1.072  53.783 -22.704  1.00  0.00     0.009 A 
ENDBRANCH  19  23
ENDBRANCH  15  19
ENDBRANCH   1  13
BRANCH   7  29
HETATM   29  O3  UNL     1      -6.899  46.977 -29.054  1.00  0.00    -0.328 OA
BRANCH  29  30
HETATM   30  C9  UNL     1      -6.619  47.998 -30.021  1.00  0.00     0.234 C 
BRANCH  30  31
HETATM   31  C10 UNL     1      -5.732  47.532 -31.160  1.00  0.00     0.033 A 
HETATM   32  C11 UNL     1      -5.372  46.190 -31.291  1.00  0.00     0.027 A 
HETATM   33  C12 UNL     1      -4.541  45.811 -32.341  1.00  0.00     0.003 A 
HETATM   34  C13 UNL     1      -4.080  46.776 -33.227  1.00  0.00     0.017 A 
HETATM   35  C14 UNL     1      -4.461  48.090 -33.017  1.00  0.00     0.088 A 
HETATM   36  N5  UNL     1      -5.263  48.488 -32.005  1.00  0.00    -0.367 N 
ATOM     37  H5  UNL     1      -5.508  49.470 -31.880  1.00  0.00     0.165 HD
ENDBRANCH  30  31
ENDBRANCH  29  30
ENDBRANCH   7  29
TORSDOF 8
ENDMDL
MODEL 6
REMARK minimizedAffinity -8.40568161
REMARK  8 active torsions:
REMARK  status: ('A' for Active; 'I' for Inactive)
REMARK    1  A    between atoms: O1_2  and  C2_3 
REMARK    2  A    between atoms: C2_3  and  C3_4 
REMARK    3  A    between atoms: C3_4  and  N1_5 
REMARK    4  A    between atoms: C3_4  and  C17_29 
REMARK       I    between atoms: N1_5  and  C4_6 
REMARK       I    between atoms: C4_6  and  N2_8 
REMARK    5  A    between atoms: N2_8  and  C5_9 
REMARK    6  A    between atoms: C8_15  and  O3_16 
REMARK    7  A    between atoms: O3_16  and  C9_17 
REMARK    8  A    between atoms: C9_17  and  C10_18 
ROOT
HETATM    1  C5  UNL     1      -0.899  50.223 -20.703  1.00  0.00     0.111 A 
HETATM    2  C6  UNL     1      -1.008  49.059 -19.948  1.00  0.00     0.080 A 
HETATM    3  C7  UNL     1      -0.953  49.242 -18.567  1.00  0.00     0.067 A 
HETATM    4  N3  UNL     1      -1.033  48.362 -17.518  1.00  0.00    -0.298 N 
HETATM    5  N4  UNL     1      -0.930  48.944 -16.308  1.00  0.00    -0.279 N 
ATOM      6  H4  UNL     1      -0.945  48.502 -15.389  1.00  0.00     0.189 HD
HETATM    7  C8  UNL     1      -0.806  50.238 -16.602  1.00  0.00     0.171 A 
HETATM    8  C15 UNL     1      -0.797  50.493 -17.987  1.00  0.00     0.060 A 
HETATM    9  C16 UNL     1      -0.698  51.607 -18.815  1.00  0.00     0.108 A 
HETATM   10  N6  UNL     1      -0.756  51.459 -20.167  1.00  0.00    -0.351 N 
ATOM     11  H6  UNL     1      -0.691  52.276 -20.774  1.00  0.00     0.166 HD
HETATM   12  H10 UNL     1      -1.146  47.353 -17.561  1.00  0.00     0.187 HD
ENDROOT
BRANCH   1  13
HETATM   13  N2  UNL     1      -0.924  50.242 -22.098  1.00  0.00    -0.295 N 
HETATM   14  C4  UNL     1      -0.888  51.319 -22.939  1.00  0.00     0.322 C 
HETATM   15  N1  UNL     1      -0.991  50.927 -24.255  1.00  0.00    -0.332 N 
HETATM   16  O2  UNL     1      -0.784  52.496 -22.613  1.00  0.00    -0.247 OA
HETATM   17  H7  UNL     1      -1.538  50.088 -24.415  1.00  0.00     0.165 HD
HETATM   18  H8  UNL     1      -0.929  49.317 -22.499  1.00  0.00     0.172 HD
BRANCH  15  19
HETATM   19  C3  UNL     1      -1.157  51.923 -25.307  1.00  0.00     0.143 C 
BRANCH  19  20
HETATM   20  C2  UNL     1      -2.547  51.801 -25.988  1.00  0.00     0.197 C 
BRANCH  20  21
HETATM   21  O1  UNL     1      -3.529  52.610 -25.320  1.00  0.00    -0.394 OA
HETATM   22  C1  UNL     1      -4.457  51.840 -24.568  1.00  0.00     0.201 C 
ENDBRANCH  20  21
ENDBRANCH  19  20
BRANCH  19  23
HETATM   23  C17 UNL     1       0.042  51.847 -26.243  1.00  0.00    -0.033 A 
HETATM   24  C18 UNL     1      -0.072  51.914 -27.642  1.00  0.00     0.009 A 
HETATM   25  C19 UNL     1       1.059  51.807 -28.459  1.00  0.00     0.001 A 
HETATM   26  C20 UNL     1       2.318  51.626 -27.890  1.00  0.00     0.000 A 
HETATM   27  C21 UNL     1       2.450  51.546 -26.506  1.00  0.00     0.001 A 
HETATM   28  C22 UNL     1       1.319  51.649 -25.690  1.00  0.00     0.009 A 
ENDBRANCH  19  23
ENDBRANCH  15  19
ENDBRANCH   1  13
BRANCH   7  29
HETATM   29  O3  UNL     1      -0.670  51.168 -15.630  1.00  0.00    -0.328 OA
BRANCH  29  30
HETATM   30  C9  UNL     1       0.388  50.916 -14.696  1.00  0.00     0.234 C 
BRANCH  30  31
HETATM   31  C10 UNL     1       1.735  51.453 -15.139  1.00  0.00     0.033 A 
HETATM   32  C11 UNL     1       1.832  52.407 -16.153  1.00  0.00     0.027 A 
HETATM   33  C12 UNL     1       3.091  52.858 -16.541  1.00  0.00     0.003 A 
HETATM   34  C13 UNL     1       4.220  52.342 -15.918  1.00  0.00     0.017 A 
HETATM   35  C14 UNL     1       4.043  51.381 -14.938  1.00  0.00     0.088 A 
HETATM   36  N5  UNL     1       2.836  50.922 -14.543  1.00  0.00    -0.367 N 
ATOM     37  H5  UNL     1       2.753  50.203 -13.826  1.00  0.00     0.165 HD
ENDBRANCH  30  31
ENDBRANCH  29  30
ENDBRANCH   7  29
TORSDOF 8
ENDMDL
MODEL 7
REMARK minimizedAffinity -8.39482212
REMARK  8 active torsions:
REMARK  status: ('A' for Active; 'I' for Inactive)
REMARK    1  A    between atoms: O1_2  and  C2_3 
REMARK    2  A    between atoms: C2_3  and  C3_4 
REMARK    3  A    between atoms: C3_4  and  N1_5 
REMARK    4  A    between atoms: C3_4  and  C17_29 
REMARK       I    between atoms: N1_5  and  C4_6 
REMARK       I    between atoms: C4_6  and  N2_8 
REMARK    5  A    between atoms: N2_8  and  C5_9 
REMARK    6  A    between atoms: C8_15  and  O3_16 
REMARK    7  A    between atoms: O3_16  and  C9_17 
REMARK    8  A    between atoms: C9_17  and  C10_18 
ROOT
HETATM    1  C5  UNL     1      -4.162  49.216 -25.735  1.00  0.00     0.111 A 
HETATM    2  C6  UNL     1      -3.618  48.635 -24.593  1.00  0.00     0.080 A 
HETATM    3  C7  UNL     1      -2.707  49.433 -23.900  1.00  0.00     0.067 A 
HETATM    4  N3  UNL     1      -1.985  49.221 -22.754  1.00  0.00    -0.298 N 
HETATM    5  N4  UNL     1      -1.197  50.257 -22.407  1.00  0.00    -0.279 N 
ATOM      6  H4  UNL     1      -0.562  50.331 -21.612  1.00  0.00     0.189 HD
HETATM    7  C8  UNL     1      -1.448  51.161 -23.353  1.00  0.00     0.171 A 
HETATM    8  C15 UNL     1      -2.365  50.710 -24.321  1.00  0.00     0.060 A 
HETATM    9  C16 UNL     1      -2.959  51.216 -25.474  1.00  0.00     0.108 A 
HETATM   10  N6  UNL     1      -3.856  50.463 -26.165  1.00  0.00    -0.351 N 
ATOM     11  H6  UNL     1      -4.298  50.837 -27.006  1.00  0.00     0.166 HD
HETATM   12  H10 UNL     1      -1.977  48.390 -22.170  1.00  0.00     0.187 HD
ENDROOT
BRANCH   1  13
HETATM   13  N2  UNL     1      -5.083  48.572 -26.561  1.00  0.00    -0.295 N 
HETATM   14  C4  UNL     1      -4.946  48.204 -27.871  1.00  0.00     0.322 C 
HETATM   15  N1  UNL     1      -6.106  47.641 -28.354  1.00  0.00    -0.332 N 
HETATM   16  O2  UNL     1      -3.946  48.340 -28.566  1.00  0.00    -0.247 OA
HETATM   17  H7  UNL     1      -6.962  47.991 -27.941  1.00  0.00     0.165 HD
HETATM   18  H8  UNL     1      -5.934  48.328 -26.079  1.00  0.00     0.172 HD
BRANCH  15  19
HETATM   19  C3  UNL     1      -6.240  47.342 -29.776  1.00  0.00     0.143 C 
BRANCH  19  20
HETATM   20  C2  UNL     1      -5.358  48.286 -30.637  1.00  0.00     0.197 C 
BRANCH  20  21
HETATM   21  O1  UNL     1      -4.558  47.544 -31.572  1.00  0.00    -0.394 OA
HETATM   22  C1  UNL     1      -4.788  47.931 -32.921  1.00  0.00     0.201 C 
ENDBRANCH  20  21
ENDBRANCH  19  20
BRANCH  19  23
HETATM   23  C17 UNL     1      -7.720  47.321 -30.131  1.00  0.00    -0.033 A 
HETATM   24  C18 UNL     1      -8.192  47.138 -31.442  1.00  0.00     0.009 A 
HETATM   25  C19 UNL     1      -9.563  47.158 -31.720  1.00  0.00     0.001 A 
HETATM   26  C20 UNL     1     -10.482  47.367 -30.694  1.00  0.00     0.000 A 
HETATM   27  C21 UNL     1     -10.034  47.563 -29.390  1.00  0.00     0.001 A 
HETATM   28  C22 UNL     1      -8.663  47.546 -29.112  1.00  0.00     0.009 A 
ENDBRANCH  19  23
ENDBRANCH  15  19
ENDBRANCH   1  13
BRANCH   7  29
HETATM   29  O3  UNL     1      -0.830  52.364 -23.354  1.00  0.00    -0.328 OA
BRANCH  29  30
HETATM   30  C9  UNL     1       0.463  52.378 -23.973  1.00  0.00     0.234 C 
BRANCH  30  31
HETATM   31  C10 UNL     1       0.415  52.475 -25.486  1.00  0.00     0.033 A 
HETATM   32  C11 UNL     1       0.989  51.489 -26.290  1.00  0.00     0.027 A 
HETATM   33  C12 UNL     1       0.939  51.628 -27.674  1.00  0.00     0.003 A 
HETATM   34  C13 UNL     1       0.329  52.749 -28.223  1.00  0.00     0.017 A 
HETATM   35  C14 UNL     1      -0.196  53.695 -27.360  1.00  0.00     0.088 A 
HETATM   36  N5  UNL     1      -0.159  53.589 -26.014  1.00  0.00    -0.367 N 
ATOM     37  H5  UNL     1      -0.546  54.318 -25.415  1.00  0.00     0.165 HD
ENDBRANCH  30  31
ENDBRANCH  29  30
ENDBRANCH   7  29
TORSDOF 8
ENDMDL
MODEL 8
REMARK minimizedAffinity -8.28172684
REMARK  8 active torsions:
REMARK  status: ('A' for Active; 'I' for Inactive)
REMARK    1  A    between atoms: O1_2  and  C2_3 
REMARK    2  A    between atoms: C2_3  and  C3_4 
REMARK    3  A    between atoms: C3_4  and  N1_5 
REMARK    4  A    between atoms: C3_4  and  C17_29 
REMARK       I    between atoms: N1_5  and  C4_6 
REMARK       I    between atoms: C4_6  and  N2_8 
REMARK    5  A    between atoms: N2_8  and  C5_9 
REMARK    6  A    between atoms: C8_15  and  O3_16 
REMARK    7  A    between atoms: O3_16  and  C9_17 
REMARK    8  A    between atoms: C9_17  and  C10_18 
ROOT
HETATM    1  C5  UNL     1      -3.389  49.611 -27.365  1.00  0.00     0.111 A 
HETATM    2  C6  UNL     1      -3.318  50.893 -27.904  1.00  0.00     0.080 A 
HETATM    3  C7  UNL     1      -2.297  51.694 -27.393  1.00  0.00     0.067 A 
HETATM    4  N3  UNL     1      -1.910  52.979 -27.672  1.00  0.00    -0.298 N 
HETATM    5  N4  UNL     1      -0.858  53.401 -26.944  1.00  0.00    -0.279 N 
ATOM      6  H4  UNL     1      -0.401  54.314 -26.961  1.00  0.00     0.189 HD
HETATM    7  C8  UNL     1      -0.556  52.339 -26.199  1.00  0.00     0.171 A 
HETATM    8  C15 UNL     1      -1.419  51.248 -26.415  1.00  0.00     0.060 A 
HETATM    9  C16 UNL     1      -1.559  49.950 -25.932  1.00  0.00     0.108 A 
HETATM   10  N6  UNL     1      -2.541  49.144 -26.418  1.00  0.00    -0.351 N 
ATOM     11  H6  UNL     1      -2.639  48.189 -26.070  1.00  0.00     0.166 HD
HETATM   12  H10 UNL     1      -2.327  53.623 -28.337  1.00  0.00     0.187 HD
ENDROOT
BRANCH   1  13
HETATM   13  N2  UNL     1      -4.346  48.669 -27.744  1.00  0.00    -0.295 N 
HETATM   14  C4  UNL     1      -4.913  48.474 -28.973  1.00  0.00     0.322 C 
HETATM   15  N1  UNL     1      -5.862  47.477 -28.930  1.00  0.00    -0.332 N 
HETATM   16  O2  UNL     1      -4.649  49.082 -30.003  1.00  0.00    -0.247 OA
HETATM   17  H7  UNL     1      -6.352  47.383 -28.047  1.00  0.00     0.165 HD
HETATM   18  H8  UNL     1      -4.593  48.043 -26.994  1.00  0.00     0.172 HD
BRANCH  15  19
HETATM   19  C3  UNL     1      -6.718  47.228 -30.084  1.00  0.00     0.143 C 
BRANCH  19  20
HETATM   20  C2  UNL     1      -8.216  47.177 -29.677  1.00  0.00     0.197 C 
BRANCH  20  21
HETATM   21  O1  UNL     1      -9.018  48.009 -30.530  1.00  0.00    -0.394 OA
HETATM   22  C1  UNL     1      -8.303  49.128 -31.037  1.00  0.00     0.201 C 
ENDBRANCH  20  21
ENDBRANCH  19  20
BRANCH  19  23
HETATM   23  C17 UNL     1      -6.196  46.005 -30.823  1.00  0.00    -0.033 A 
HETATM   24  C18 UNL     1      -5.103  46.050 -31.705  1.00  0.00     0.009 A 
HETATM   25  C19 UNL     1      -4.681  44.901 -32.384  1.00  0.00     0.001 A 
HETATM   26  C20 UNL     1      -5.349  43.693 -32.196  1.00  0.00     0.000 A 
HETATM   27  C21 UNL     1      -6.442  43.630 -31.335  1.00  0.00     0.001 A 
HETATM   28  C22 UNL     1      -6.865  44.779 -30.659  1.00  0.00     0.009 A 
ENDBRANCH  19  23
ENDBRANCH  15  19
ENDBRANCH   1  13
BRANCH   7  29
HETATM   29  O3  UNL     1       0.466  52.370 -25.314  1.00  0.00    -0.328 OA
BRANCH  29  30
HETATM   30  C9  UNL     1       0.529  53.553 -24.506  1.00  0.00     0.234 C 
BRANCH  30  31
HETATM   31  C10 UNL     1       0.673  53.272 -23.022  1.00  0.00     0.033 A 
HETATM   32  C11 UNL     1       0.112  52.131 -22.447  1.00  0.00     0.027 A 
HETATM   33  C12 UNL     1       0.252  51.924 -21.077  1.00  0.00     0.003 A 
HETATM   34  C13 UNL     1       0.938  52.859 -20.314  1.00  0.00     0.017 A 
HETATM   35  C14 UNL     1       1.446  53.977 -20.954  1.00  0.00     0.088 A 
HETATM   36  N5  UNL     1       1.322  54.207 -22.279  1.00  0.00    -0.367 N 
ATOM     37  H5  UNL     1       1.701  55.052 -22.706  1.00  0.00     0.165 HD
ENDBRANCH  30  31
ENDBRANCH  29  30
ENDBRANCH   7  29
TORSDOF 8
ENDMDL
MODEL 9
REMARK minimizedAffinity -8.27037239
REMARK  8 active torsions:
REMARK  status: ('A' for Active; 'I' for Inactive)
REMARK    1  A    between atoms: O1_2  and  C2_3 
REMARK    2  A    between atoms: C2_3  and  C3_4 
REMARK    3  A    between atoms: C3_4  and  N1_5 
REMARK    4  A    between atoms: C3_4  and  C17_29 
REMARK       I    between atoms: N1_5  and  C4_6 
REMARK       I    between atoms: C4_6  and  N2_8 
REMARK    5  A    between atoms: N2_8  and  C5_9 
REMARK    6  A    between atoms: C8_15  and  O3_16 
REMARK    7  A    between atoms: O3_16  and  C9_17 
REMARK    8  A    between atoms: C9_17  and  C10_18 
ROOT
HETATM    1  C5  UNL     1      -3.424  49.076 -25.708  1.00  0.00     0.111 A 
HETATM    2  C6  UNL     1      -3.405  48.874 -27.085  1.00  0.00     0.080 A 
HETATM    3  C7  UNL     1      -4.563  48.306 -27.615  1.00  0.00     0.067 A 
HETATM    4  N3  UNL     1      -4.920  47.970 -28.896  1.00  0.00    -0.298 N 
HETATM    5  N4  UNL     1      -6.149  47.429 -28.995  1.00  0.00    -0.279 N 
ATOM      6  H4  UNL     1      -6.626  47.090 -29.831  1.00  0.00     0.189 HD
HETATM    7  C8  UNL     1      -6.593  47.446 -27.739  1.00  0.00     0.171 A 
HETATM    8  C15 UNL     1      -5.653  47.963 -26.827  1.00  0.00     0.060 A 
HETATM    9  C16 UNL     1      -5.590  48.203 -25.457  1.00  0.00     0.108 A 
HETATM   10  N6  UNL     1      -4.475  48.763 -24.914  1.00  0.00    -0.351 N 
ATOM     11  H6  UNL     1      -4.432  48.946 -23.911  1.00  0.00     0.166 HD
HETATM   12  H10 UNL     1      -4.367  48.074 -29.742  1.00  0.00     0.187 HD
ENDROOT
BRANCH   1  13
HETATM   13  N2  UNL     1      -2.357  49.626 -24.996  1.00  0.00    -0.295 N 
HETATM   14  C4  UNL     1      -2.025  50.942 -24.835  1.00  0.00     0.322 C 
HETATM   15  N1  UNL     1      -0.864  51.077 -24.108  1.00  0.00    -0.332 N 
HETATM   16  O2  UNL     1      -2.643  51.909 -25.267  1.00  0.00    -0.247 OA
HETATM   17  H7  UNL     1      -0.195  50.323 -24.215  1.00  0.00     0.165 HD
HETATM   18  H8  UNL     1      -1.808  48.928 -24.519  1.00  0.00     0.172 HD
BRANCH  15  19
HETATM   19  C3  UNL     1      -0.230  52.384 -23.972  1.00  0.00     0.143 C 
BRANCH  19  20
HETATM   20  C2  UNL     1       0.936  52.555 -24.984  1.00  0.00     0.197 C 
BRANCH  20  21
HETATM   21  O1  UNL     1       0.720  53.685 -25.844  1.00  0.00    -0.394 OA
HETATM   22  C1  UNL     1       0.073  53.334 -27.061  1.00  0.00     0.201 C 
ENDBRANCH  20  21
ENDBRANCH  19  20
BRANCH  19  23
HETATM   23  C17 UNL     1       0.132  52.601 -22.510  1.00  0.00    -0.033 A 
HETATM   24  C18 UNL     1       1.038  53.586 -22.082  1.00  0.00     0.009 A 
HETATM   25  C19 UNL     1       1.361  53.723 -20.727  1.00  0.00     0.001 A 
HETATM   26  C20 UNL     1       0.789  52.874 -19.782  1.00  0.00     0.000 A 
HETATM   27  C21 UNL     1      -0.102  51.883 -20.188  1.00  0.00     0.001 A 
HETATM   28  C22 UNL     1      -0.422  51.744 -21.542  1.00  0.00     0.009 A 
ENDBRANCH  19  23
ENDBRANCH  15  19
ENDBRANCH   1  13
BRANCH   7  29
HETATM   29  O3  UNL     1      -7.818  46.971 -27.421  1.00  0.00    -0.328 OA
BRANCH  29  30
HETATM   30  C9  UNL     1      -8.825  47.973 -27.231  1.00  0.00     0.234 C 
BRANCH  30  31
HETATM   31  C10 UNL     1     -10.023  47.818 -28.148  1.00  0.00     0.033 A 
HETATM   32  C11 UNL     1      -9.865  47.445 -29.483  1.00  0.00     0.027 A 
HETATM   33  C12 UNL     1     -10.991  47.334 -30.294  1.00  0.00     0.003 A 
HETATM   34  C13 UNL     1     -12.244  47.605 -29.759  1.00  0.00     0.017 A 
HETATM   35  C14 UNL     1     -12.317  47.992 -28.432  1.00  0.00     0.088 A 
HETATM   36  N5  UNL     1     -11.242  48.113 -27.623  1.00  0.00    -0.367 N 
ATOM     37  H5  UNL     1     -11.341  48.415 -26.654  1.00  0.00     0.165 HD
ENDBRANCH  30  31
ENDBRANCH  29  30
ENDBRANCH   7  29
TORSDOF 8
ENDMDL
