MODEL 1
REMARK minimizedAffinity -9.337677
REMARK  5 active torsions:
REMARK  status: ('A' for Active; 'I' for Inactive)
REMARK    1  A    between atoms: C2_2  and  N1_3 
REMARK    2  A    between atoms: C2_2  and  C16_25 
REMARK       I    between atoms: N1_3  and  C3_4 
REMARK       I    between atoms: C3_4  and  N2_6 
REMARK    3  A    between atoms: N2_6  and  C4_7 
REMARK    4  A    between atoms: C7_13  and  N5_14 
REMARK    5  A    between atoms: N5_14  and  C8_15 
ROOT
HETATM    1  C4  UNL     1       0.857  52.917 -19.131  1.00  0.00     0.111 A 
HETATM    2  C5  UNL     1       0.088  51.897 -19.676  1.00  0.00     0.080 A 
HETATM    3  C6  UNL     1      -0.036  51.927 -21.066  1.00  0.00     0.066 A 
HETATM    4  N3  UNL     1      -0.676  51.099 -21.944  1.00  0.00    -0.298 N 
HETATM    5  N4  UNL     1      -0.541  51.454 -23.232  1.00  0.00    -0.289 N 
ATOM      6  H4  UNL     1      -0.911  50.980 -24.055  1.00  0.00     0.188 HD
HETATM    7  C7  UNL     1       0.187  52.569 -23.185  1.00  0.00     0.109 A 
HETATM    8  C14 UNL     1       0.559  52.903 -21.855  1.00  0.00     0.047 A 
HETATM    9  C15 UNL     1       1.332  53.875 -21.221  1.00  0.00     0.106 A 
HETATM   10  N6  UNL     1       1.464  53.875 -19.868  1.00  0.00    -0.351 N 
ATOM     11  H6  UNL     1       2.020  54.596 -19.409  1.00  0.00     0.166 HD
HETATM   12  H8  UNL     1      -1.211  50.265 -21.729  1.00  0.00     0.187 HD
ENDROOT
BRANCH   1  13
HETATM   13  N2  UNL     1       1.104  53.048 -17.764  1.00  0.00    -0.295 N 
HETATM   14  C3  UNL     1       0.997  52.100 -16.782  1.00  0.00     0.322 C 
HETATM   15  N1  UNL     1       1.393  52.609 -15.563  1.00  0.00    -0.335 N 
HETATM   16  O1  UNL     1       0.606  50.950 -16.923  1.00  0.00    -0.247 OA
HETATM   17  H5  UNL     1       2.109  53.320 -15.617  1.00  0.00     0.165 HD
HETATM   18  H6  UNL     1       1.287  54.000 -17.494  1.00  0.00     0.172 HD
BRANCH  15  19
HETATM   19  C2  UNL     1       1.451  51.759 -14.382  1.00  0.00     0.115 C 
HETATM   20  C1  UNL     1       1.641  50.283 -14.749  1.00  0.00     0.037 C 
BRANCH  19  21
HETATM   21  C16 UNL     1       0.202  51.975 -13.544  1.00  0.00    -0.036 A 
HETATM   22  C17 UNL     1      -1.044  51.449 -13.928  1.00  0.00     0.009 A 
HETATM   23  C18 UNL     1      -2.183  51.682 -13.156  1.00  0.00     0.001 A 
HETATM   24  C19 UNL     1      -2.096  52.449 -11.995  1.00  0.00     0.000 A 
HETATM   25  C20 UNL     1      -0.870  52.985 -11.606  1.00  0.00     0.001 A 
HETATM   26  C21 UNL     1       0.272  52.752 -12.376  1.00  0.00     0.009 A 
ENDBRANCH  19  21
ENDBRANCH  15  19
ENDBRANCH   1  13
BRANCH   7  27
HETATM   27  N5  UNL     1       0.539  53.226 -24.316  1.00  0.00    -0.273 NA
HETATM   28  H9  UNL     1       1.443  53.682 -24.200  1.00  0.00     0.129 HD
BRANCH  27  29
HETATM   29  C8  UNL     1       0.466  52.553 -25.614  1.00  0.00     0.061 C 
HETATM   30  C9  UNL     1       0.136  53.592 -26.689  1.00  0.00     0.020 C 
HETATM   31  C10 UNL     1      -0.023  52.954 -28.071  1.00  0.00     0.002 C 
HETATM   32  C11 UNL     1       0.817  51.691 -28.260  1.00  0.00     0.000 C 
HETATM   33  C12 UNL     1       2.090  51.731 -27.428  1.00  0.00     0.002 C 
HETATM   34  C13 UNL     1       1.791  51.835 -25.930  1.00  0.00     0.020 C 
ENDBRANCH  27  29
ENDBRANCH   7  27
TORSDOF 5
ENDMDL
MODEL 2
REMARK minimizedAffinity -9.18536949
REMARK  5 active torsions:
REMARK  status: ('A' for Active; 'I' for Inactive)
REMARK    1  A    between atoms: C2_2  and  N1_3 
REMARK    2  A    between atoms: C2_2  and  C16_25 
REMARK       I    between atoms: N1_3  and  C3_4 
REMARK       I    between atoms: C3_4  and  N2_6 
REMARK    3  A    between atoms: N2_6  and  C4_7 
REMARK    4  A    between atoms: C7_13  and  N5_14 
REMARK    5  A    between atoms: N5_14  and  C8_15 
ROOT
HETATM    1  C4  UNL     1      -1.113  50.010 -21.304  1.00  0.00     0.111 A 
HETATM    2  C5  UNL     1      -1.387  48.882 -20.542  1.00  0.00     0.080 A 
HETATM    3  C6  UNL     1      -1.107  49.004 -19.180  1.00  0.00     0.066 A 
HETATM    4  N3  UNL     1      -1.261  48.138 -18.134  1.00  0.00    -0.298 N 
HETATM    5  N4  UNL     1      -0.892  48.641 -16.946  1.00  0.00    -0.289 N 
ATOM      6  H4  UNL     1      -0.937  48.191 -16.033  1.00  0.00     0.188 HD
HETATM    7  C7  UNL     1      -0.454  49.866 -17.236  1.00  0.00     0.109 A 
HETATM    8  C14 UNL     1      -0.587  50.163 -18.619  1.00  0.00     0.047 A 
HETATM    9  C15 UNL     1      -0.366  51.255 -19.458  1.00  0.00     0.106 A 
HETATM   10  N6  UNL     1      -0.623  51.161 -20.790  1.00  0.00    -0.351 N 
ATOM     11  H6  UNL     1      -0.446  51.959 -21.401  1.00  0.00     0.166 HD
HETATM   12  H8  UNL     1      -1.629  47.194 -18.164  1.00  0.00     0.187 HD
ENDROOT
BRANCH   1  13
HETATM   13  N2  UNL     1      -1.338  50.083 -22.679  1.00  0.00    -0.295 N 
HETATM   14  C3  UNL     1      -1.341  51.189 -23.486  1.00  0.00     0.322 C 
HETATM   15  N1  UNL     1      -1.541  50.834 -24.804  1.00  0.00    -0.335 N 
HETATM   16  O1  UNL     1      -1.194  52.349 -23.128  1.00  0.00    -0.247 OA
HETATM   17  H5  UNL     1      -1.178  49.926 -25.055  1.00  0.00     0.165 HD
HETATM   18  H6  UNL     1      -1.627  49.202 -23.071  1.00  0.00     0.172 HD
BRANCH  15  19
HETATM   19  C2  UNL     1      -1.495  51.835 -25.862  1.00  0.00     0.115 C 
HETATM   20  C1  UNL     1      -2.627  51.643 -26.877  1.00  0.00     0.037 C 
BRANCH  19  21
HETATM   21  C16 UNL     1      -0.129  51.801 -26.527  1.00  0.00    -0.036 A 
HETATM   22  C17 UNL     1       0.015  51.910 -27.921  1.00  0.00     0.009 A 
HETATM   23  C18 UNL     1       1.278  51.852 -28.512  1.00  0.00     0.001 A 
HETATM   24  C19 UNL     1       2.413  51.676 -27.721  1.00  0.00     0.000 A 
HETATM   25  C20 UNL     1       2.285  51.557 -26.338  1.00  0.00     0.001 A 
HETATM   26  C21 UNL     1       1.022  51.617 -25.744  1.00  0.00     0.009 A 
ENDBRANCH  19  21
ENDBRANCH  15  19
ENDBRANCH   1  13
BRANCH   7  27
HETATM   27  N5  UNL     1       0.004  50.696 -16.267  1.00  0.00    -0.273 NA
HETATM   28  H9  UNL     1      -0.352  50.414 -15.355  1.00  0.00     0.129 HD
BRANCH  27  29
HETATM   29  C8  UNL     1       1.429  51.022 -16.186  1.00  0.00     0.061 C 
HETATM   30  C9  UNL     1       1.622  52.486 -16.588  1.00  0.00     0.020 C 
HETATM   31  C10 UNL     1       3.099  52.887 -16.591  1.00  0.00     0.002 C 
HETATM   32  C11 UNL     1       3.946  52.104 -15.588  1.00  0.00     0.000 C 
HETATM   33  C12 UNL     1       3.132  51.676 -14.376  1.00  0.00     0.002 C 
HETATM   34  C13 UNL     1       1.964  50.765 -14.765  1.00  0.00     0.020 C 
ENDBRANCH  27  29
ENDBRANCH   7  27
TORSDOF 5
ENDMDL
MODEL 3
REMARK minimizedAffinity -9.05571747
REMARK  5 active torsions:
REMARK  status: ('A' for Active; 'I' for Inactive)
REMARK    1  A    between atoms: C2_2  and  N1_3 
REMARK    2  A    between atoms: C2_2  and  C16_25 
REMARK       I    between atoms: N1_3  and  C3_4 
REMARK       I    between atoms: C3_4  and  N2_6 
REMARK    3  A    between atoms: N2_6  and  C4_7 
REMARK    4  A    between atoms: C7_13  and  N5_14 
REMARK    5  A    between atoms: N5_14  and  C8_15 
ROOT
HETATM    1  C4  UNL     1      -2.555  51.159 -27.061  1.00  0.00     0.111 A 
HETATM    2  C5  UNL     1      -2.022  52.411 -27.338  1.00  0.00     0.080 A 
HETATM    3  C6  UNL     1      -1.058  52.859 -26.434  1.00  0.00     0.066 A 
HETATM    4  N3  UNL     1      -0.308  54.000 -26.388  1.00  0.00    -0.298 N 
HETATM    5  N4  UNL     1       0.545  54.056 -25.354  1.00  0.00    -0.289 N 
ATOM      6  H4  UNL     1       1.212  54.794 -25.129  1.00  0.00     0.188 HD
HETATM    7  C7  UNL     1       0.320  52.924 -24.688  1.00  0.00     0.109 A 
HETATM    8  C14 UNL     1      -0.657  52.116 -25.330  1.00  0.00     0.047 A 
HETATM    9  C15 UNL     1      -1.231  50.859 -25.144  1.00  0.00     0.106 A 
HETATM   10  N6  UNL     1      -2.178  50.401 -26.005  1.00  0.00    -0.351 N 
ATOM     11  H6  UNL     1      -2.604  49.486 -25.856  1.00  0.00     0.166 HD
HETATM   12  H8  UNL     1      -0.321  54.774 -27.043  1.00  0.00     0.187 HD
ENDROOT
BRANCH   1  13
HETATM   13  N2  UNL     1      -3.520  50.540 -27.855  1.00  0.00    -0.295 N 
HETATM   14  C3  UNL     1      -3.872  49.218 -27.897  1.00  0.00     0.322 C 
HETATM   15  N1  UNL     1      -4.918  49.015 -28.772  1.00  0.00    -0.335 N 
HETATM   16  O1  UNL     1      -3.353  48.308 -27.265  1.00  0.00    -0.247 OA
HETATM   17  H5  UNL     1      -5.556  49.795 -28.852  1.00  0.00     0.165 HD
HETATM   18  H6  UNL     1      -3.916  51.164 -28.539  1.00  0.00     0.172 HD
BRANCH  15  19
HETATM   19  C2  UNL     1      -5.526  47.700 -28.919  1.00  0.00     0.115 C 
HETATM   20  C1  UNL     1      -5.657  47.293 -30.390  1.00  0.00     0.037 C 
BRANCH  19  21
HETATM   21  C16 UNL     1      -6.869  47.683 -28.208  1.00  0.00    -0.036 A 
HETATM   22  C17 UNL     1      -8.054  48.061 -28.862  1.00  0.00     0.009 A 
HETATM   23  C18 UNL     1      -9.273  48.062 -28.182  1.00  0.00     0.001 A 
HETATM   24  C19 UNL     1      -9.324  47.694 -26.838  1.00  0.00     0.000 A 
HETATM   25  C20 UNL     1      -8.156  47.327 -26.173  1.00  0.00     0.001 A 
HETATM   26  C21 UNL     1      -6.936  47.323 -26.852  1.00  0.00     0.009 A 
ENDBRANCH  19  21
ENDBRANCH  15  19
ENDBRANCH   1  13
BRANCH   7  27
HETATM   27  N5  UNL     1       1.014  52.619 -23.565  1.00  0.00    -0.273 NA
HETATM   28  H9  UNL     1       1.959  52.998 -23.614  1.00  0.00     0.129 HD
BRANCH  27  29
HETATM   29  C8  UNL     1       0.429  52.861 -22.245  1.00  0.00     0.061 C 
HETATM   30  C9  UNL     1       0.272  51.520 -21.523  1.00  0.00     0.020 C 
HETATM   31  C10 UNL     1      -0.397  51.683 -20.157  1.00  0.00     0.002 C 
HETATM   32  C11 UNL     1      -0.126  53.037 -19.502  1.00  0.00     0.000 C 
HETATM   33  C12 UNL     1       1.223  53.604 -19.917  1.00  0.00     0.002 C 
HETATM   34  C13 UNL     1       1.309  53.826 -21.429  1.00  0.00     0.020 C 
ENDBRANCH  27  29
ENDBRANCH   7  27
TORSDOF 5
ENDMDL
MODEL 4
REMARK minimizedAffinity -9.01057625
REMARK  5 active torsions:
REMARK  status: ('A' for Active; 'I' for Inactive)
REMARK    1  A    between atoms: C2_2  and  N1_3 
REMARK    2  A    between atoms: C2_2  and  C16_25 
REMARK       I    between atoms: N1_3  and  C3_4 
REMARK       I    between atoms: C3_4  and  N2_6 
REMARK    3  A    between atoms: N2_6  and  C4_7 
REMARK    4  A    between atoms: C7_13  and  N5_14 
REMARK    5  A    between atoms: N5_14  and  C8_15 
ROOT
HETATM    1  C4  UNL     1       0.851  53.034 -19.737  1.00  0.00     0.111 A 
HETATM    2  C5  UNL     1       1.471  53.955 -20.571  1.00  0.00     0.080 A 
HETATM    3  C6  UNL     1       1.133  53.855 -21.921  1.00  0.00     0.066 A 
HETATM    4  N3  UNL     1       1.511  54.582 -23.014  1.00  0.00    -0.298 N 
HETATM    5  N4  UNL     1       0.940  54.185 -24.162  1.00  0.00    -0.289 N 
ATOM      6  H4  UNL     1       1.054  54.587 -25.092  1.00  0.00     0.188 HD
HETATM    7  C7  UNL     1       0.188  53.143 -23.805  1.00  0.00     0.109 A 
HETATM    8  C14 UNL     1       0.246  52.902 -22.406  1.00  0.00     0.047 A 
HETATM    9  C15 UNL     1      -0.346  52.032 -21.491  1.00  0.00     0.106 A 
HETATM   10  N6  UNL     1      -0.030  52.104 -20.171  1.00  0.00    -0.351 N 
ATOM     11  H6  UNL     1      -0.456  51.456 -19.508  1.00  0.00     0.166 HD
HETATM   12  H8  UNL     1       2.144  55.373 -23.040  1.00  0.00     0.187 HD
ENDROOT
BRANCH   1  13
HETATM   13  N2  UNL     1       1.053  52.986 -18.357  1.00  0.00    -0.295 N 
HETATM   14  C3  UNL     1       0.581  52.071 -17.456  1.00  0.00     0.322 C 
HETATM   15  N1  UNL     1       1.058  52.336 -16.190  1.00  0.00    -0.335 N 
HETATM   16  O1  UNL     1      -0.167  51.133 -17.698  1.00  0.00    -0.247 OA
HETATM   17  H5  UNL     1       1.973  52.764 -16.167  1.00  0.00     0.165 HD
HETATM   18  H6  UNL     1       1.531  53.801 -18.008  1.00  0.00     0.172 HD
BRANCH  15  19
HETATM   19  C2  UNL     1       0.762  51.444 -15.077  1.00  0.00     0.115 C 
HETATM   20  C1  UNL     1       0.025  52.168 -13.945  1.00  0.00     0.037 C 
BRANCH  19  21
HETATM   21  C16 UNL     1       2.051  50.801 -14.591  1.00  0.00    -0.036 A 
HETATM   22  C17 UNL     1       3.300  51.413 -14.790  1.00  0.00     0.009 A 
HETATM   23  C18 UNL     1       4.473  50.793 -14.357  1.00  0.00     0.001 A 
HETATM   24  C19 UNL     1       4.415  49.551 -13.727  1.00  0.00     0.000 A 
HETATM   25  C20 UNL     1       3.184  48.927 -13.530  1.00  0.00     0.001 A 
HETATM   26  C21 UNL     1       2.009  49.547 -13.961  1.00  0.00     0.009 A 
ENDBRANCH  19  21
ENDBRANCH  15  19
ENDBRANCH   1  13
BRANCH   7  27
HETATM   27  N5  UNL     1      -0.559  52.472 -24.715  1.00  0.00    -0.273 NA
HETATM   28  H9  UNL     1      -1.432  52.964 -24.896  1.00  0.00     0.129 HD
BRANCH  27  29
HETATM   29  C8  UNL     1       0.042  52.011 -25.968  1.00  0.00     0.061 C 
HETATM   30  C9  UNL     1      -0.029  53.147 -26.993  1.00  0.00     0.020 C 
HETATM   31  C10 UNL     1       0.523  52.721 -28.356  1.00  0.00     0.002 C 
HETATM   32  C11 UNL     1       1.608  51.647 -28.267  1.00  0.00     0.000 C 
HETATM   33  C12 UNL     1       2.395  51.748 -26.968  1.00  0.00     0.002 C 
HETATM   34  C13 UNL     1       1.498  51.564 -25.741  1.00  0.00     0.020 C 
ENDBRANCH  27  29
ENDBRANCH   7  27
TORSDOF 5
ENDMDL
MODEL 5
REMARK minimizedAffinity -8.9531765
REMARK  5 active torsions:
REMARK  status: ('A' for Active; 'I' for Inactive)
REMARK    1  A    between atoms: C2_2  and  N1_3 
REMARK    2  A    between atoms: C2_2  and  C16_25 
REMARK       I    between atoms: N1_3  and  C3_4 
REMARK       I    between atoms: C3_4  and  N2_6 
REMARK    3  A    between atoms: N2_6  and  C4_7 
REMARK    4  A    between atoms: C7_13  and  N5_14 
REMARK    5  A    between atoms: N5_14  and  C8_15 
ROOT
HETATM    1  C4  UNL     1       0.782  52.813 -19.133  1.00  0.00     0.111 A 
HETATM    2  C5  UNL     1      -0.012  51.825 -19.701  1.00  0.00     0.080 A 
HETATM    3  C6  UNL     1      -0.124  51.880 -21.091  1.00  0.00     0.066 A 
HETATM    4  N3  UNL     1      -0.782  51.086 -21.988  1.00  0.00    -0.298 N 
HETATM    5  N4  UNL     1      -0.627  51.458 -23.268  1.00  0.00    -0.289 N 
ATOM      6  H4  UNL     1      -1.004  51.008 -24.102  1.00  0.00     0.188 HD
HETATM    7  C7  UNL     1       0.134  52.550 -23.197  1.00  0.00     0.109 A 
HETATM    8  C14 UNL     1       0.505  52.852 -21.859  1.00  0.00     0.047 A 
HETATM    9  C15 UNL     1       1.301  53.791 -21.204  1.00  0.00     0.106 A 
HETATM   10  N6  UNL     1       1.422  53.764 -19.850  1.00  0.00    -0.351 N 
ATOM     11  H6  UNL     1       1.996  54.462 -19.375  1.00  0.00     0.166 HD
HETATM   12  H8  UNL     1      -1.342  50.265 -21.790  1.00  0.00     0.187 HD
ENDROOT
BRANCH   1  13
HETATM   13  N2  UNL     1       1.022  52.914 -17.762  1.00  0.00    -0.295 N 
HETATM   14  C3  UNL     1       0.569  52.107 -16.754  1.00  0.00     0.322 C 
HETATM   15  N1  UNL     1       1.083  52.505 -15.538  1.00  0.00    -0.335 N 
HETATM   16  O1  UNL     1      -0.191  51.156 -16.871  1.00  0.00    -0.247 OA
HETATM   17  H5  UNL     1       2.001  52.924 -15.587  1.00  0.00     0.165 HD
HETATM   18  H6  UNL     1       1.515  53.757 -17.518  1.00  0.00     0.172 HD
BRANCH  15  19
HETATM   19  C2  UNL     1       0.813  51.743 -14.327  1.00  0.00     0.115 C 
HETATM   20  C1  UNL     1       0.301  52.637 -13.192  1.00  0.00     0.037 C 
BRANCH  19  21
HETATM   21  C16 UNL     1       2.064  50.980 -13.923  1.00  0.00    -0.036 A 
HETATM   22  C17 UNL     1       3.303  51.214 -14.544  1.00  0.00     0.009 A 
HETATM   23  C18 UNL     1       4.433  50.484 -14.174  1.00  0.00     0.001 A 
HETATM   24  C19 UNL     1       4.341  49.506 -13.184  1.00  0.00     0.000 A 
HETATM   25  C20 UNL     1       3.117  49.256 -12.566  1.00  0.00     0.001 A 
HETATM   26  C21 UNL     1       1.985  49.986 -12.934  1.00  0.00     0.009 A 
ENDBRANCH  19  21
ENDBRANCH  15  19
ENDBRANCH   1  13
BRANCH   7  27
HETATM   27  N5  UNL     1       0.514  53.215 -24.315  1.00  0.00    -0.273 NA
HETATM   28  H9  UNL     1       1.420  53.660 -24.178  1.00  0.00     0.129 HD
BRANCH  27  29
HETATM   29  C8  UNL     1       0.456  52.557 -25.621  1.00  0.00     0.061 C 
HETATM   30  C9  UNL     1       0.161  53.611 -26.691  1.00  0.00     0.020 C 
HETATM   31  C10 UNL     1       0.020  52.990 -28.082  1.00  0.00     0.002 C 
HETATM   32  C11 UNL     1       0.847  51.717 -28.269  1.00  0.00     0.000 C 
HETATM   33  C12 UNL     1       2.104  51.732 -27.412  1.00  0.00     0.002 C 
HETATM   34  C13 UNL     1       1.778  51.824 -25.920  1.00  0.00     0.020 C 
ENDBRANCH  27  29
ENDBRANCH   7  27
TORSDOF 5
ENDMDL
MODEL 6
REMARK minimizedAffinity -8.90149975
REMARK  5 active torsions:
REMARK  status: ('A' for Active; 'I' for Inactive)
REMARK    1  A    between atoms: C2_2  and  N1_3 
REMARK    2  A    between atoms: C2_2  and  C16_25 
REMARK       I    between atoms: N1_3  and  C3_4 
REMARK       I    between atoms: C3_4  and  N2_6 
REMARK    3  A    between atoms: N2_6  and  C4_7 
REMARK    4  A    between atoms: C7_13  and  N5_14 
REMARK    5  A    between atoms: N5_14  and  C8_15 
ROOT
HETATM    1  C4  UNL     1       0.850  53.039 -19.469  1.00  0.00     0.111 A 
HETATM    2  C5  UNL     1       1.377  53.940 -20.385  1.00  0.00     0.080 A 
HETATM    3  C6  UNL     1       1.060  53.685 -21.719  1.00  0.00     0.066 A 
HETATM    4  N3  UNL     1       1.368  54.346 -22.875  1.00  0.00    -0.298 N 
HETATM    5  N4  UNL     1       0.847  53.791 -23.980  1.00  0.00    -0.289 N 
ATOM      6  H4  UNL     1       0.925  54.118 -24.943  1.00  0.00     0.188 HD
HETATM    7  C7  UNL     1       0.204  52.714 -23.529  1.00  0.00     0.109 A 
HETATM    8  C14 UNL     1       0.278  52.607 -22.114  1.00  0.00     0.047 A 
HETATM    9  C15 UNL     1      -0.228  51.766 -21.123  1.00  0.00     0.106 A 
HETATM   10  N6  UNL     1       0.072  51.988 -19.815  1.00  0.00    -0.351 N 
ATOM     11  H6  UNL     1      -0.291  51.362 -19.096  1.00  0.00     0.166 HD
HETATM   12  H8  UNL     1       1.917  55.193 -22.974  1.00  0.00     0.187 HD
ENDROOT
BRANCH   1  13
HETATM   13  N2  UNL     1       1.047  53.135 -18.091  1.00  0.00    -0.295 N 
HETATM   14  C3  UNL     1       0.973  52.148 -17.147  1.00  0.00     0.322 C 
HETATM   15  N1  UNL     1       1.299  52.637 -15.899  1.00  0.00    -0.335 N 
HETATM   16  O1  UNL     1       0.660  50.981 -17.339  1.00  0.00    -0.247 OA
HETATM   17  H5  UNL     1       1.968  53.393 -15.906  1.00  0.00     0.165 HD
HETATM   18  H6  UNL     1       1.161  54.087 -17.784  1.00  0.00     0.172 HD
BRANCH  15  19
HETATM   19  C2  UNL     1       1.376  51.750 -14.746  1.00  0.00     0.115 C 
HETATM   20  C1  UNL     1       1.550  50.285 -15.164  1.00  0.00     0.037 C 
BRANCH  19  21
HETATM   21  C16 UNL     1       0.144  51.945 -13.877  1.00  0.00    -0.036 A 
HETATM   22  C17 UNL     1       0.195  52.682 -12.681  1.00  0.00     0.009 A 
HETATM   23  C18 UNL     1      -0.942  52.828 -11.887  1.00  0.00     0.001 A 
HETATM   24  C19 UNL     1      -2.144  52.234 -12.270  1.00  0.00     0.000 A 
HETATM   25  C20 UNL     1      -2.208  51.492 -13.449  1.00  0.00     0.001 A 
HETATM   26  C21 UNL     1      -1.071  51.347 -14.247  1.00  0.00     0.009 A 
ENDBRANCH  19  21
ENDBRANCH  15  19
ENDBRANCH   1  13
BRANCH   7  27
HETATM   27  N5  UNL     1      -0.465  51.891 -24.373  1.00  0.00    -0.273 NA
HETATM   28  H9  UNL     1      -1.455  52.130 -24.397  1.00  0.00     0.129 HD
BRANCH  27  29
HETATM   29  C8  UNL     1       0.041  51.651 -25.725  1.00  0.00     0.061 C 
HETATM   30  C9  UNL     1      -0.257  52.880 -26.587  1.00  0.00     0.020 C 
HETATM   31  C10 UNL     1       0.184  52.681 -28.039  1.00  0.00     0.002 C 
HETATM   32  C11 UNL     1       1.378  51.737 -28.190  1.00  0.00     0.000 C 
HETATM   33  C12 UNL     1       2.286  51.778 -26.970  1.00  0.00     0.002 C 
HETATM   34  C13 UNL     1       1.552  51.352 -25.696  1.00  0.00     0.020 C 
ENDBRANCH  27  29
ENDBRANCH   7  27
TORSDOF 5
ENDMDL
MODEL 7
REMARK minimizedAffinity -8.85581875
REMARK  5 active torsions:
REMARK  status: ('A' for Active; 'I' for Inactive)
REMARK    1  A    between atoms: C2_2  and  N1_3 
REMARK    2  A    between atoms: C2_2  and  C16_25 
REMARK       I    between atoms: N1_3  and  C3_4 
REMARK       I    between atoms: C3_4  and  N2_6 
REMARK    3  A    between atoms: N2_6  and  C4_7 
REMARK    4  A    between atoms: C7_13  and  N5_14 
REMARK    5  A    between atoms: N5_14  and  C8_15 
ROOT
HETATM    1  C4  UNL     1      -4.252  48.803 -27.458  1.00  0.00     0.111 A 
HETATM    2  C5  UNL     1      -3.886  48.549 -26.143  1.00  0.00     0.080 A 
HETATM    3  C6  UNL     1      -3.039  49.499 -25.570  1.00  0.00     0.066 A 
HETATM    4  N3  UNL     1      -2.496  49.603 -24.320  1.00  0.00    -0.298 N 
HETATM    5  N4  UNL     1      -1.736  50.695 -24.141  1.00  0.00    -0.289 N 
ATOM      6  H4  UNL     1      -1.251  50.990 -23.294  1.00  0.00     0.188 HD
HETATM    7  C7  UNL     1      -1.762  51.305 -25.326  1.00  0.00     0.109 A 
HETATM    8  C14 UNL     1      -2.585  50.617 -26.258  1.00  0.00     0.047 A 
HETATM    9  C15 UNL     1      -3.024  50.801 -27.569  1.00  0.00     0.106 A 
HETATM   10  N6  UNL     1      -3.844  49.889 -28.154  1.00  0.00    -0.351 N 
ATOM     11  H6  UNL     1      -4.150  50.022 -29.118  1.00  0.00     0.166 HD
HETATM   12  H8  UNL     1      -2.619  48.969 -23.539  1.00  0.00     0.187 HD
ENDROOT
BRANCH   1  13
HETATM   13  N2  UNL     1      -5.101  47.976 -28.194  1.00  0.00    -0.295 N 
HETATM   14  C3  UNL     1      -5.342  47.982 -29.542  1.00  0.00     0.322 C 
HETATM   15  N1  UNL     1      -6.200  46.961 -29.891  1.00  0.00    -0.335 N 
HETATM   16  O1  UNL     1      -4.885  48.771 -30.357  1.00  0.00    -0.247 OA
HETATM   17  H5  UNL     1      -6.131  46.136 -29.312  1.00  0.00     0.165 HD
HETATM   18  H6  UNL     1      -5.660  47.377 -27.609  1.00  0.00     0.172 HD
BRANCH  15  19
HETATM   19  C2  UNL     1      -6.536  46.712 -31.287  1.00  0.00     0.115 C 
HETATM   20  C1  UNL     1      -8.033  46.898 -31.556  1.00  0.00     0.037 C 
BRANCH  19  21
HETATM   21  C16 UNL     1      -6.061  45.322 -31.678  1.00  0.00    -0.036 A 
HETATM   22  C17 UNL     1      -6.796  44.171 -31.345  1.00  0.00     0.009 A 
HETATM   23  C18 UNL     1      -6.328  42.903 -31.693  1.00  0.00     0.001 A 
HETATM   24  C19 UNL     1      -5.118  42.766 -32.371  1.00  0.00     0.000 A 
HETATM   25  C20 UNL     1      -4.373  43.898 -32.701  1.00  0.00     0.001 A 
HETATM   26  C21 UNL     1      -4.841  45.168 -32.355  1.00  0.00     0.009 A 
ENDBRANCH  19  21
ENDBRANCH  15  19
ENDBRANCH   1  13
BRANCH   7  27
HETATM   27  N5  UNL     1      -1.100  52.469 -25.531  1.00  0.00    -0.273 NA
HETATM   28  H9  UNL     1      -1.081  53.026 -24.678  1.00  0.00     0.129 HD
BRANCH  27  29
HETATM   29  C8  UNL     1       0.214  52.468 -26.175  1.00  0.00     0.061 C 
HETATM   30  C9  UNL     1       0.976  51.215 -25.735  1.00  0.00     0.020 C 
HETATM   31  C10 UNL     1       2.391  51.173 -26.316  1.00  0.00     0.002 C 
HETATM   32  C11 UNL     1       2.518  51.882 -27.665  1.00  0.00     0.000 C 
HETATM   33  C12 UNL     1       1.218  51.830 -28.453  1.00  0.00     0.002 C 
HETATM   34  C13 UNL     1       0.069  52.514 -27.708  1.00  0.00     0.020 C 
ENDBRANCH  27  29
ENDBRANCH   7  27
TORSDOF 5
ENDMDL
MODEL 8
REMARK minimizedAffinity -8.7277174
REMARK  5 active torsions:
REMARK  status: ('A' for Active; 'I' for Inactive)
REMARK    1  A    between atoms: C2_2  and  N1_3 
REMARK    2  A    between atoms: C2_2  and  C16_25 
REMARK       I    between atoms: N1_3  and  C3_4 
REMARK       I    between atoms: C3_4  and  N2_6 
REMARK    3  A    between atoms: N2_6  and  C4_7 
REMARK    4  A    between atoms: C7_13  and  N5_14 
REMARK    5  A    between atoms: N5_14  and  C8_15 
ROOT
HETATM    1  C4  UNL     1      -3.288  50.086 -27.302  1.00  0.00     0.111 A 
HETATM    2  C5  UNL     1      -2.073  50.738 -27.464  1.00  0.00     0.080 A 
HETATM    3  C6  UNL     1      -1.380  51.004 -26.283  1.00  0.00     0.066 A 
HETATM    4  N3  UNL     1      -0.170  51.593 -26.045  1.00  0.00    -0.298 N 
HETATM    5  N4  UNL     1       0.171  51.645 -24.748  1.00  0.00    -0.289 N 
ATOM      6  H4  UNL     1       1.027  52.017 -24.339  1.00  0.00     0.188 HD
HETATM    7  C7  UNL     1      -0.869  51.097 -24.119  1.00  0.00     0.109 A 
HETATM    8  C14 UNL     1      -1.864  50.650 -25.030  1.00  0.00     0.047 A 
HETATM    9  C15 UNL     1      -3.084  49.977 -24.965  1.00  0.00     0.106 A 
HETATM   10  N6  UNL     1      -3.784  49.712 -26.100  1.00  0.00    -0.351 N 
ATOM     11  H6  UNL     1      -4.682  49.231 -26.046  1.00  0.00     0.166 HD
HETATM   12  H8  UNL     1       0.479  51.967 -26.728  1.00  0.00     0.187 HD
ENDROOT
BRANCH   1  13
HETATM   13  N2  UNL     1      -4.117  49.726 -28.365  1.00  0.00    -0.295 N 
HETATM   14  C3  UNL     1      -4.929  48.630 -28.482  1.00  0.00     0.322 C 
HETATM   15  N1  UNL     1      -5.638  48.669 -29.664  1.00  0.00    -0.335 N 
HETATM   16  O1  UNL     1      -5.037  47.718 -27.675  1.00  0.00    -0.247 OA
HETATM   17  H5  UNL     1      -5.856  49.599 -29.994  1.00  0.00     0.165 HD
HETATM   18  H6  UNL     1      -3.998  50.324 -29.167  1.00  0.00     0.172 HD
BRANCH  15  19
HETATM   19  C2  UNL     1      -6.635  47.652 -29.971  1.00  0.00     0.115 C 
HETATM   20  C1  UNL     1      -7.299  47.104 -28.703  1.00  0.00     0.037 C 
BRANCH  19  21
HETATM   21  C16 UNL     1      -5.991  46.547 -30.792  1.00  0.00    -0.036 A 
HETATM   22  C17 UNL     1      -4.860  46.786 -31.591  1.00  0.00     0.009 A 
HETATM   23  C18 UNL     1      -4.301  45.762 -32.357  1.00  0.00     0.001 A 
HETATM   24  C19 UNL     1      -4.868  44.488 -32.342  1.00  0.00     0.000 A 
HETATM   25  C20 UNL     1      -5.996  44.238 -31.562  1.00  0.00     0.001 A 
HETATM   26  C21 UNL     1      -6.556  45.261 -30.793  1.00  0.00     0.009 A 
ENDBRANCH  19  21
ENDBRANCH  15  19
ENDBRANCH   1  13
BRANCH   7  27
HETATM   27  N5  UNL     1      -0.885  50.966 -22.771  1.00  0.00    -0.273 NA
HETATM   28  H9  UNL     1      -0.340  50.155 -22.482  1.00  0.00     0.129 HD
BRANCH  27  29
HETATM   29  C8  UNL     1      -0.589  52.116 -21.914  1.00  0.00     0.061 C 
HETATM   30  C9  UNL     1      -0.421  51.625 -20.473  1.00  0.00     0.020 C 
HETATM   31  C10 UNL     1      -0.172  52.781 -19.502  1.00  0.00     0.002 C 
HETATM   32  C11 UNL     1       0.540  53.973 -20.141  1.00  0.00     0.000 C 
HETATM   33  C12 UNL     1       1.454  53.540 -21.278  1.00  0.00     0.002 C 
HETATM   34  C13 UNL     1       0.680  52.843 -22.399  1.00  0.00     0.020 C 
ENDBRANCH  27  29
ENDBRANCH   7  27
TORSDOF 5
ENDMDL
MODEL 9
REMARK minimizedAffinity -8.61196709
REMARK  5 active torsions:
REMARK  status: ('A' for Active; 'I' for Inactive)
REMARK    1  A    between atoms: C2_2  and  N1_3 
REMARK    2  A    between atoms: C2_2  and  C16_25 
REMARK       I    between atoms: N1_3  and  C3_4 
REMARK       I    between atoms: C3_4  and  N2_6 
REMARK    3  A    between atoms: N2_6  and  C4_7 
REMARK    4  A    between atoms: C7_13  and  N5_14 
REMARK    5  A    between atoms: N5_14  and  C8_15 
ROOT
HETATM    1  C4  UNL     1      -3.228  48.723 -24.564  1.00  0.00     0.111 A 
HETATM    2  C5  UNL     1      -4.586  48.443 -24.633  1.00  0.00     0.080 A 
HETATM    3  C6  UNL     1      -5.096  48.292 -25.923  1.00  0.00     0.066 A 
HETATM    4  N3  UNL     1      -6.348  47.996 -26.383  1.00  0.00    -0.298 N 
HETATM    5  N4  UNL     1      -6.437  47.911 -27.719  1.00  0.00    -0.289 N 
ATOM      6  H4  UNL     1      -7.258  47.684 -28.280  1.00  0.00     0.188 HD
HETATM    7  C7  UNL     1      -5.205  48.192 -28.144  1.00  0.00     0.109 A 
HETATM    8  C14 UNL     1      -4.310  48.414 -27.063  1.00  0.00     0.047 A 
HETATM    9  C15 UNL     1      -2.950  48.673 -26.895  1.00  0.00     0.106 A 
HETATM   10  N6  UNL     1      -2.428  48.833 -25.650  1.00  0.00    -0.351 N 
ATOM     11  H6  UNL     1      -1.435  49.035 -25.534  1.00  0.00     0.166 HD
HETATM   12  H8  UNL     1      -7.183  47.824 -25.833  1.00  0.00     0.187 HD
ENDROOT
BRANCH   1  13
HETATM   13  N2  UNL     1      -2.537  48.896 -23.364  1.00  0.00    -0.295 N 
HETATM   14  C3  UNL     1      -2.620  49.931 -22.473  1.00  0.00     0.322 C 
HETATM   15  N1  UNL     1      -1.820  49.699 -21.374  1.00  0.00    -0.335 N 
HETATM   16  O1  UNL     1      -3.295  50.944 -22.597  1.00  0.00    -0.247 OA
HETATM   17  H5  UNL     1      -1.711  48.724 -21.132  1.00  0.00     0.165 HD
HETATM   18  H6  UNL     1      -1.828  48.196 -23.222  1.00  0.00     0.172 HD
BRANCH  15  19
HETATM   19  C2  UNL     1      -1.811  50.622 -20.247  1.00  0.00     0.115 C 
HETATM   20  C1  UNL     1      -3.196  51.228 -19.995  1.00  0.00     0.037 C 
BRANCH  19  21
HETATM   21  C16 UNL     1      -0.761  51.695 -20.484  1.00  0.00    -0.036 A 
HETATM   22  C17 UNL     1      -0.002  51.736 -21.666  1.00  0.00     0.009 A 
HETATM   23  C18 UNL     1       0.974  52.715 -21.851  1.00  0.00     0.001 A 
HETATM   24  C19 UNL     1       1.212  53.663 -20.856  1.00  0.00     0.000 A 
HETATM   25  C20 UNL     1       0.474  53.630 -19.674  1.00  0.00     0.001 A 
HETATM   26  C21 UNL     1      -0.505  52.651 -19.488  1.00  0.00     0.009 A 
ENDBRANCH  19  21
ENDBRANCH  15  19
ENDBRANCH   1  13
BRANCH   7  27
HETATM   27  N5  UNL     1      -4.901  48.196 -29.464  1.00  0.00    -0.273 NA
HETATM   28  H9  UNL     1      -3.921  47.957 -29.607  1.00  0.00     0.129 HD
BRANCH  27  29
HETATM   29  C8  UNL     1      -5.750  47.483 -30.420  1.00  0.00     0.061 C 
HETATM   30  C9  UNL     1      -6.607  48.503 -31.173  1.00  0.00     0.020 C 
HETATM   31  C10 UNL     1      -7.573  47.828 -32.149  1.00  0.00     0.002 C 
HETATM   32  C11 UNL     1      -7.055  46.499 -32.699  1.00  0.00     0.000 C 
HETATM   33  C12 UNL     1      -5.535  46.473 -32.773  1.00  0.00     0.002 C 
HETATM   34  C13 UNL     1      -4.893  46.655 -31.396  1.00  0.00     0.020 C 
ENDBRANCH  27  29
ENDBRANCH   7  27
TORSDOF 5
ENDMDL
