MODEL 1
REMARK minimizedAffinity -8.66557503
REMARK CNNscore 0.280264407
REMARK CNNaffinity 6.89345789
REMARK  6 active torsions:
REMARK  status: ('A' for Active; 'I' for Inactive)
REMARK       I    between atoms: C1_2  and  N1_3 
REMARK    1  A    between atoms: C1_2  and  C13_19 
REMARK    2  A    between atoms: N1_3  and  C2_4 
REMARK    3  A    between atoms: C2_4  and  C3_5 
REMARK    4  A    between atoms: C2_4  and  C9_13 
REMARK    5  A    between atoms: C18_26  and  N4_27 
REMARK    6  A    between atoms: N4_27  and  C19_28 
ROOT
HETATM    1  C13 UNL     1       0.488  51.695 -17.805  1.00  0.00     0.034 A 
HETATM    2  C14 UNL     1      -0.304  50.546 -17.907  1.00  0.00     0.018 A 
HETATM    3  C15 UNL     1      -0.781  50.141 -19.152  1.00  0.00     0.016 A 
HETATM    4  C16 UNL     1      -0.466  50.897 -20.296  1.00  0.00     0.006 A 
HETATM    5  C17 UNL     1      -0.894  50.583 -21.576  1.00  0.00     0.104 A 
HETATM    6  N3  UNL     1      -0.597  51.315 -22.665  1.00  0.00    -0.342 N 
ATOM      7  H3  UNL     1      -0.939  51.059 -23.590  1.00  0.00     0.167 HD
HETATM    8  C18 UNL     1       0.167  52.396 -22.475  1.00  0.00     0.157 A 
HETATM    9  N5  UNL     1       0.622  52.793 -21.278  1.00  0.00    -0.332 N 
ATOM     10  H5  UNL     1       1.188  53.636 -21.186  1.00  0.00     0.168 HD
HETATM   11  C24 UNL     1       0.314  52.052 -20.209  1.00  0.00     0.047 A 
HETATM   12  C25 UNL     1       0.777  52.440 -18.959  1.00  0.00     0.047 A 
ENDROOT
BRANCH   1  13
HETATM   13  C1  UNL     1       0.969  52.107 -16.458  1.00  0.00     0.252 C 
HETATM   14  O1  UNL     1       1.877  52.925 -16.353  1.00  0.00    -0.268 OA
HETATM   15  N1  UNL     1       0.344  51.533 -15.374  1.00  0.00    -0.345 N 
HETATM   16  H1  UNL     1      -0.515  51.012 -15.499  1.00  0.00     0.163 HD
BRANCH  15  17
HETATM   17  C2  UNL     1       0.659  51.925 -13.998  1.00  0.00     0.159 C 
BRANCH  17  18
HETATM   18  C3  UNL     1      -0.661  52.117 -13.259  1.00  0.00    -0.030 A 
HETATM   19  C4  UNL     1      -1.823  51.497 -13.753  1.00  0.00     0.012 A 
HETATM   20  C5  UNL     1      -3.042  51.627 -13.085  1.00  0.00     0.044 A 
HETATM   21  C6  UNL     1      -3.109  52.369 -11.910  1.00  0.00     0.138 A 
HETATM   22  F1  UNL     1      -4.290  52.478 -11.283  1.00  0.00    -0.204 F 
HETATM   23  C7  UNL     1      -1.970  52.979 -11.397  1.00  0.00     0.073 A 
HETATM   24 CL1  UNL     1      -2.044  53.888  -9.936  1.00  0.00    -0.081 Cl
HETATM   25  C8  UNL     1      -0.748  52.851 -12.064  1.00  0.00     0.036 A 
ENDBRANCH  17  18
BRANCH  17  26
HETATM   26  C9  UNL     1       1.643  50.909 -13.353  1.00  0.00     0.155 C 
HETATM   27  F2  UNL     1       2.846  51.518 -13.147  1.00  0.00    -0.238 F 
HETATM   28  C10 UNL     1       1.861  49.627 -14.149  1.00  0.00     0.078 C 
HETATM   29  C11 UNL     1       0.746  48.725 -13.661  1.00  0.00     0.273 C 
HETATM   30  N2  UNL     1       0.706  48.970 -12.221  1.00  0.00     0.086 N 
HETATM   31  C12 UNL     1       1.098  50.377 -12.013  1.00  0.00     0.315 C 
HETATM   32  H10 UNL     1      -0.224  48.786 -11.841  1.00  0.00     0.316 HD
ENDBRANCH  17  26
ENDBRANCH  15  17
ENDBRANCH   1  13
BRANCH   8  33
HETATM   33  N4  UNL     1       0.540  53.200 -23.540  1.00  0.00    -0.259 NA
HETATM   34  H16 UNL     1       0.196  54.127 -23.312  1.00  0.00     0.131 HD
BRANCH  33  35
HETATM   35  C19 UNL     1       0.221  52.709 -24.877  1.00  0.00     0.067 C 
HETATM   36  C20 UNL     1       1.381  51.878 -25.435  1.00  0.00     0.046 C 
HETATM   37  C21 UNL     1       1.112  51.514 -26.889  1.00  0.00     0.169 C 
HETATM   38  O2  UNL     1       0.898  52.687 -27.674  1.00  0.00    -0.391 OA
HETATM   39  C22 UNL     1      -0.233  53.435 -27.232  1.00  0.00     0.169 C 
HETATM   40  C23 UNL     1      -0.040  53.905 -25.799  1.00  0.00     0.046 C 
ENDBRANCH  33  35
ENDBRANCH   8  33
TORSDOF 6
ENDMDL
MODEL 2
REMARK minimizedAffinity -9.11369896
REMARK CNNscore 0.242025629
REMARK CNNaffinity 6.99487257
REMARK  6 active torsions:
REMARK  status: ('A' for Active; 'I' for Inactive)
REMARK       I    between atoms: C1_2  and  N1_3 
REMARK    1  A    between atoms: C1_2  and  C13_19 
REMARK    2  A    between atoms: N1_3  and  C2_4 
REMARK    3  A    between atoms: C2_4  and  C3_5 
REMARK    4  A    between atoms: C2_4  and  C9_13 
REMARK    5  A    between atoms: C18_26  and  N4_27 
REMARK    6  A    between atoms: N4_27  and  C19_28 
ROOT
HETATM    1  C13 UNL     1      -0.618  51.532 -20.844  1.00  0.00     0.034 A 
HETATM    2  C14 UNL     1       0.082  52.737 -20.959  1.00  0.00     0.018 A 
HETATM    3  C15 UNL     1       0.774  53.244 -19.861  1.00  0.00     0.016 A 
HETATM    4  C16 UNL     1       0.756  52.540 -18.642  1.00  0.00     0.006 A 
HETATM    5  C17 UNL     1       1.406  52.961 -17.494  1.00  0.00     0.104 A 
HETATM    6  N3  UNL     1       1.377  52.287 -16.329  1.00  0.00    -0.342 N 
ATOM      7  H3  UNL     1       1.860  52.633 -15.500  1.00  0.00     0.167 HD
HETATM    8  C18 UNL     1       0.685  51.143 -16.311  1.00  0.00     0.157 A 
HETATM    9  N5  UNL     1       0.013  50.655 -17.363  1.00  0.00    -0.332 N 
ATOM     10  H5  UNL     1      -0.515  49.786 -17.290  1.00  0.00     0.168 HD
HETATM   11  C24 UNL     1       0.053  51.341 -18.510  1.00  0.00     0.047 A 
HETATM   12  C25 UNL     1      -0.633  50.854 -19.614  1.00  0.00     0.047 A 
ENDROOT
BRANCH   1  13
HETATM   13  C1  UNL     1      -1.359  51.026 -22.033  1.00  0.00     0.252 C 
HETATM   14  O1  UNL     1      -1.107  49.914 -22.486  1.00  0.00    -0.268 OA
HETATM   15  N1  UNL     1      -2.316  51.859 -22.568  1.00  0.00    -0.345 N 
HETATM   16  H1  UNL     1      -2.619  52.679 -22.057  1.00  0.00     0.163 HD
BRANCH  15  17
HETATM   17  C2  UNL     1      -3.177  51.441 -23.676  1.00  0.00     0.159 C 
BRANCH  17  18
HETATM   18  C3  UNL     1      -2.348  51.502 -24.954  1.00  0.00    -0.030 A 
HETATM   19  C4  UNL     1      -2.960  51.908 -26.153  1.00  0.00     0.012 A 
HETATM   20  C5  UNL     1      -2.223  52.003 -27.336  1.00  0.00     0.044 A 
HETATM   21  C6  UNL     1      -0.865  51.704 -27.328  1.00  0.00     0.138 A 
HETATM   22  F1  UNL     1      -0.176  51.806 -28.475  1.00  0.00    -0.204 F 
HETATM   23  C7  UNL     1      -0.236  51.313 -26.151  1.00  0.00     0.073 A 
HETATM   24 CL1  UNL     1       1.448  50.954 -26.132  1.00  0.00    -0.081 Cl
HETATM   25  C8  UNL     1      -0.971  51.217 -24.966  1.00  0.00     0.036 A 
ENDBRANCH  17  18
BRANCH  17  26
HETATM   26  C9  UNL     1      -3.830  50.064 -23.369  1.00  0.00     0.155 C 
HETATM   27  F2  UNL     1      -3.765  49.825 -22.028  1.00  0.00    -0.238 F 
HETATM   28  C10 UNL     1      -3.224  48.882 -24.117  1.00  0.00     0.078 C 
HETATM   29  C11 UNL     1      -4.001  48.862 -25.418  1.00  0.00     0.273 C 
HETATM   30  N2  UNL     1      -5.375  49.141 -25.006  1.00  0.00     0.086 N 
HETATM   31  C12 UNL     1      -5.301  50.027 -23.829  1.00  0.00     0.315 C 
HETATM   32  H10 UNL     1      -5.907  49.575 -25.763  1.00  0.00     0.316 HD
ENDBRANCH  17  26
ENDBRANCH  15  17
ENDBRANCH   1  13
BRANCH   8  33
HETATM   33  N4  UNL     1       0.615  50.372 -15.161  1.00  0.00    -0.259 NA
HETATM   34  H16 UNL     1       0.215  50.979 -14.453  1.00  0.00     0.131 HD
BRANCH  33  35
HETATM   35  C19 UNL     1       1.825  49.651 -14.779  1.00  0.00     0.067 C 
HETATM   36  C20 UNL     1       1.490  48.208 -14.387  1.00  0.00     0.046 C 
HETATM   37  C21 UNL     1       2.726  47.517 -13.829  1.00  0.00     0.169 C 
HETATM   38  O2  UNL     1       3.253  48.241 -12.717  1.00  0.00    -0.391 OA
HETATM   39  C22 UNL     1       3.659  49.561 -13.073  1.00  0.00     0.169 C 
HETATM   40  C23 UNL     1       2.476  50.366 -13.589  1.00  0.00     0.046 C 
ENDBRANCH  33  35
ENDBRANCH   8  33
TORSDOF 6
ENDMDL
MODEL 3
REMARK minimizedAffinity -9.27425575
REMARK CNNscore 0.240633115
REMARK CNNaffinity 6.84790039
REMARK  6 active torsions:
REMARK  status: ('A' for Active; 'I' for Inactive)
REMARK       I    between atoms: C1_2  and  N1_3 
REMARK    1  A    between atoms: C1_2  and  C13_19 
REMARK    2  A    between atoms: N1_3  and  C2_4 
REMARK    3  A    between atoms: C2_4  and  C3_5 
REMARK    4  A    between atoms: C2_4  and  C9_13 
REMARK    5  A    between atoms: C18_26  and  N4_27 
REMARK    6  A    between atoms: N4_27  and  C19_28 
ROOT
HETATM    1  C13 UNL     1      -1.101  51.777 -20.750  1.00  0.00     0.034 A 
HETATM    2  C14 UNL     1      -0.171  52.815 -20.872  1.00  0.00     0.018 A 
HETATM    3  C15 UNL     1       0.716  53.076 -19.831  1.00  0.00     0.016 A 
HETATM    4  C16 UNL     1       0.663  52.297 -18.660  1.00  0.00     0.006 A 
HETATM    5  C17 UNL     1       1.496  52.479 -17.568  1.00  0.00     0.104 A 
HETATM    6  N3  UNL     1       1.434  51.735 -16.448  1.00  0.00    -0.342 N 
ATOM      7  H3  UNL     1       2.056  51.905 -15.659  1.00  0.00     0.167 HD
HETATM    8  C18 UNL     1       0.515  50.763 -16.419  1.00  0.00     0.157 A 
HETATM    9  N5  UNL     1      -0.344  50.513 -17.417  1.00  0.00    -0.332 N 
ATOM     10  H5  UNL     1      -1.038  49.770 -17.336  1.00  0.00     0.168 HD
HETATM   11  C24 UNL     1      -0.267  51.265 -18.519  1.00  0.00     0.047 A 
HETATM   12  C25 UNL     1      -1.144  51.022 -19.568  1.00  0.00     0.047 A 
ENDROOT
BRANCH   1  13
HETATM   13  C1  UNL     1      -2.044  51.534 -21.877  1.00  0.00     0.252 C 
HETATM   14  O1  UNL     1      -3.236  51.797 -21.750  1.00  0.00    -0.268 OA
HETATM   15  N1  UNL     1      -1.506  51.018 -23.035  1.00  0.00    -0.345 N 
HETATM   16  H1  UNL     1      -0.502  50.992 -23.161  1.00  0.00     0.163 HD
BRANCH  15  17
HETATM   17  C2  UNL     1      -2.308  50.824 -24.244  1.00  0.00     0.159 C 
BRANCH  17  18
HETATM   18  C3  UNL     1      -1.470  51.281 -25.433  1.00  0.00    -0.030 A 
HETATM   19  C4  UNL     1      -2.091  51.968 -26.491  1.00  0.00     0.012 A 
HETATM   20  C5  UNL     1      -1.348  52.427 -27.581  1.00  0.00     0.044 A 
HETATM   21  C6  UNL     1       0.026  52.213 -27.617  1.00  0.00     0.138 A 
HETATM   22  F1  UNL     1       0.720  52.666 -28.673  1.00  0.00    -0.204 F 
HETATM   23  C7  UNL     1       0.663  51.548 -26.576  1.00  0.00     0.073 A 
HETATM   24 CL1  UNL     1       2.366  51.292 -26.610  1.00  0.00    -0.081 Cl
HETATM   25  C8  UNL     1      -0.078  51.087 -25.484  1.00  0.00     0.036 A 
ENDBRANCH  17  18
BRANCH  17  26
HETATM   26  C9  UNL     1      -2.834  49.363 -24.322  1.00  0.00     0.155 C 
HETATM   27  F2  UNL     1      -2.172  48.599 -23.406  1.00  0.00    -0.238 F 
HETATM   28  C10 UNL     1      -2.721  48.709 -25.694  1.00  0.00     0.078 C 
HETATM   29  C11 UNL     1      -4.010  49.116 -26.377  1.00  0.00     0.273 C 
HETATM   30  N2  UNL     1      -5.017  48.985 -25.325  1.00  0.00     0.086 N 
HETATM   31  C12 UNL     1      -4.350  49.299 -24.049  1.00  0.00     0.315 C 
HETATM   32  H10 UNL     1      -5.809  49.608 -25.492  1.00  0.00     0.316 HD
ENDBRANCH  17  26
ENDBRANCH  15  17
ENDBRANCH   1  13
BRANCH   8  33
HETATM   33  N4  UNL     1       0.390  49.935 -15.315  1.00  0.00    -0.259 NA
HETATM   34  H16 UNL     1       0.281  48.998 -15.691  1.00  0.00     0.131 HD
BRANCH  33  35
HETATM   35  C19 UNL     1      -0.579  50.336 -14.301  1.00  0.00     0.067 C 
HETATM   36  C20 UNL     1      -1.995  50.347 -14.884  1.00  0.00     0.046 C 
HETATM   37  C21 UNL     1      -2.974  50.927 -13.872  1.00  0.00     0.169 C 
HETATM   38  O2  UNL     1      -2.574  52.239 -13.475  1.00  0.00    -0.391 OA
HETATM   39  C22 UNL     1      -1.294  52.247 -12.845  1.00  0.00     0.169 C 
HETATM   40  C23 UNL     1      -0.223  51.740 -13.798  1.00  0.00     0.046 C 
ENDBRANCH  33  35
ENDBRANCH   8  33
TORSDOF 6
ENDMDL
MODEL 4
REMARK minimizedAffinity -8.44575596
REMARK CNNscore 0.170711115
REMARK CNNaffinity 6.20784378
REMARK  6 active torsions:
REMARK  status: ('A' for Active; 'I' for Inactive)
REMARK       I    between atoms: C1_2  and  N1_3 
REMARK    1  A    between atoms: C1_2  and  C13_19 
REMARK    2  A    between atoms: N1_3  and  C2_4 
REMARK    3  A    between atoms: C2_4  and  C3_5 
REMARK    4  A    between atoms: C2_4  and  C9_13 
REMARK    5  A    between atoms: C18_26  and  N4_27 
REMARK    6  A    between atoms: N4_27  and  C19_28 
ROOT
HETATM    1  C13 UNL     1      -4.156  48.891 -27.560  1.00  0.00     0.034 A 
HETATM    2  C14 UNL     1      -3.272  49.947 -27.806  1.00  0.00     0.018 A 
HETATM    3  C15 UNL     1      -2.475  50.439 -26.775  1.00  0.00     0.016 A 
HETATM    4  C16 UNL     1      -2.574  49.873 -25.490  1.00  0.00     0.006 A 
HETATM    5  C17 UNL     1      -1.831  50.293 -24.399  1.00  0.00     0.104 A 
HETATM    6  N3  UNL     1      -1.937  49.753 -23.170  1.00  0.00    -0.342 N 
ATOM      7  H3  UNL     1      -1.381  50.096 -22.387  1.00  0.00     0.167 HD
HETATM    8  C18 UNL     1      -2.805  48.746 -23.026  1.00  0.00     0.157 A 
HETATM    9  N5  UNL     1      -3.577  48.274 -24.014  1.00  0.00    -0.332 N 
ATOM     10  H5  UNL     1      -4.237  47.515 -23.846  1.00  0.00     0.168 HD
HETATM   11  C24 UNL     1      -3.459  48.826 -25.226  1.00  0.00     0.047 A 
HETATM   12  C25 UNL     1      -4.245  48.351 -26.267  1.00  0.00     0.047 A 
ENDROOT
BRANCH   1  13
HETATM   13  C1  UNL     1      -5.002  48.398 -28.682  1.00  0.00     0.252 C 
HETATM   14  O1  UNL     1      -4.478  47.926 -29.686  1.00  0.00    -0.268 OA
HETATM   15  N1  UNL     1      -6.365  48.499 -28.521  1.00  0.00    -0.345 N 
HETATM   16  H1  UNL     1      -6.755  48.718 -27.612  1.00  0.00     0.163 HD
BRANCH  15  17
HETATM   17  C2  UNL     1      -7.305  47.963 -29.507  1.00  0.00     0.159 C 
BRANCH  17  18
HETATM   18  C3  UNL     1      -6.496  47.196 -30.548  1.00  0.00    -0.030 A 
HETATM   19  C4  UNL     1      -6.273  45.819 -30.368  1.00  0.00     0.012 A 
HETATM   20  C5  UNL     1      -5.562  45.080 -31.315  1.00  0.00     0.044 A 
HETATM   21  C6  UNL     1      -5.077  45.708 -32.458  1.00  0.00     0.138 A 
HETATM   22  F1  UNL     1      -4.400  44.978 -33.356  1.00  0.00    -0.204 F 
HETATM   23  C7  UNL     1      -5.298  47.066 -32.663  1.00  0.00     0.073 A 
HETATM   24 CL1  UNL     1      -4.711  47.846 -34.080  1.00  0.00    -0.081 Cl
HETATM   25  C8  UNL     1      -6.009  47.808 -31.716  1.00  0.00     0.036 A 
ENDBRANCH  17  18
BRANCH  17  26
HETATM   26  C9  UNL     1      -8.429  47.151 -28.805  1.00  0.00     0.155 C 
HETATM   27  F2  UNL     1      -7.866  46.147 -28.072  1.00  0.00    -0.238 F 
HETATM   28  C10 UNL     1      -9.479  46.560 -29.739  1.00  0.00     0.078 C 
HETATM   29  C11 UNL     1     -10.491  47.679 -29.872  1.00  0.00     0.273 C 
HETATM   30  N2  UNL     1     -10.598  48.213 -28.515  1.00  0.00     0.086 N 
HETATM   31  C12 UNL     1      -9.276  48.050 -27.882  1.00  0.00     0.315 C 
HETATM   32  H10 UNL     1     -10.885  49.193 -28.525  1.00  0.00     0.316 HD
ENDBRANCH  17  26
ENDBRANCH  15  17
ENDBRANCH   1  13
BRANCH   8  33
HETATM   33  N4  UNL     1      -2.967  48.116 -21.803  1.00  0.00    -0.259 NA
HETATM   34  H16 UNL     1      -3.913  47.748 -21.812  1.00  0.00     0.131 HD
BRANCH  33  35
HETATM   35  C19 UNL     1      -2.588  48.877 -20.617  1.00  0.00     0.067 C 
HETATM   36  C20 UNL     1      -1.482  48.152 -19.843  1.00  0.00     0.046 C 
HETATM   37  C21 UNL     1      -1.213  48.862 -18.524  1.00  0.00     0.169 C 
HETATM   38  O2  UNL     1      -2.406  48.956 -17.746  1.00  0.00    -0.391 OA
HETATM   39  C22 UNL     1      -3.424  49.706 -18.404  1.00  0.00     0.169 C 
HETATM   40  C23 UNL     1      -3.817  49.044 -19.716  1.00  0.00     0.046 C 
ENDBRANCH  33  35
ENDBRANCH   8  33
TORSDOF 6
ENDMDL
MODEL 5
REMARK minimizedAffinity -8.57930851
REMARK CNNscore 0.132930279
REMARK CNNaffinity 5.74152327
REMARK  6 active torsions:
REMARK  status: ('A' for Active; 'I' for Inactive)
REMARK       I    between atoms: C1_2  and  N1_3 
REMARK    1  A    between atoms: C1_2  and  C13_19 
REMARK    2  A    between atoms: N1_3  and  C2_4 
REMARK    3  A    between atoms: C2_4  and  C3_5 
REMARK    4  A    between atoms: C2_4  and  C9_13 
REMARK    5  A    between atoms: C18_26  and  N4_27 
REMARK    6  A    between atoms: N4_27  and  C19_28 
ROOT
HETATM    1  C13 UNL     1      -3.468  48.751 -24.202  1.00  0.00     0.034 A 
HETATM    2  C14 UNL     1      -2.527  48.953 -25.217  1.00  0.00     0.018 A 
HETATM    3  C15 UNL     1      -2.898  48.790 -26.550  1.00  0.00     0.016 A 
HETATM    4  C16 UNL     1      -4.218  48.415 -26.863  1.00  0.00     0.006 A 
HETATM    5  C17 UNL     1      -4.685  48.222 -28.152  1.00  0.00     0.104 A 
HETATM    6  N3  UNL     1      -5.946  47.855 -28.444  1.00  0.00    -0.342 N 
ATOM      7  H3  UNL     1      -6.252  47.712 -29.406  1.00  0.00     0.167 HD
HETATM    8  C18 UNL     1      -6.780  47.686 -27.412  1.00  0.00     0.157 A 
HETATM    9  N5  UNL     1      -6.425  47.836 -26.128  1.00  0.00    -0.332 N 
ATOM     10  H5  UNL     1      -7.095  47.678 -25.377  1.00  0.00     0.168 HD
HETATM   11  C24 UNL     1      -5.166  48.199 -25.860  1.00  0.00     0.047 A 
HETATM   12  C25 UNL     1      -4.775  48.365 -24.538  1.00  0.00     0.047 A 
ENDROOT
BRANCH   1  13
HETATM   13  C1  UNL     1      -3.034  48.921 -22.788  1.00  0.00     0.252 C 
HETATM   14  O1  UNL     1      -3.379  49.913 -22.154  1.00  0.00    -0.268 OA
HETATM   15  N1  UNL     1      -2.250  47.922 -22.256  1.00  0.00    -0.345 N 
HETATM   16  H1  UNL     1      -2.145  47.043 -22.746  1.00  0.00     0.163 HD
BRANCH  15  17
HETATM   17  C2  UNL     1      -1.838  47.924 -20.851  1.00  0.00     0.159 C 
BRANCH  17  18
HETATM   18  C3  UNL     1      -1.431  49.349 -20.490  1.00  0.00    -0.030 A 
HETATM   19  C4  UNL     1      -1.984  49.955 -19.348  1.00  0.00     0.012 A 
HETATM   20  C5  UNL     1      -1.611  51.247 -18.972  1.00  0.00     0.044 A 
HETATM   21  C6  UNL     1      -0.672  51.941 -19.729  1.00  0.00     0.138 A 
HETATM   22  F1  UNL     1      -0.327  53.180 -19.347  1.00  0.00    -0.204 F 
HETATM   23  C7  UNL     1      -0.103  51.356 -20.854  1.00  0.00     0.073 A 
HETATM   24 CL1  UNL     1       1.068  52.206 -21.787  1.00  0.00    -0.081 Cl
HETATM   25  C8  UNL     1      -0.475  50.063 -21.233  1.00  0.00     0.036 A 
ENDBRANCH  17  18
BRANCH  17  26
HETATM   26  C9  UNL     1      -2.947  47.301 -19.957  1.00  0.00     0.155 C 
HETATM   27  F2  UNL     1      -2.430  47.029 -18.724  1.00  0.00    -0.238 F 
HETATM   28  C10 UNL     1      -3.595  46.040 -20.517  1.00  0.00     0.078 C 
HETATM   29  C11 UNL     1      -4.716  46.582 -21.379  1.00  0.00     0.273 C 
HETATM   30  N2  UNL     1      -5.267  47.678 -20.583  1.00  0.00     0.086 N 
HETATM   31  C12 UNL     1      -4.150  48.254 -19.812  1.00  0.00     0.315 C 
HETATM   32  H10 UNL     1      -5.708  48.381 -21.178  1.00  0.00     0.316 HD
ENDBRANCH  17  26
ENDBRANCH  15  17
ENDBRANCH   1  13
BRANCH   8  33
HETATM   33  N4  UNL     1      -8.102  47.327 -27.616  1.00  0.00    -0.259 NA
HETATM   34  H16 UNL     1      -8.264  46.532 -27.005  1.00  0.00     0.131 HD
BRANCH  33  35
HETATM   35  C19 UNL     1      -8.533  47.168 -29.001  1.00  0.00     0.067 C 
HETATM   36  C20 UNL     1      -9.798  47.990 -29.268  1.00  0.00     0.046 C 
HETATM   37  C21 UNL     1     -10.336  47.686 -30.660  1.00  0.00     0.169 C 
HETATM   38  O2  UNL     1     -10.590  46.290 -30.812  1.00  0.00    -0.391 OA
HETATM   39  C22 UNL     1      -9.410  45.504 -30.658  1.00  0.00     0.169 C 
HETATM   40  C23 UNL     1      -8.821  45.686 -29.268  1.00  0.00     0.046 C 
ENDBRANCH  33  35
ENDBRANCH   8  33
TORSDOF 6
ENDMDL
MODEL 6
REMARK minimizedAffinity -8.56943703
REMARK CNNscore 0.128907785
REMARK CNNaffinity 5.83876085
REMARK  6 active torsions:
REMARK  status: ('A' for Active; 'I' for Inactive)
REMARK       I    between atoms: C1_2  and  N1_3 
REMARK    1  A    between atoms: C1_2  and  C13_19 
REMARK    2  A    between atoms: N1_3  and  C2_4 
REMARK    3  A    between atoms: C2_4  and  C3_5 
REMARK    4  A    between atoms: C2_4  and  C9_13 
REMARK    5  A    between atoms: C18_26  and  N4_27 
REMARK    6  A    between atoms: N4_27  and  C19_28 
ROOT
HETATM    1  C13 UNL     1      -3.876  50.047 -23.883  1.00  0.00     0.034 A 
HETATM    2  C14 UNL     1      -3.615  49.563 -22.596  1.00  0.00     0.018 A 
HETATM    3  C15 UNL     1      -4.358  48.497 -22.093  1.00  0.00     0.016 A 
HETATM    4  C16 UNL     1      -5.370  47.921 -22.884  1.00  0.00     0.006 A 
HETATM    5  C17 UNL     1      -6.166  46.864 -22.475  1.00  0.00     0.104 A 
HETATM    6  N3  UNL     1      -7.138  46.323 -23.232  1.00  0.00    -0.342 N 
ATOM      7  H3  UNL     1      -7.713  45.552 -22.893  1.00  0.00     0.167 HD
HETATM    8  C18 UNL     1      -7.316  46.847 -24.450  1.00  0.00     0.157 A 
HETATM    9  N5  UNL     1      -6.608  47.877 -24.934  1.00  0.00    -0.332 N 
ATOM     10  H5  UNL     1      -6.797  48.250 -25.864  1.00  0.00     0.168 HD
HETATM   11  C24 UNL     1      -5.649  48.400 -24.165  1.00  0.00     0.047 A 
HETATM   12  C25 UNL     1      -4.899  49.465 -24.647  1.00  0.00     0.047 A 
ENDROOT
BRANCH   1  13
HETATM   13  C1  UNL     1      -3.072  51.196 -24.384  1.00  0.00     0.252 C 
HETATM   14  O1  UNL     1      -3.632  52.164 -24.889  1.00  0.00    -0.268 OA
HETATM   15  N1  UNL     1      -1.706  51.106 -24.243  1.00  0.00    -0.345 N 
HETATM   16  H1  UNL     1      -1.302  50.384 -23.659  1.00  0.00     0.163 HD
BRANCH  15  17
HETATM   17  C2  UNL     1      -0.813  52.208 -24.607  1.00  0.00     0.159 C 
BRANCH  17  18
HETATM   18  C3  UNL     1      -0.089  52.654 -23.341  1.00  0.00    -0.030 A 
HETATM   19  C4  UNL     1       0.774  53.763 -23.395  1.00  0.00     0.012 A 
HETATM   20  C5  UNL     1       1.429  54.216 -22.248  1.00  0.00     0.044 A 
HETATM   21  C6  UNL     1       1.219  53.572 -21.033  1.00  0.00     0.138 A 
HETATM   22  F1  UNL     1       1.856  54.027 -19.944  1.00  0.00    -0.204 F 
HETATM   23  C7  UNL     1       0.359  52.482 -20.954  1.00  0.00     0.073 A 
HETATM   24 CL1  UNL     1       0.085  51.689 -19.451  1.00  0.00    -0.081 Cl
HETATM   25  C8  UNL     1      -0.298  52.026 -22.100  1.00  0.00     0.036 A 
ENDBRANCH  17  18
BRANCH  17  26
HETATM   26  C9  UNL     1       0.107  51.796 -25.790  1.00  0.00     0.155 C 
HETATM   27  F2  UNL     1       1.231  51.199 -25.298  1.00  0.00    -0.238 F 
HETATM   28  C10 UNL     1       0.513  52.934 -26.719  1.00  0.00     0.078 C 
HETATM   29  C11 UNL     1      -0.618  52.977 -27.727  1.00  0.00     0.273 C 
HETATM   30  N2  UNL     1      -0.897  51.567 -27.994  1.00  0.00     0.086 N 
HETATM   31  C12 UNL     1      -0.614  50.828 -26.749  1.00  0.00     0.315 C 
HETATM   32  H10 UNL     1      -1.864  51.432 -28.292  1.00  0.00     0.316 HD
ENDBRANCH  17  26
ENDBRANCH  15  17
ENDBRANCH   1  13
BRANCH   8  33
HETATM   33  N4  UNL     1      -8.281  46.343 -25.307  1.00  0.00    -0.259 NA
HETATM   34  H16 UNL     1      -7.825  45.594 -25.818  1.00  0.00     0.131 HD
BRANCH  33  35
HETATM   35  C19 UNL     1      -9.015  47.314 -26.112  1.00  0.00     0.067 C 
HETATM   36  C20 UNL     1     -10.509  47.275 -25.774  1.00  0.00     0.046 C 
HETATM   37  C21 UNL     1     -11.287  48.164 -26.734  1.00  0.00     0.169 C 
HETATM   38  O2  UNL     1     -11.058  47.771 -28.087  1.00  0.00    -0.391 OA
HETATM   39  C22 UNL     1      -9.686  47.885 -28.459  1.00  0.00     0.169 C 
HETATM   40  C23 UNL     1      -8.819  46.981 -27.596  1.00  0.00     0.046 C 
ENDBRANCH  33  35
ENDBRANCH   8  33
TORSDOF 6
ENDMDL
MODEL 7
REMARK minimizedAffinity -9.43772125
REMARK CNNscore 0.125737265
REMARK CNNaffinity 6.17520475
REMARK  6 active torsions:
REMARK  status: ('A' for Active; 'I' for Inactive)
REMARK       I    between atoms: C1_2  and  N1_3 
REMARK    1  A    between atoms: C1_2  and  C13_19 
REMARK    2  A    between atoms: N1_3  and  C2_4 
REMARK    3  A    between atoms: C2_4  and  C3_5 
REMARK    4  A    between atoms: C2_4  and  C9_13 
REMARK    5  A    between atoms: C18_26  and  N4_27 
REMARK    6  A    between atoms: N4_27  and  C19_28 
ROOT
HETATM    1  C13 UNL     1      -4.960  48.308 -26.293  1.00  0.00     0.034 A 
HETATM    2  C14 UNL     1      -6.143  47.857 -25.698  1.00  0.00     0.018 A 
HETATM    3  C15 UNL     1      -7.161  47.331 -26.491  1.00  0.00     0.016 A 
HETATM    4  C16 UNL     1      -6.991  47.266 -27.887  1.00  0.00     0.006 A 
HETATM    5  C17 UNL     1      -7.942  46.767 -28.761  1.00  0.00     0.104 A 
HETATM    6  N3  UNL     1      -7.777  46.716 -30.095  1.00  0.00    -0.342 N 
ATOM      7  H3  UNL     1      -8.505  46.352 -30.710  1.00  0.00     0.167 HD
HETATM    8  C18 UNL     1      -6.614  47.166 -30.578  1.00  0.00     0.157 A 
HETATM    9  N5  UNL     1      -5.635  47.678 -29.819  1.00  0.00    -0.332 N 
ATOM     10  H5  UNL     1      -4.773  48.025 -30.239  1.00  0.00     0.168 HD
HETATM   11  C24 UNL     1      -5.820  47.722 -28.495  1.00  0.00     0.047 A 
HETATM   12  C25 UNL     1      -4.819  48.245 -27.688  1.00  0.00     0.047 A 
ENDROOT
BRANCH   1  13
HETATM   13  C1  UNL     1      -3.898  48.876 -25.417  1.00  0.00     0.252 C 
HETATM   14  O1  UNL     1      -3.396  48.188 -24.534  1.00  0.00    -0.268 OA
HETATM   15  N1  UNL     1      -3.526  50.179 -25.659  1.00  0.00    -0.345 N 
HETATM   16  H1  UNL     1      -3.827  50.644 -26.506  1.00  0.00     0.163 HD
BRANCH  15  17
HETATM   17  C2  UNL     1      -2.429  50.821 -24.933  1.00  0.00     0.159 C 
BRANCH  17  18
HETATM   18  C3  UNL     1      -1.326  51.131 -25.940  1.00  0.00    -0.030 A 
HETATM   19  C4  UNL     1      -1.672  51.635 -27.206  1.00  0.00     0.012 A 
HETATM   20  C5  UNL     1      -0.686  51.957 -28.142  1.00  0.00     0.044 A 
HETATM   21  C6  UNL     1       0.656  51.788 -27.815  1.00  0.00     0.138 A 
HETATM   22  F1  UNL     1       1.585  52.108 -28.728  1.00  0.00    -0.204 F 
HETATM   23  C7  UNL     1       1.021  51.304 -26.564  1.00  0.00     0.073 A 
HETATM   24 CL1  UNL     1       2.680  51.105 -26.150  1.00  0.00    -0.081 Cl
HETATM   25  C8  UNL     1       0.036  50.980 -25.626  1.00  0.00     0.036 A 
ENDBRANCH  17  18
BRANCH  17  26
HETATM   26  C9  UNL     1      -2.951  52.040 -24.121  1.00  0.00     0.155 C 
HETATM   27  F2  UNL     1      -2.239  53.150 -24.470  1.00  0.00    -0.238 F 
HETATM   28  C10 UNL     1      -2.908  51.874 -22.607  1.00  0.00     0.078 C 
HETATM   29  C11 UNL     1      -4.233  51.208 -22.295  1.00  0.00     0.273 C 
HETATM   30  N2  UNL     1      -5.182  51.903 -23.162  1.00  0.00     0.086 N 
HETATM   31  C12 UNL     1      -4.450  52.285 -24.384  1.00  0.00     0.315 C 
HETATM   32  H10 UNL     1      -5.984  51.310 -23.381  1.00  0.00     0.316 HD
ENDBRANCH  17  26
ENDBRANCH  15  17
ENDBRANCH   1  13
BRANCH   8  33
HETATM   33  N4  UNL     1      -6.347  47.136 -31.937  1.00  0.00    -0.259 NA
HETATM   34  H16 UNL     1      -7.081  47.689 -32.369  1.00  0.00     0.131 HD
BRANCH  33  35
HETATM   35  C19 UNL     1      -6.100  45.825 -32.528  1.00  0.00     0.067 C 
HETATM   36  C20 UNL     1      -7.146  44.813 -32.050  1.00  0.00     0.046 C 
HETATM   37  C21 UNL     1      -6.783  43.416 -32.533  1.00  0.00     0.169 C 
HETATM   38  O2  UNL     1      -5.476  43.050 -32.090  1.00  0.00    -0.391 OA
HETATM   39  C22 UNL     1      -4.468  43.923 -32.596  1.00  0.00     0.169 C 
HETATM   40  C23 UNL     1      -4.702  45.348 -32.117  1.00  0.00     0.046 C 
ENDBRANCH  33  35
ENDBRANCH   8  33
TORSDOF 6
ENDMDL
MODEL 8
REMARK minimizedAffinity -9.42214298
REMARK CNNscore 0.119293362
REMARK CNNaffinity 5.92437553
REMARK  6 active torsions:
REMARK  status: ('A' for Active; 'I' for Inactive)
REMARK       I    between atoms: C1_2  and  N1_3 
REMARK    1  A    between atoms: C1_2  and  C13_19 
REMARK    2  A    between atoms: N1_3  and  C2_4 
REMARK    3  A    between atoms: C2_4  and  C3_5 
REMARK    4  A    between atoms: C2_4  and  C9_13 
REMARK    5  A    between atoms: C18_26  and  N4_27 
REMARK    6  A    between atoms: N4_27  and  C19_28 
ROOT
HETATM    1  C13 UNL     1      -3.418  48.697 -24.101  1.00  0.00     0.034 A 
HETATM    2  C14 UNL     1      -2.465  48.887 -25.107  1.00  0.00     0.018 A 
HETATM    3  C15 UNL     1      -2.833  48.755 -26.444  1.00  0.00     0.016 A 
HETATM    4  C16 UNL     1      -4.162  48.423 -26.769  1.00  0.00     0.006 A 
HETATM    5  C17 UNL     1      -4.627  48.263 -28.064  1.00  0.00     0.104 A 
HETATM    6  N3  UNL     1      -5.896  47.937 -28.368  1.00  0.00    -0.342 N 
ATOM      7  H3  UNL     1      -6.200  47.816 -29.334  1.00  0.00     0.167 HD
HETATM    8  C18 UNL     1      -6.740  47.777 -27.343  1.00  0.00     0.157 A 
HETATM    9  N5  UNL     1      -6.388  47.897 -26.055  1.00  0.00    -0.332 N 
ATOM     10  H5  UNL     1      -7.068  47.746 -25.310  1.00  0.00     0.168 HD
HETATM   11  C24 UNL     1      -5.121  48.220 -25.775  1.00  0.00     0.047 A 
HETATM   12  C25 UNL     1      -4.733  48.354 -24.449  1.00  0.00     0.047 A 
ENDROOT
BRANCH   1  13
HETATM   13  C1  UNL     1      -2.987  48.834 -22.682  1.00  0.00     0.252 C 
HETATM   14  O1  UNL     1      -2.670  47.839 -22.037  1.00  0.00    -0.268 OA
HETATM   15  N1  UNL     1      -2.963  50.108 -22.161  1.00  0.00    -0.345 N 
HETATM   16  H1  UNL     1      -3.050  50.909 -22.773  1.00  0.00     0.163 HD
BRANCH  15  17
HETATM   17  C2  UNL     1      -2.467  50.385 -20.811  1.00  0.00     0.159 C 
BRANCH  17  18
HETATM   18  C3  UNL     1      -1.256  51.303 -20.943  1.00  0.00    -0.030 A 
HETATM   19  C4  UNL     1      -0.921  51.824 -22.206  1.00  0.00     0.012 A 
HETATM   20  C5  UNL     1       0.164  52.689 -22.358  1.00  0.00     0.044 A 
HETATM   21  C6  UNL     1       0.918  53.052 -21.246  1.00  0.00     0.138 A 
HETATM   22  F1  UNL     1       1.953  53.889 -21.416  1.00  0.00    -0.204 F 
HETATM   23  C7  UNL     1       0.596  52.561 -19.986  1.00  0.00     0.073 A 
HETATM   24 CL1  UNL     1       1.517  53.016 -18.605  1.00  0.00    -0.081 Cl
HETATM   25  C8  UNL     1      -0.489  51.693 -19.831  1.00  0.00     0.036 A 
ENDBRANCH  17  18
BRANCH  17  26
HETATM   26  C9  UNL     1      -3.614  50.922 -19.909  1.00  0.00     0.155 C 
HETATM   27  F2  UNL     1      -3.143  51.953 -19.150  1.00  0.00    -0.238 F 
HETATM   28  C10 UNL     1      -4.256  49.884 -18.996  1.00  0.00     0.078 C 
HETATM   29  C11 UNL     1      -5.340  49.283 -19.867  1.00  0.00     0.273 C 
HETATM   30  N2  UNL     1      -5.906  50.437 -20.563  1.00  0.00     0.086 N 
HETATM   31  C12 UNL     1      -4.810  51.405 -20.752  1.00  0.00     0.315 C 
HETATM   32  H10 UNL     1      -6.317  50.164 -21.457  1.00  0.00     0.316 HD
ENDBRANCH  17  26
ENDBRANCH  15  17
ENDBRANCH   1  13
BRANCH   8  33
HETATM   33  N4  UNL     1      -8.071  47.458 -27.560  1.00  0.00    -0.259 NA
HETATM   34  H16 UNL     1      -8.101  46.445 -27.621  1.00  0.00     0.131 HD
BRANCH  33  35
HETATM   35  C19 UNL     1      -8.755  48.185 -28.624  1.00  0.00     0.067 C 
HETATM   36  C20 UNL     1     -10.074  47.494 -28.986  1.00  0.00     0.046 C 
HETATM   37  C21 UNL     1     -10.695  48.157 -30.207  1.00  0.00     0.169 C 
HETATM   38  O2  UNL     1      -9.789  48.139 -31.310  1.00  0.00    -0.391 OA
HETATM   39  C22 UNL     1      -8.586  48.854 -31.034  1.00  0.00     0.169 C 
HETATM   40  C23 UNL     1      -7.848  48.231 -29.860  1.00  0.00     0.046 C 
ENDBRANCH  33  35
ENDBRANCH   8  33
TORSDOF 6
ENDMDL
MODEL 9
REMARK minimizedAffinity -9.68148422
REMARK CNNscore 0.116773188
REMARK CNNaffinity 5.58661222
REMARK  6 active torsions:
REMARK  status: ('A' for Active; 'I' for Inactive)
REMARK       I    between atoms: C1_2  and  N1_3 
REMARK    1  A    between atoms: C1_2  and  C13_19 
REMARK    2  A    between atoms: N1_3  and  C2_4 
REMARK    3  A    between atoms: C2_4  and  C3_5 
REMARK    4  A    between atoms: C2_4  and  C9_13 
REMARK    5  A    between atoms: C18_26  and  N4_27 
REMARK    6  A    between atoms: N4_27  and  C19_28 
ROOT
HETATM    1  C13 UNL     1      -3.243  48.825 -24.212  1.00  0.00     0.034 A 
HETATM    2  C14 UNL     1      -2.336  49.078 -25.246  1.00  0.00     0.018 A 
HETATM    3  C15 UNL     1      -2.732  48.914 -26.571  1.00  0.00     0.016 A 
HETATM    4  C16 UNL     1      -4.043  48.486 -26.857  1.00  0.00     0.006 A 
HETATM    5  C17 UNL     1      -4.533  48.288 -28.137  1.00  0.00     0.104 A 
HETATM    6  N3  UNL     1      -5.784  47.870 -28.403  1.00  0.00    -0.342 N 
ATOM      7  H3  UNL     1      -6.107  47.725 -29.359  1.00  0.00     0.167 HD
HETATM    8  C18 UNL     1      -6.584  47.654 -27.353  1.00  0.00     0.157 A 
HETATM    9  N5  UNL     1      -6.204  47.805 -26.076  1.00  0.00    -0.332 N 
ATOM     10  H5  UNL     1      -6.848  47.610 -25.311  1.00  0.00     0.168 HD
HETATM   11  C24 UNL     1      -4.955  48.219 -25.834  1.00  0.00     0.047 A 
HETATM   12  C25 UNL     1      -4.540  48.386 -24.520  1.00  0.00     0.047 A 
ENDROOT
BRANCH   1  13
HETATM   13  C1  UNL     1      -2.781  48.998 -22.806  1.00  0.00     0.252 C 
HETATM   14  O1  UNL     1      -2.412  48.025 -22.156  1.00  0.00    -0.268 OA
HETATM   15  N1  UNL     1      -2.790  50.279 -22.304  1.00  0.00    -0.345 N 
HETATM   16  H1  UNL     1      -2.922  51.068 -22.925  1.00  0.00     0.163 HD
BRANCH  15  17
HETATM   17  C2  UNL     1      -2.271  50.595 -20.971  1.00  0.00     0.159 C 
BRANCH  17  18
HETATM   18  C3  UNL     1      -1.113  51.572 -21.146  1.00  0.00    -0.030 A 
HETATM   19  C4  UNL     1      -0.335  51.924 -20.029  1.00  0.00     0.012 A 
HETATM   20  C5  UNL     1       0.750  52.793 -20.159  1.00  0.00     0.044 A 
HETATM   21  C6  UNL     1       1.075  53.309 -21.409  1.00  0.00     0.138 A 
HETATM   22  F1  UNL     1       2.124  54.139 -21.510  1.00  0.00    -0.204 F 
HETATM   23  C7  UNL     1       0.328  52.963 -22.529  1.00  0.00     0.073 A 
HETATM   24 CL1  UNL     1       0.733  53.588 -24.082  1.00  0.00    -0.081 Cl
HETATM   25  C8  UNL     1      -0.759  52.094 -22.403  1.00  0.00     0.036 A 
ENDBRANCH  17  18
BRANCH  17  26
HETATM   26  C9  UNL     1      -3.418  51.079 -20.040  1.00  0.00     0.155 C 
HETATM   27  F2  UNL     1      -2.956  52.088 -19.247  1.00  0.00    -0.238 F 
HETATM   28  C10 UNL     1      -4.037  49.998 -19.163  1.00  0.00     0.078 C 
HETATM   29  C11 UNL     1      -5.120  49.415 -20.047  1.00  0.00     0.273 C 
HETATM   30  N2  UNL     1      -5.708  50.586 -20.694  1.00  0.00     0.086 N 
HETATM   31  C12 UNL     1      -4.628  51.577 -20.855  1.00  0.00     0.315 C 
HETATM   32  H10 UNL     1      -6.123  50.341 -21.594  1.00  0.00     0.316 HD
ENDBRANCH  17  26
ENDBRANCH  15  17
ENDBRANCH   1  13
BRANCH   8  33
HETATM   33  N4  UNL     1      -7.894  47.241 -27.529  1.00  0.00    -0.259 NA
HETATM   34  H16 UNL     1      -7.841  46.242 -27.704  1.00  0.00     0.131 HD
BRANCH  33  35
HETATM   35  C19 UNL     1      -8.706  48.012 -28.464  1.00  0.00     0.067 C 
HETATM   36  C20 UNL     1     -10.054  47.324 -28.702  1.00  0.00     0.046 C 
HETATM   37  C21 UNL     1     -10.822  48.042 -29.803  1.00  0.00     0.169 C 
HETATM   38  O2  UNL     1     -10.054  48.093 -31.006  1.00  0.00    -0.391 OA
HETATM   39  C22 UNL     1      -8.832  48.809 -30.838  1.00  0.00     0.169 C 
HETATM   40  C23 UNL     1      -7.954  48.135 -29.795  1.00  0.00     0.046 C 
ENDBRANCH  33  35
ENDBRANCH   8  33
TORSDOF 6
ENDMDL
