MODEL 1
REMARK minimizedAffinity -8.18231297
REMARK  6 active torsions:
REMARK  status: ('A' for Active; 'I' for Inactive)
REMARK    1  A    between atoms: O1_2  and  C2_3 
REMARK    2  A    between atoms: C2_3  and  C3_4 
REMARK    3  A    between atoms: C3_4  and  N1_5 
REMARK    4  A    between atoms: C3_4  and  C14_25 
REMARK       I    between atoms: N1_5  and  C4_6 
REMARK       I    between atoms: C4_6  and  N2_8 
REMARK    5  A    between atoms: N2_8  and  C5_9 
REMARK    6  A    between atoms: N5_16  and  C9_17 
ROOT
HETATM    1  C5  UNL     1      -0.310  52.572 -22.622  1.00  0.00     0.111 A 
HETATM    2  C6  UNL     1       0.767  52.743 -23.480  1.00  0.00     0.080 A 
HETATM    3  C7  UNL     1       0.462  52.669 -24.839  1.00  0.00     0.067 A 
HETATM    4  N3  UNL     1       1.244  52.795 -25.951  1.00  0.00    -0.298 N 
HETATM    5  N4  UNL     1       0.579  52.653 -27.106  1.00  0.00    -0.284 N 
ATOM      6  H4  UNL     1       0.953  52.702 -28.054  1.00  0.00     0.188 HD
HETATM    7  C8  UNL     1      -0.684  52.435 -26.735  1.00  0.00     0.130 A 
HETATM    8  N5  UNL     1      -1.638  52.241 -27.674  1.00  0.00    -0.366 N 
HETATM    9  C12 UNL     1      -0.824  52.438 -25.318  1.00  0.00     0.052 A 
HETATM   10  C13 UNL     1      -1.844  52.285 -24.378  1.00  0.00     0.107 A 
HETATM   11  N6  UNL     1      -1.573  52.345 -23.046  1.00  0.00    -0.351 N 
ATOM     12  H6  UNL     1      -2.324  52.220 -22.367  1.00  0.00     0.166 HD
HETATM   13  H10 UNL     1       2.241  52.980 -25.988  1.00  0.00     0.187 HD
HETATM   14  H11 UNL     1      -1.241  52.155 -28.608  1.00  0.00     0.161 HD
ENDROOT
BRANCH   1  15
HETATM   15  N2  UNL     1      -0.198  52.598 -21.232  1.00  0.00    -0.295 N 
HETATM   16  C4  UNL     1      -0.226  51.548 -20.357  1.00  0.00     0.322 C 
HETATM   17  N1  UNL     1      -0.151  51.978 -19.054  1.00  0.00    -0.332 N 
HETATM   18  O2  UNL     1      -0.299  50.362 -20.648  1.00  0.00    -0.247 OA
HETATM   19  H7  UNL     1      -0.423  52.930 -18.856  1.00  0.00     0.165 HD
HETATM   20  H8  UNL     1       0.055  53.510 -20.883  1.00  0.00     0.172 HD
BRANCH  17  21
HETATM   21  C3  UNL     1      -0.202  51.038 -17.935  1.00  0.00     0.143 C 
BRANCH  21  22
HETATM   22  C2  UNL     1      -1.632  50.974 -17.326  1.00  0.00     0.197 C 
BRANCH  22  23
HETATM   23  O1  UNL     1      -2.652  51.569 -18.137  1.00  0.00    -0.394 OA
HETATM   24  C1  UNL     1      -3.445  50.614 -18.828  1.00  0.00     0.201 C 
ENDBRANCH  22  23
ENDBRANCH  21  22
BRANCH  21  25
HETATM   25  C14 UNL     1       0.922  51.395 -16.970  1.00  0.00    -0.033 A 
HETATM   26  C15 UNL     1       1.029  50.672 -15.766  1.00  0.00     0.009 A 
HETATM   27  C16 UNL     1       2.054  50.936 -14.854  1.00  0.00     0.001 A 
HETATM   28  C17 UNL     1       2.993  51.923 -15.134  1.00  0.00     0.000 A 
HETATM   29  C18 UNL     1       2.909  52.645 -16.322  1.00  0.00     0.001 A 
HETATM   30  C19 UNL     1       1.883  52.381 -17.234  1.00  0.00     0.009 A 
ENDBRANCH  21  25
ENDBRANCH  17  21
ENDBRANCH   1  15
BRANCH   8  31
HETATM   31  C9  UNL     1      -2.869  51.525 -27.498  1.00  0.00     0.130 C 
HETATM   32  C10 UNL     1      -3.410  51.536 -26.062  1.00  0.00     0.195 C 
HETATM   33  O3  UNL     1      -3.417  50.088 -26.011  1.00  0.00    -0.387 OA
HETATM   34  C11 UNL     1      -2.680  50.021 -27.256  1.00  0.00     0.195 C 
ENDBRANCH   8  31
TORSDOF 6
ENDMDL
MODEL 2
REMARK minimizedAffinity -8.13527966
REMARK  6 active torsions:
REMARK  status: ('A' for Active; 'I' for Inactive)
REMARK    1  A    between atoms: O1_2  and  C2_3 
REMARK    2  A    between atoms: C2_3  and  C3_4 
REMARK    3  A    between atoms: C3_4  and  N1_5 
REMARK    4  A    between atoms: C3_4  and  C14_25 
REMARK       I    between atoms: N1_5  and  C4_6 
REMARK       I    between atoms: C4_6  and  N2_8 
REMARK    5  A    between atoms: N2_8  and  C5_9 
REMARK    6  A    between atoms: N5_16  and  C9_17 
ROOT
HETATM    1  C5  UNL     1       0.110  52.411 -20.271  1.00  0.00     0.111 A 
HETATM    2  C6  UNL     1       0.966  53.132 -19.449  1.00  0.00     0.080 A 
HETATM    3  C7  UNL     1       1.036  52.687 -18.129  1.00  0.00     0.067 A 
HETATM    4  N3  UNL     1       1.761  53.133 -17.062  1.00  0.00    -0.298 N 
HETATM    5  N4  UNL     1       1.554  52.439 -15.933  1.00  0.00    -0.284 N 
ATOM      6  H4  UNL     1       1.978  52.593 -15.017  1.00  0.00     0.188 HD
HETATM    7  C8  UNL     1       0.669  51.503 -16.278  1.00  0.00     0.130 A 
HETATM    8  N5  UNL     1       0.230  50.618 -15.355  1.00  0.00    -0.366 N 
HETATM    9  C12 UNL     1       0.306  51.603 -17.652  1.00  0.00     0.052 A 
HETATM   10  C13 UNL     1      -0.523  50.937 -18.555  1.00  0.00     0.107 A 
HETATM   11  N6  UNL     1      -0.617  51.353 -19.847  1.00  0.00    -0.351 N 
ATOM     12  H6  UNL     1      -1.236  50.867 -20.495  1.00  0.00     0.166 HD
HETATM   13  H10 UNL     1       2.417  53.906 -17.039  1.00  0.00     0.187 HD
HETATM   14  H11 UNL     1       0.548  50.857 -14.417  1.00  0.00     0.161 HD
ENDROOT
BRANCH   1  15
HETATM   15  N2  UNL     1      -0.103  52.714 -21.616  1.00  0.00    -0.295 N 
HETATM   16  C4  UNL     1      -0.625  51.915 -22.594  1.00  0.00     0.322 C 
HETATM   17  N1  UNL     1      -0.617  52.547 -23.815  1.00  0.00    -0.332 N 
HETATM   18  O2  UNL     1      -1.062  50.781 -22.450  1.00  0.00    -0.247 OA
HETATM   19  H7  UNL     1       0.031  53.309 -23.946  1.00  0.00     0.165 HD
HETATM   20  H8  UNL     1       0.046  53.691 -21.819  1.00  0.00     0.172 HD
BRANCH  17  21
HETATM   21  C3  UNL     1      -1.091  51.875 -25.025  1.00  0.00     0.143 C 
BRANCH  21  22
HETATM   22  C2  UNL     1      -1.818  50.546 -24.677  1.00  0.00     0.197 C 
BRANCH  22  23
HETATM   23  O1  UNL     1      -3.203  50.511 -25.041  1.00  0.00    -0.394 OA
HETATM   24  C1  UNL     1      -3.727  51.791 -25.371  1.00  0.00     0.201 C 
ENDBRANCH  22  23
ENDBRANCH  21  22
BRANCH  21  25
HETATM   25  C14 UNL     1       0.083  51.764 -25.991  1.00  0.00    -0.033 A 
HETATM   26  C15 UNL     1      -0.174  51.831 -27.373  1.00  0.00     0.009 A 
HETATM   27  C16 UNL     1       0.864  51.761 -28.305  1.00  0.00     0.001 A 
HETATM   28  C17 UNL     1       2.178  51.630 -27.870  1.00  0.00     0.000 A 
HETATM   29  C18 UNL     1       2.455  51.567 -26.506  1.00  0.00     0.001 A 
HETATM   30  C19 UNL     1       1.416  51.637 -25.573  1.00  0.00     0.009 A 
ENDBRANCH  21  25
ENDBRANCH  17  21
ENDBRANCH   1  15
BRANCH   8  31
HETATM   31  C9  UNL     1      -1.020  49.912 -15.382  1.00  0.00     0.130 C 
HETATM   32  C10 UNL     1      -2.252  50.793 -15.139  1.00  0.00     0.195 C 
HETATM   33  O3  UNL     1      -2.662  49.980 -14.012  1.00  0.00    -0.387 OA
HETATM   34  C11 UNL     1      -1.398  49.273 -14.039  1.00  0.00     0.195 C 
ENDBRANCH   8  31
TORSDOF 6
ENDMDL
MODEL 3
REMARK minimizedAffinity -8.11658287
REMARK  6 active torsions:
REMARK  status: ('A' for Active; 'I' for Inactive)
REMARK    1  A    between atoms: O1_2  and  C2_3 
REMARK    2  A    between atoms: C2_3  and  C3_4 
REMARK    3  A    between atoms: C3_4  and  N1_5 
REMARK    4  A    between atoms: C3_4  and  C14_25 
REMARK       I    between atoms: N1_5  and  C4_6 
REMARK       I    between atoms: C4_6  and  N2_8 
REMARK    5  A    between atoms: N2_8  and  C5_9 
REMARK    6  A    between atoms: N5_16  and  C9_17 
ROOT
HETATM    1  C5  UNL     1      -3.613  48.880 -25.882  1.00  0.00     0.111 A 
HETATM    2  C6  UNL     1      -4.777  48.450 -25.260  1.00  0.00     0.080 A 
HETATM    3  C7  UNL     1      -5.760  47.954 -26.117  1.00  0.00     0.067 A 
HETATM    4  N3  UNL     1      -7.002  47.445 -25.871  1.00  0.00    -0.298 N 
HETATM    5  N4  UNL     1      -7.667  47.070 -26.974  1.00  0.00    -0.284 N 
ATOM      6  H4  UNL     1      -8.604  46.670 -27.034  1.00  0.00     0.188 HD
HETATM    7  C8  UNL     1      -6.826  47.337 -27.974  1.00  0.00     0.130 A 
HETATM    8  N5  UNL     1      -7.191  47.077 -29.249  1.00  0.00    -0.366 N 
HETATM    9  C12 UNL     1      -5.603  47.892 -27.498  1.00  0.00     0.052 A 
HETATM   10  C13 UNL     1      -4.394  48.342 -28.031  1.00  0.00     0.107 A 
HETATM   11  N6  UNL     1      -3.421  48.837 -27.219  1.00  0.00    -0.351 N 
ATOM     12  H6  UNL     1      -2.546  49.175 -27.620  1.00  0.00     0.166 HD
HETATM   13  H10 UNL     1      -7.455  47.325 -24.971  1.00  0.00     0.187 HD
HETATM   14  H11 UNL     1      -8.172  46.808 -29.317  1.00  0.00     0.161 HD
ENDROOT
BRANCH   1  15
HETATM   15  N2  UNL     1      -2.527  49.419 -25.193  1.00  0.00    -0.295 N 
HETATM   16  C4  UNL     1      -2.112  50.721 -25.144  1.00  0.00     0.322 C 
HETATM   17  N1  UNL     1      -0.959  50.854 -24.409  1.00  0.00    -0.332 N 
HETATM   18  O2  UNL     1      -2.668  51.680 -25.663  1.00  0.00    -0.247 OA
HETATM   19  H7  UNL     1      -0.379  50.036 -24.292  1.00  0.00     0.165 HD
HETATM   20  H8  UNL     1      -2.096  48.753 -24.571  1.00  0.00     0.172 HD
BRANCH  17  21
HETATM   21  C3  UNL     1      -0.300  52.150 -24.247  1.00  0.00     0.143 C 
BRANCH  21  22
HETATM   22  C2  UNL     1       0.898  52.292 -25.227  1.00  0.00     0.197 C 
BRANCH  22  23
HETATM   23  O1  UNL     1       0.857  53.462 -26.053  1.00  0.00    -0.394 OA
HETATM   24  C1  UNL     1       0.201  53.247 -27.295  1.00  0.00     0.201 C 
ENDBRANCH  22  23
ENDBRANCH  21  22
BRANCH  21  25
HETATM   25  C14 UNL     1       0.017  52.333 -22.768  1.00  0.00    -0.033 A 
HETATM   26  C15 UNL     1       0.883  53.377 -22.391  1.00  0.00     0.009 A 
HETATM   27  C16 UNL     1       1.192  53.611 -21.049  1.00  0.00     0.001 A 
HETATM   28  C17 UNL     1       0.633  52.808 -20.060  1.00  0.00     0.000 A 
HETATM   29  C18 UNL     1      -0.231  51.773 -20.411  1.00  0.00     0.001 A 
HETATM   30  C19 UNL     1      -0.539  51.540 -21.755  1.00  0.00     0.009 A 
ENDBRANCH  21  25
ENDBRANCH  17  21
ENDBRANCH   1  15
BRANCH   8  31
HETATM   31  C9  UNL     1      -6.684  47.723 -30.426  1.00  0.00     0.130 C 
HETATM   32  C10 UNL     1      -6.078  46.769 -31.463  1.00  0.00     0.195 C 
HETATM   33  O3  UNL     1      -4.810  47.470 -31.428  1.00  0.00    -0.387 OA
HETATM   34  C11 UNL     1      -5.244  48.236 -30.278  1.00  0.00     0.195 C 
ENDBRANCH   8  31
TORSDOF 6
ENDMDL
MODEL 4
REMARK minimizedAffinity -8.0992918
REMARK  6 active torsions:
REMARK  status: ('A' for Active; 'I' for Inactive)
REMARK    1  A    between atoms: O1_2  and  C2_3 
REMARK    2  A    between atoms: C2_3  and  C3_4 
REMARK    3  A    between atoms: C3_4  and  N1_5 
REMARK    4  A    between atoms: C3_4  and  C14_25 
REMARK       I    between atoms: N1_5  and  C4_6 
REMARK       I    between atoms: C4_6  and  N2_8 
REMARK    5  A    between atoms: N2_8  and  C5_9 
REMARK    6  A    between atoms: N5_16  and  C9_17 
ROOT
HETATM    1  C5  UNL     1       0.298  51.721 -21.226  1.00  0.00     0.111 A 
HETATM    2  C6  UNL     1       1.057  52.883 -21.201  1.00  0.00     0.080 A 
HETATM    3  C7  UNL     1       1.046  53.626 -22.381  1.00  0.00     0.067 A 
HETATM    4  N3  UNL     1       1.654  54.802 -22.716  1.00  0.00    -0.298 N 
HETATM    5  N4  UNL     1       1.406  55.206 -23.971  1.00  0.00    -0.284 N 
ATOM      6  H4  UNL     1       1.754  56.044 -24.438  1.00  0.00     0.188 HD
HETATM    7  C8  UNL     1       0.604  54.265 -24.469  1.00  0.00     0.130 A 
HETATM    8  N5  UNL     1       0.159  54.363 -25.742  1.00  0.00    -0.366 N 
HETATM    9  C12 UNL     1       0.335  53.243 -23.513  1.00  0.00     0.052 A 
HETATM   10  C13 UNL     1      -0.405  52.062 -23.442  1.00  0.00     0.107 A 
HETATM   11  N6  UNL     1      -0.407  51.314 -22.305  1.00  0.00    -0.351 N 
ATOM     12  H6  UNL     1      -0.941  50.446 -22.267  1.00  0.00     0.166 HD
HETATM   13  H10 UNL     1       2.249  55.379 -22.132  1.00  0.00     0.187 HD
HETATM   14  H11 UNL     1       0.613  55.123 -26.246  1.00  0.00     0.161 HD
ENDROOT
BRANCH   1  15
HETATM   15  N2  UNL     1       0.197  50.844 -20.146  1.00  0.00    -0.295 N 
HETATM   16  C4  UNL     1      -0.191  51.115 -18.864  1.00  0.00     0.322 C 
HETATM   17  N1  UNL     1      -0.101  50.001 -18.065  1.00  0.00    -0.332 N 
HETATM   18  O2  UNL     1      -0.584  52.193 -18.437  1.00  0.00    -0.247 OA
HETATM   19  H7  UNL     1       0.519  49.260 -18.360  1.00  0.00     0.165 HD
HETATM   20  H8  UNL     1       0.317  49.881 -20.420  1.00  0.00     0.172 HD
BRANCH  17  21
HETATM   21  C3  UNL     1      -0.426  50.054 -16.640  1.00  0.00     0.143 C 
BRANCH  21  22
HETATM   22  C2  UNL     1      -1.714  50.889 -16.393  1.00  0.00     0.197 C 
BRANCH  22  23
HETATM   23  O1  UNL     1      -1.954  51.221 -15.021  1.00  0.00    -0.394 OA
HETATM   24  C1  UNL     1      -3.335  51.349 -14.710  1.00  0.00     0.201 C 
ENDBRANCH  22  23
ENDBRANCH  21  22
BRANCH  21  25
HETATM   25  C14 UNL     1       0.822  50.507 -15.891  1.00  0.00    -0.033 A 
HETATM   26  C15 UNL     1       1.243  49.760 -14.774  1.00  0.00     0.009 A 
HETATM   27  C16 UNL     1       2.393  50.111 -14.063  1.00  0.00     0.001 A 
HETATM   28  C17 UNL     1       3.145  51.211 -14.461  1.00  0.00     0.000 A 
HETATM   29  C18 UNL     1       2.749  51.960 -15.566  1.00  0.00     0.001 A 
HETATM   30  C19 UNL     1       1.597  51.609 -16.278  1.00  0.00     0.009 A 
ENDBRANCH  21  25
ENDBRANCH  17  21
ENDBRANCH   1  15
BRANCH   8  31
HETATM   31  C9  UNL     1      -0.258  53.277 -26.582  1.00  0.00     0.130 C 
HETATM   32  C10 UNL     1       0.888  52.400 -27.102  1.00  0.00     0.195 C 
HETATM   33  O3  UNL     1       0.503  52.641 -28.478  1.00  0.00    -0.387 OA
HETATM   34  C11 UNL     1      -0.429  53.667 -28.057  1.00  0.00     0.195 C 
ENDBRANCH   8  31
TORSDOF 6
ENDMDL
MODEL 5
REMARK minimizedAffinity -8.03385735
REMARK  6 active torsions:
REMARK  status: ('A' for Active; 'I' for Inactive)
REMARK    1  A    between atoms: O1_2  and  C2_3 
REMARK    2  A    between atoms: C2_3  and  C3_4 
REMARK    3  A    between atoms: C3_4  and  N1_5 
REMARK    4  A    between atoms: C3_4  and  C14_25 
REMARK       I    between atoms: N1_5  and  C4_6 
REMARK       I    between atoms: C4_6  and  N2_8 
REMARK    5  A    between atoms: N2_8  and  C5_9 
REMARK    6  A    between atoms: N5_16  and  C9_17 
ROOT
HETATM    1  C5  UNL     1      -2.627  51.115 -26.677  1.00  0.00     0.111 A 
HETATM    2  C6  UNL     1      -1.629  51.947 -27.164  1.00  0.00     0.080 A 
HETATM    3  C7  UNL     1      -0.718  52.403 -26.211  1.00  0.00     0.067 A 
HETATM    4  N3  UNL     1       0.377  53.212 -26.320  1.00  0.00    -0.298 N 
HETATM    5  N4  UNL     1       1.011  53.432 -25.158  1.00  0.00    -0.284 N 
ATOM      6  H4  UNL     1       1.841  54.002 -24.997  1.00  0.00     0.188 HD
HETATM    7  C8  UNL     1       0.310  52.735 -24.262  1.00  0.00     0.130 A 
HETATM    8  N5  UNL     1       0.682  52.742 -22.963  1.00  0.00    -0.366 N 
HETATM    9  C12 UNL     1      -0.791  52.060 -24.865  1.00  0.00     0.052 A 
HETATM   10  C13 UNL     1      -1.826  51.212 -24.471  1.00  0.00     0.107 A 
HETATM   11  N6  UNL     1      -2.733  50.758 -25.378  1.00  0.00    -0.351 N 
ATOM     12  H6  UNL     1      -3.494  50.149 -25.077  1.00  0.00     0.166 HD
HETATM   13  H10 UNL     1       0.745  53.645 -27.159  1.00  0.00     0.187 HD
HETATM   14  H11 UNL     1       1.425  53.416 -22.783  1.00  0.00     0.161 HD
ENDROOT
BRANCH   1  15
HETATM   15  N2  UNL     1      -3.635  50.573 -27.475  1.00  0.00    -0.295 N 
HETATM   16  C4  UNL     1      -3.787  49.279 -27.889  1.00  0.00     0.322 C 
HETATM   17  N1  UNL     1      -4.872  49.143 -28.721  1.00  0.00    -0.332 N 
HETATM   18  O2  UNL     1      -3.080  48.329 -27.580  1.00  0.00    -0.247 OA
HETATM   19  H7  UNL     1      -5.207  49.968 -29.197  1.00  0.00     0.165 HD
HETATM   20  H8  UNL     1      -4.386  51.224 -27.642  1.00  0.00     0.172 HD
BRANCH  17  21
HETATM   21  C3  UNL     1      -5.216  47.855 -29.324  1.00  0.00     0.143 C 
BRANCH  21  22
HETATM   22  C2  UNL     1      -5.581  48.024 -30.827  1.00  0.00     0.197 C 
BRANCH  22  23
HETATM   23  O1  UNL     1      -4.455  48.100 -31.708  1.00  0.00    -0.394 OA
HETATM   24  C1  UNL     1      -4.706  47.534 -32.987  1.00  0.00     0.201 C 
ENDBRANCH  22  23
ENDBRANCH  21  22
BRANCH  21  25
HETATM   25  C14 UNL     1      -6.272  47.193 -28.448  1.00  0.00    -0.033 A 
HETATM   26  C15 UNL     1      -6.938  46.055 -28.942  1.00  0.00     0.009 A 
HETATM   27  C16 UNL     1      -7.897  45.390 -28.174  1.00  0.00     0.001 A 
HETATM   28  C17 UNL     1      -8.201  45.847 -26.897  1.00  0.00     0.000 A 
HETATM   29  C18 UNL     1      -7.550  46.968 -26.387  1.00  0.00     0.001 A 
HETATM   30  C19 UNL     1      -6.590  47.634 -27.155  1.00  0.00     0.009 A 
ENDBRANCH  21  25
ENDBRANCH  17  21
ENDBRANCH   1  15
BRANCH   8  31
HETATM   31  C9  UNL     1      -0.171  52.503 -21.833  1.00  0.00     0.130 C 
HETATM   32  C10 UNL     1       0.289  53.179 -20.536  1.00  0.00     0.195 C 
HETATM   33  O3  UNL     1       0.329  51.909 -19.840  1.00  0.00    -0.387 OA
HETATM   34  C11 UNL     1       0.141  51.198 -21.088  1.00  0.00     0.195 C 
ENDBRANCH   8  31
TORSDOF 6
ENDMDL
MODEL 6
REMARK minimizedAffinity -7.83674526
REMARK  6 active torsions:
REMARK  status: ('A' for Active; 'I' for Inactive)
REMARK    1  A    between atoms: O1_2  and  C2_3 
REMARK    2  A    between atoms: C2_3  and  C3_4 
REMARK    3  A    between atoms: C3_4  and  N1_5 
REMARK    4  A    between atoms: C3_4  and  C14_25 
REMARK       I    between atoms: N1_5  and  C4_6 
REMARK       I    between atoms: C4_6  and  N2_8 
REMARK    5  A    between atoms: N2_8  and  C5_9 
REMARK    6  A    between atoms: N5_16  and  C9_17 
ROOT
HETATM    1  C5  UNL     1       5.641  63.949 -35.584  1.00  0.00     0.111 A 
HETATM    2  C6  UNL     1       5.389  62.585 -35.531  1.00  0.00     0.080 A 
HETATM    3  C7  UNL     1       6.352  61.829 -34.864  1.00  0.00     0.067 A 
HETATM    4  N3  UNL     1       6.435  60.490 -34.610  1.00  0.00    -0.298 N 
HETATM    5  N4  UNL     1       7.534  60.129 -33.931  1.00  0.00    -0.284 N 
ATOM      6  H4  UNL     1       7.808  59.192 -33.637  1.00  0.00     0.188 HD
HETATM    7  C8  UNL     1       8.187  61.274 -33.728  1.00  0.00     0.130 A 
HETATM    8  N5  UNL     1       9.364  61.270 -33.063  1.00  0.00    -0.366 N 
HETATM    9  C12 UNL     1       7.490  62.384 -34.288  1.00  0.00     0.052 A 
HETATM   10  C13 UNL     1       7.654  63.766 -34.386  1.00  0.00     0.107 A 
HETATM   11  N6  UNL     1       6.734  64.528 -35.038  1.00  0.00    -0.351 N 
ATOM     12  H6  UNL     1       6.870  65.536 -35.115  1.00  0.00     0.166 HD
HETATM   13  H10 UNL     1       5.772  59.768 -34.873  1.00  0.00     0.187 HD
HETATM   14  H11 UNL     1       9.701  60.324 -32.891  1.00  0.00     0.161 HD
ENDROOT
BRANCH   1  15
HETATM   15  N2  UNL     1       4.801  64.863 -36.220  1.00  0.00    -0.295 N 
HETATM   16  C4  UNL     1       5.070  65.654 -37.302  1.00  0.00     0.322 C 
HETATM   17  N1  UNL     1       4.009  66.475 -37.601  1.00  0.00    -0.332 N 
HETATM   18  O2  UNL     1       6.105  65.662 -37.957  1.00  0.00    -0.247 OA
HETATM   19  H7  UNL     1       3.344  66.669 -36.867  1.00  0.00     0.165 HD
HETATM   20  H8  UNL     1       3.851  64.811 -35.885  1.00  0.00     0.172 HD
BRANCH  17  21
HETATM   21  C3  UNL     1       4.076  67.442 -38.696  1.00  0.00     0.143 C 
BRANCH  21  22
HETATM   22  C2  UNL     1       4.474  68.851 -38.171  1.00  0.00     0.197 C 
BRANCH  22  23
HETATM   23  O1  UNL     1       3.372  69.662 -37.748  1.00  0.00    -0.394 OA
HETATM   24  C1  UNL     1       3.215  69.700 -36.336  1.00  0.00     0.201 C 
ENDBRANCH  22  23
ENDBRANCH  21  22
BRANCH  21  25
HETATM   25  C14 UNL     1       2.768  67.361 -39.474  1.00  0.00    -0.033 A 
HETATM   26  C15 UNL     1       2.725  67.897 -40.775  1.00  0.00     0.009 A 
HETATM   27  C16 UNL     1       1.563  67.829 -41.546  1.00  0.00     0.001 A 
HETATM   28  C17 UNL     1       0.424  67.218 -41.032  1.00  0.00     0.000 A 
HETATM   29  C18 UNL     1       0.447  66.676 -39.749  1.00  0.00     0.001 A 
HETATM   30  C19 UNL     1       1.611  66.744 -38.977  1.00  0.00     0.009 A 
ENDBRANCH  21  25
ENDBRANCH  17  21
ENDBRANCH   1  15
BRANCH   8  31
HETATM   31  C9  UNL     1      10.410  62.246 -33.182  1.00  0.00     0.130 C 
HETATM   32  C10 UNL     1      11.401  62.260 -32.010  1.00  0.00     0.195 C 
HETATM   33  O3  UNL     1      11.134  63.660 -31.748  1.00  0.00    -0.387 OA
HETATM   34  C11 UNL     1      10.017  63.639 -32.670  1.00  0.00     0.195 C 
ENDBRANCH   8  31
TORSDOF 6
ENDMDL
MODEL 7
REMARK minimizedAffinity -7.8128171
REMARK  6 active torsions:
REMARK  status: ('A' for Active; 'I' for Inactive)
REMARK    1  A    between atoms: O1_2  and  C2_3 
REMARK    2  A    between atoms: C2_3  and  C3_4 
REMARK    3  A    between atoms: C3_4  and  N1_5 
REMARK    4  A    between atoms: C3_4  and  C14_25 
REMARK       I    between atoms: N1_5  and  C4_6 
REMARK       I    between atoms: C4_6  and  N2_8 
REMARK    5  A    between atoms: N2_8  and  C5_9 
REMARK    6  A    between atoms: N5_16  and  C9_17 
ROOT
HETATM    1  C5  UNL     1      -0.131  51.671 -19.034  1.00  0.00     0.111 A 
HETATM    2  C6  UNL     1       0.637  52.698 -18.501  1.00  0.00     0.080 A 
HETATM    3  C7  UNL     1       1.202  52.432 -17.255  1.00  0.00     0.067 A 
HETATM    4  N3  UNL     1       2.006  53.183 -16.447  1.00  0.00    -0.298 N 
HETATM    5  N4  UNL     1       2.348  52.576 -15.300  1.00  0.00    -0.284 N 
ATOM      6  H4  UNL     1       2.932  52.944 -14.548  1.00  0.00     0.188 HD
HETATM    7  C8  UNL     1       1.752  51.385 -15.366  1.00  0.00     0.130 A 
HETATM    8  N5  UNL     1       1.890  50.505 -14.349  1.00  0.00    -0.366 N 
HETATM    9  C12 UNL     1       1.018  51.230 -16.577  1.00  0.00     0.052 A 
HETATM   10  C13 UNL     1       0.235  50.255 -17.195  1.00  0.00     0.107 A 
HETATM   11  N6  UNL     1      -0.335  50.490 -18.408  1.00  0.00    -0.351 N 
ATOM     12  H6  UNL     1      -0.916  49.775 -18.846  1.00  0.00     0.166 HD
HETATM   13  H10 UNL     1       2.359  54.118 -16.621  1.00  0.00     0.187 HD
HETATM   14  H11 UNL     1       2.357  50.924 -13.545  1.00  0.00     0.161 HD
ENDROOT
BRANCH   1  15
HETATM   15  N2  UNL     1      -0.787  51.758 -20.262  1.00  0.00    -0.295 N 
HETATM   16  C4  UNL     1      -0.272  51.572 -21.514  1.00  0.00     0.322 C 
HETATM   17  N1  UNL     1      -1.216  51.807 -22.485  1.00  0.00    -0.332 N 
HETATM   18  O2  UNL     1       0.872  51.232 -21.787  1.00  0.00    -0.247 OA
HETATM   19  H7  UNL     1      -2.007  52.385 -22.242  1.00  0.00     0.165 HD
HETATM   20  H8  UNL     1      -1.786  51.849 -20.160  1.00  0.00     0.172 HD
BRANCH  17  21
HETATM   21  C3  UNL     1      -0.890  51.709 -23.908  1.00  0.00     0.143 C 
BRANCH  21  22
HETATM   22  C2  UNL     1      -1.008  53.096 -24.602  1.00  0.00     0.197 C 
BRANCH  22  23
HETATM   23  O1  UNL     1       0.183  53.532 -25.267  1.00  0.00    -0.394 OA
HETATM   24  C1  UNL     1       0.039  53.609 -26.679  1.00  0.00     0.201 C 
ENDBRANCH  22  23
ENDBRANCH  21  22
BRANCH  21  25
HETATM   25  C14 UNL     1      -1.729  50.586 -24.506  1.00  0.00    -0.033 A 
HETATM   26  C15 UNL     1      -1.698  50.394 -25.900  1.00  0.00     0.009 A 
HETATM   27  C16 UNL     1      -2.425  49.365 -26.504  1.00  0.00     0.001 A 
HETATM   28  C17 UNL     1      -3.190  48.506 -25.721  1.00  0.00     0.000 A 
HETATM   29  C18 UNL     1      -3.230  48.676 -24.339  1.00  0.00     0.001 A 
HETATM   30  C19 UNL     1      -2.502  49.706 -23.736  1.00  0.00     0.009 A 
ENDBRANCH  21  25
ENDBRANCH  17  21
ENDBRANCH   1  15
BRANCH   8  31
HETATM   31  C9  UNL     1       0.976  49.453 -14.007  1.00  0.00     0.130 C 
HETATM   32  C10 UNL     1       0.795  48.390 -15.098  1.00  0.00     0.195 C 
HETATM   33  O3  UNL     1      -0.636  48.617 -15.139  1.00  0.00    -0.387 OA
HETATM   34  C11 UNL     1      -0.493  49.790 -14.301  1.00  0.00     0.195 C 
ENDBRANCH   8  31
TORSDOF 6
ENDMDL
MODEL 8
REMARK minimizedAffinity -7.72460651
REMARK  6 active torsions:
REMARK  status: ('A' for Active; 'I' for Inactive)
REMARK    1  A    between atoms: O1_2  and  C2_3 
REMARK    2  A    between atoms: C2_3  and  C3_4 
REMARK    3  A    between atoms: C3_4  and  N1_5 
REMARK    4  A    between atoms: C3_4  and  C14_25 
REMARK       I    between atoms: N1_5  and  C4_6 
REMARK       I    between atoms: C4_6  and  N2_8 
REMARK    5  A    between atoms: N2_8  and  C5_9 
REMARK    6  A    between atoms: N5_16  and  C9_17 
ROOT
HETATM    1  C5  UNL     1       9.474  62.651 -34.598  1.00  0.00     0.111 A 
HETATM    2  C6  UNL     1       8.783  61.447 -34.566  1.00  0.00     0.080 A 
HETATM    3  C7  UNL     1       7.399  61.560 -34.442  1.00  0.00     0.067 A 
HETATM    4  N3  UNL     1       6.415  60.614 -34.387  1.00  0.00    -0.298 N 
HETATM    5  N4  UNL     1       5.179  61.119 -34.258  1.00  0.00    -0.284 N 
ATOM      6  H4  UNL     1       4.299  60.608 -34.192  1.00  0.00     0.188 HD
HETATM    7  C8  UNL     1       5.363  62.440 -34.235  1.00  0.00     0.130 A 
HETATM    8  N5  UNL     1       4.300  63.266 -34.107  1.00  0.00    -0.366 N 
HETATM    9  C12 UNL     1       6.741  62.782 -34.352  1.00  0.00     0.052 A 
HETATM   10  C13 UNL     1       7.520  63.939 -34.400  1.00  0.00     0.107 A 
HETATM   11  N6  UNL     1       8.873  63.858 -34.513  1.00  0.00    -0.351 N 
ATOM     12  H6  UNL     1       9.434  64.710 -34.535  1.00  0.00     0.166 HD
HETATM   13  H10 UNL     1       6.522  59.607 -34.435  1.00  0.00     0.187 HD
HETATM   14  H11 UNL     1       3.442  62.753 -33.906  1.00  0.00     0.161 HD
ENDROOT
BRANCH   1  15
HETATM   15  N2  UNL     1      10.862  62.739 -34.703  1.00  0.00    -0.295 N 
HETATM   16  C4  UNL     1      11.619  62.928 -35.825  1.00  0.00     0.322 C 
HETATM   17  N1  UNL     1      12.962  62.895 -35.538  1.00  0.00    -0.332 N 
HETATM   18  O2  UNL     1      11.200  63.115 -36.961  1.00  0.00    -0.247 OA
HETATM   19  H7  UNL     1      13.251  62.423 -34.693  1.00  0.00     0.165 HD
HETATM   20  H8  UNL     1      11.315  62.787 -33.803  1.00  0.00     0.172 HD
BRANCH  17  21
HETATM   21  C3  UNL     1      13.972  63.035 -36.586  1.00  0.00     0.143 C 
BRANCH  21  22
HETATM   22  C2  UNL     1      13.485  64.000 -37.704  1.00  0.00     0.197 C 
BRANCH  22  23
HETATM   23  O1  UNL     1      13.994  65.335 -37.602  1.00  0.00    -0.394 OA
HETATM   24  C1  UNL     1      15.410  65.387 -37.497  1.00  0.00     0.201 C 
ENDBRANCH  22  23
ENDBRANCH  21  22
BRANCH  21  25
HETATM   25  C14 UNL     1      14.378  61.637 -37.037  1.00  0.00    -0.033 A 
HETATM   26  C15 UNL     1      13.625  61.013 -38.050  1.00  0.00     0.009 A 
HETATM   27  C16 UNL     1      13.964  59.743 -38.523  1.00  0.00     0.001 A 
HETATM   28  C17 UNL     1      15.065  59.078 -37.995  1.00  0.00     0.000 A 
HETATM   29  C18 UNL     1      15.827  59.680 -36.996  1.00  0.00     0.001 A 
HETATM   30  C19 UNL     1      15.487  60.951 -36.523  1.00  0.00     0.009 A 
ENDBRANCH  21  25
ENDBRANCH  17  21
ENDBRANCH   1  15
BRANCH   8  31
HETATM   31  C9  UNL     1       4.319  64.599 -33.575  1.00  0.00     0.130 C 
HETATM   32  C10 UNL     1       5.718  65.124 -33.228  1.00  0.00     0.195 C 
HETATM   33  O3  UNL     1       5.329  65.372 -31.855  1.00  0.00    -0.387 OA
HETATM   34  C11 UNL     1       4.083  64.662 -32.059  1.00  0.00     0.195 C 
ENDBRANCH   8  31
TORSDOF 6
ENDMDL
MODEL 9
REMARK minimizedAffinity -7.68535423
REMARK  6 active torsions:
REMARK  status: ('A' for Active; 'I' for Inactive)
REMARK    1  A    between atoms: O1_2  and  C2_3 
REMARK    2  A    between atoms: C2_3  and  C3_4 
REMARK    3  A    between atoms: C3_4  and  N1_5 
REMARK    4  A    between atoms: C3_4  and  C14_25 
REMARK       I    between atoms: N1_5  and  C4_6 
REMARK       I    between atoms: C4_6  and  N2_8 
REMARK    5  A    between atoms: N2_8  and  C5_9 
REMARK    6  A    between atoms: N5_16  and  C9_17 
ROOT
HETATM    1  C5  UNL     1      -3.906  48.805 -26.466  1.00  0.00     0.111 A 
HETATM    2  C6  UNL     1      -3.857  48.644 -27.843  1.00  0.00     0.080 A 
HETATM    3  C7  UNL     1      -5.002  48.094 -28.418  1.00  0.00     0.067 A 
HETATM    4  N3  UNL     1      -5.314  47.804 -29.715  1.00  0.00    -0.298 N 
HETATM    5  N4  UNL     1      -6.532  47.268 -29.878  1.00  0.00    -0.284 N 
ATOM      6  H4  UNL     1      -6.974  46.970 -30.748  1.00  0.00     0.188 HD
HETATM    7  C8  UNL     1      -7.037  47.214 -28.645  1.00  0.00     0.130 A 
HETATM    8  N5  UNL     1      -8.276  46.711 -28.444  1.00  0.00    -0.366 N 
HETATM    9  C12 UNL     1      -6.122  47.725 -27.679  1.00  0.00     0.052 A 
HETATM   10  C13 UNL     1      -6.081  47.932 -26.300  1.00  0.00     0.107 A 
HETATM   11  N6  UNL     1      -4.974  48.460 -25.711  1.00  0.00    -0.351 N 
ATOM     12  H6  UNL     1      -4.949  48.595 -24.701  1.00  0.00     0.166 HD
HETATM   13  H10 UNL     1      -4.738  47.949 -30.538  1.00  0.00     0.187 HD
HETATM   14  H11 UNL     1      -8.657  46.292 -29.291  1.00  0.00     0.161 HD
ENDROOT
BRANCH   1  15
HETATM   15  N2  UNL     1      -2.853  49.325 -25.713  1.00  0.00    -0.295 N 
HETATM   16  C4  UNL     1      -2.401  50.614 -25.661  1.00  0.00     0.322 C 
HETATM   17  N1  UNL     1      -1.297  50.727 -24.851  1.00  0.00    -0.332 N 
HETATM   18  O2  UNL     1      -2.888  51.579 -26.237  1.00  0.00    -0.247 OA
HETATM   19  H7  UNL     1      -0.753  49.895 -24.678  1.00  0.00     0.165 HD
HETATM   20  H8  UNL     1      -2.488  48.659 -25.050  1.00  0.00     0.172 HD
BRANCH  17  21
HETATM   21  C3  UNL     1      -0.610  52.006 -24.669  1.00  0.00     0.143 C 
BRANCH  21  22
HETATM   22  C2  UNL     1       0.558  52.160 -25.683  1.00  0.00     0.197 C 
BRANCH  22  23
HETATM   23  O1  UNL     1       0.686  53.468 -26.251  1.00  0.00    -0.394 OA
HETATM   24  C1  UNL     1      -0.126  53.661 -27.401  1.00  0.00     0.201 C 
ENDBRANCH  22  23
ENDBRANCH  21  22
BRANCH  21  25
HETATM   25  C14 UNL     1      -0.241  52.135 -23.196  1.00  0.00    -0.033 A 
HETATM   26  C15 UNL     1      -0.828  51.246 -22.276  1.00  0.00     0.009 A 
HETATM   27  C16 UNL     1      -0.509  51.298 -20.917  1.00  0.00     0.001 A 
HETATM   28  C17 UNL     1       0.408  52.237 -20.456  1.00  0.00     0.000 A 
HETATM   29  C18 UNL     1       1.005  53.122 -21.351  1.00  0.00     0.001 A 
HETATM   30  C19 UNL     1       0.685  53.069 -22.711  1.00  0.00     0.009 A 
ENDBRANCH  21  25
ENDBRANCH  17  21
ENDBRANCH   1  15
BRANCH   8  31
HETATM   31  C9  UNL     1      -8.768  46.122 -27.231  1.00  0.00     0.130 C 
HETATM   32  C10 UNL     1      -9.908  45.116 -27.432  1.00  0.00     0.195 C 
HETATM   33  O3  UNL     1     -10.780  45.866 -26.551  1.00  0.00    -0.387 OA
HETATM   34  C11 UNL     1      -9.838  46.966 -26.525  1.00  0.00     0.195 C 
ENDBRANCH   8  31
TORSDOF 6
ENDMDL
