MODEL 1
REMARK minimizedAffinity -10.2201529
REMARK CNNscore 0.638525784
REMARK CNNaffinity 7.27216101
REMARK  8 active torsions:
REMARK  status: ('A' for Active; 'I' for Inactive)
REMARK    1  A    between atoms: C1_2  and  C2_3 
REMARK       I    between atoms: C1_2  and  N5_28 
REMARK    2  A    between atoms: C2_3  and  N1_4 
REMARK    3  A    between atoms: C5_7  and  C6_8 
REMARK    4  A    between atoms: C6_8  and  N2_9 
REMARK    5  A    between atoms: N2_9  and  C7_10 
REMARK    6  A    between atoms: C11_17  and  C12_18 
REMARK    7  A    between atoms: N6_31  and  C23_32 
REMARK    8  A    between atoms: C26_35  and  C27_36 
ROOT
HETATM    1  N1  UNL     1      -3.725  48.996 -21.200  1.00  0.00     0.097 N 
HETATM    2  C3  UNL     1      -3.399  47.863 -22.076  1.00  0.00     0.273 C 
HETATM    3  C4  UNL     1      -2.098  47.263 -21.542  1.00  0.00     0.038 C 
HETATM    4  C5  UNL     1      -1.637  48.212 -20.438  1.00  0.00     0.029 C 
HETATM    5  C20 UNL     1      -2.963  48.800 -19.958  1.00  0.00     0.279 C 
ENDROOT
BRANCH   1   6
HETATM    6  C2  UNL     1      -5.178  49.086 -20.961  1.00  0.00     0.374 C 
BRANCH   6   7
HETATM    7  C1  UNL     1      -5.904  47.803 -21.404  1.00  0.00     0.248 C 
HETATM    8  O1  UNL     1      -5.360  47.032 -22.201  1.00  0.00    -0.271 OA
HETATM    9  N5  UNL     1      -7.164  47.549 -20.886  1.00  0.00    -0.348 N 
HETATM   10  C21 UNL     1      -7.856  48.410 -19.921  1.00  0.00     0.145 C 
HETATM   11  C34 UNL     1      -7.901  46.365 -21.326  1.00  0.00     0.145 C 
HETATM   12  C22 UNL     1      -9.220  47.857 -19.450  1.00  0.00     0.143 C 
HETATM   13  N6  UNL     1     -10.047  47.451 -20.599  1.00  0.00    -0.378 N 
HETATM   14  C33 UNL     1      -9.364  46.695 -21.673  1.00  0.00     0.143 C 
BRANCH  13  15
HETATM   15  C23 UNL     1     -11.433  47.372 -20.513  1.00  0.00     0.030 A 
HETATM   16  C24 UNL     1     -12.209  48.331 -19.851  1.00  0.00     0.030 A 
HETATM   17  C25 UNL     1     -13.610  48.231 -19.766  1.00  0.00     0.017 A 
HETATM   18  C26 UNL     1     -14.309  47.161 -20.348  1.00  0.00     0.008 A 
HETATM   19  C31 UNL     1     -13.536  46.211 -21.029  1.00  0.00     0.017 A 
HETATM   20  C32 UNL     1     -12.138  46.317 -21.108  1.00  0.00     0.030 A 
BRANCH  18  21
HETATM   21  C27 UNL     1     -15.776  47.033 -20.238  1.00  0.00     0.115 A 
HETATM   22  N7  UNL     1     -16.436  46.433 -21.253  1.00  0.00    -0.352 N 
HETATM   23  C28 UNL     1     -17.775  46.367 -21.142  1.00  0.00     0.091 A 
ATOM     24  H7  UNL     1     -15.944  46.049 -22.061  1.00  0.00     0.166 HD
HETATM   25  C29 UNL     1     -18.477  46.868 -20.073  1.00  0.00     0.034 A 
HETATM   26  C30 UNL     1     -17.717  47.451 -19.088  1.00  0.00     0.091 A 
HETATM   27  N8  UNL     1     -16.376  47.546 -19.141  1.00  0.00    -0.352 N 
ATOM     28  H8  UNL     1     -15.840  47.983 -18.392  1.00  0.00     0.166 HD
ENDBRANCH  18  21
ENDBRANCH  13  15
ENDBRANCH   6   7
ENDBRANCH   1   6
BRANCH   4  29
HETATM   29  C6  UNL     1      -0.680  49.310 -20.941  1.00  0.00     0.099 C 
BRANCH  29  30
HETATM   30  N2  UNL     1      -0.859  50.572 -20.213  1.00  0.00    -0.293 NA
HETATM   31  H10 UNL     1      -1.839  50.756 -20.010  1.00  0.00     0.127 HD
BRANCH  30  32
HETATM   32  C7  UNL     1      -0.185  51.722 -20.641  1.00  0.00     0.009 A 
HETATM   33  C8  UNL     1       0.292  52.694 -19.753  1.00  0.00     0.026 A 
HETATM   34  C9  UNL     1       0.955  53.851 -20.191  1.00  0.00     0.034 A 
HETATM   35  C10 UNL     1       1.112  54.011 -21.570  1.00  0.00     0.060 A 
HETATM   36  N3  UNL     1       1.711  54.990 -22.312  1.00  0.00    -0.299 N 
HETATM   37  C18 UNL     1       0.626  53.100 -22.496  1.00  0.00     0.023 A 
HETATM   38  N4  UNL     1       1.685  54.777 -23.637  1.00  0.00    -0.299 N 
HETATM   39  H13 UNL     1       2.168  55.826 -21.970  1.00  0.00     0.187 HD
HETATM   40  C11 UNL     1       0.997  53.630 -23.772  1.00  0.00     0.070 A 
ATOM     41  H4  UNL     1       2.093  55.353 -24.373  1.00  0.00     0.187 HD
HETATM   42  C19 UNL     1      -0.042  51.950 -22.022  1.00  0.00     0.039 A 
BRANCH  40  43
HETATM   43  C12 UNL     1       0.740  53.057 -25.090  1.00  0.00    -0.007 A 
HETATM   44  C13 UNL     1       1.338  51.847 -25.472  1.00  0.00     0.017 A 
HETATM   45  C14 UNL     1       1.103  51.317 -26.742  1.00  0.00     0.043 A 
HETATM   46  C15 UNL     1       0.271  51.995 -27.625  1.00  0.00     0.116 A 
HETATM   47  F1  UNL     1       0.057  51.492 -28.849  1.00  0.00    -0.206 F 
HETATM   48  C16 UNL     1      -0.338  53.191 -27.261  1.00  0.00     0.043 A 
HETATM   49  C17 UNL     1      -0.109  53.720 -25.989  1.00  0.00     0.017 A 
ENDBRANCH  40  43
ENDBRANCH  30  32
ENDBRANCH  29  30
ENDBRANCH   4  29
TORSDOF 8
ENDMDL
MODEL 2
REMARK minimizedAffinity -10.5059919
REMARK CNNscore 0.459076256
REMARK CNNaffinity 7.64357567
REMARK  8 active torsions:
REMARK  status: ('A' for Active; 'I' for Inactive)
REMARK    1  A    between atoms: C1_2  and  C2_3 
REMARK       I    between atoms: C1_2  and  N5_28 
REMARK    2  A    between atoms: C2_3  and  N1_4 
REMARK    3  A    between atoms: C5_7  and  C6_8 
REMARK    4  A    between atoms: C6_8  and  N2_9 
REMARK    5  A    between atoms: N2_9  and  C7_10 
REMARK    6  A    between atoms: C11_17  and  C12_18 
REMARK    7  A    between atoms: N6_31  and  C23_32 
REMARK    8  A    between atoms: C26_35  and  C27_36 
ROOT
HETATM    1  N1  UNL     1      -3.975  49.874 -22.676  1.00  0.00     0.097 N 
HETATM    2  C3  UNL     1      -3.043  48.782 -22.361  1.00  0.00     0.273 C 
HETATM    3  C4  UNL     1      -2.974  48.699 -20.837  1.00  0.00     0.038 C 
HETATM    4  C5  UNL     1      -3.777  49.895 -20.329  1.00  0.00     0.029 C 
HETATM    5  C20 UNL     1      -4.775  50.106 -21.466  1.00  0.00     0.279 C 
ENDROOT
BRANCH   1   6
HETATM    6  C2  UNL     1      -4.809  49.543 -23.848  1.00  0.00     0.374 C 
BRANCH   6   7
HETATM    7  C1  UNL     1      -3.948  49.264 -25.093  1.00  0.00     0.248 C 
HETATM    8  O1  UNL     1      -2.775  49.649 -25.129  1.00  0.00    -0.271 OA
HETATM    9  N5  UNL     1      -4.525  48.577 -26.150  1.00  0.00    -0.348 N 
HETATM   10  C21 UNL     1      -5.902  48.072 -26.161  1.00  0.00     0.145 C 
HETATM   11  C34 UNL     1      -3.750  48.341 -27.367  1.00  0.00     0.145 C 
HETATM   12  C22 UNL     1      -6.270  47.277 -27.435  1.00  0.00     0.143 C 
HETATM   13  N6  UNL     1      -5.888  48.022 -28.647  1.00  0.00    -0.378 N 
HETATM   14  C33 UNL     1      -4.558  48.670 -28.635  1.00  0.00     0.143 C 
BRANCH  13  15
HETATM   15  C23 UNL     1      -6.499  47.785 -29.873  1.00  0.00     0.030 A 
HETATM   16  C24 UNL     1      -7.358  48.704 -30.486  1.00  0.00     0.030 A 
HETATM   17  C25 UNL     1      -7.974  48.444 -31.724  1.00  0.00     0.017 A 
HETATM   18  C26 UNL     1      -7.754  47.243 -32.418  1.00  0.00     0.008 A 
HETATM   19  C31 UNL     1      -6.877  46.330 -31.818  1.00  0.00     0.017 A 
HETATM   20  C32 UNL     1      -6.268  46.596 -30.581  1.00  0.00     0.030 A 
BRANCH  18  21
HETATM   21  C27 UNL     1      -8.420  46.950 -33.704  1.00  0.00     0.115 A 
HETATM   22  N7  UNL     1      -8.017  47.638 -34.794  1.00  0.00    -0.352 N 
HETATM   23  C28 UNL     1      -8.670  47.378 -35.942  1.00  0.00     0.091 A 
ATOM     24  H7  UNL     1      -7.259  48.319 -34.751  1.00  0.00     0.166 HD
HETATM   25  C29 UNL     1      -9.695  46.470 -36.047  1.00  0.00     0.034 A 
HETATM   26  C30 UNL     1     -10.024  45.814 -34.885  1.00  0.00     0.091 A 
HETATM   27  N8  UNL     1      -9.409  46.030 -33.708  1.00  0.00    -0.352 N 
ATOM     28  H8  UNL     1      -9.676  45.525 -32.864  1.00  0.00     0.166 HD
ENDBRANCH  18  21
ENDBRANCH  13  15
ENDBRANCH   6   7
ENDBRANCH   1   6
BRANCH   4  29
HETATM   29  C6  UNL     1      -2.914  51.149 -20.091  1.00  0.00     0.099 C 
BRANCH  29  30
HETATM   30  N2  UNL     1      -1.486  50.884 -20.303  1.00  0.00    -0.293 NA
HETATM   31  H10 UNL     1      -1.086  50.337 -19.544  1.00  0.00     0.127 HD
BRANCH  30  32
HETATM   32  C7  UNL     1      -0.639  51.923 -20.707  1.00  0.00     0.009 A 
HETATM   33  C8  UNL     1      -0.070  52.830 -19.804  1.00  0.00     0.026 A 
HETATM   34  C9  UNL     1       0.767  53.877 -20.219  1.00  0.00     0.034 A 
HETATM   35  C10 UNL     1       1.005  53.998 -21.590  1.00  0.00     0.060 A 
HETATM   36  N3  UNL     1       1.765  54.874 -22.311  1.00  0.00    -0.299 N 
HETATM   37  C18 UNL     1       0.435  53.153 -22.532  1.00  0.00     0.023 A 
HETATM   38  N4  UNL     1       1.767  54.652 -23.634  1.00  0.00    -0.299 N 
HETATM   39  H13 UNL     1       2.320  55.643 -21.954  1.00  0.00     0.187 HD
HETATM   40  C11 UNL     1       0.931  53.611 -23.793  1.00  0.00     0.070 A 
ATOM     41  H4  UNL     1       2.283  55.157 -24.355  1.00  0.00     0.187 HD
HETATM   42  C19 UNL     1      -0.407  52.113 -22.082  1.00  0.00     0.039 A 
BRANCH  40  43
HETATM   43  C12 UNL     1       0.653  53.065 -25.119  1.00  0.00    -0.007 A 
HETATM   44  C13 UNL     1       0.936  51.722 -25.411  1.00  0.00     0.017 A 
HETATM   45  C14 UNL     1       0.685  51.213 -26.687  1.00  0.00     0.043 A 
HETATM   46  C15 UNL     1       0.153  52.045 -27.665  1.00  0.00     0.116 A 
HETATM   47  F1  UNL     1      -0.074  51.559 -28.893  1.00  0.00    -0.206 F 
HETATM   48  C16 UNL     1      -0.142  53.376 -27.390  1.00  0.00     0.043 A 
HETATM   49  C17 UNL     1       0.101  53.886 -26.113  1.00  0.00     0.017 A 
ENDBRANCH  40  43
ENDBRANCH  30  32
ENDBRANCH  29  30
ENDBRANCH   4  29
TORSDOF 8
ENDMDL
MODEL 3
REMARK minimizedAffinity -10.0470867
REMARK CNNscore 0.424833983
REMARK CNNaffinity 7.17101145
REMARK  8 active torsions:
REMARK  status: ('A' for Active; 'I' for Inactive)
REMARK    1  A    between atoms: C1_2  and  C2_3 
REMARK       I    between atoms: C1_2  and  N5_28 
REMARK    2  A    between atoms: C2_3  and  N1_4 
REMARK    3  A    between atoms: C5_7  and  C6_8 
REMARK    4  A    between atoms: C6_8  and  N2_9 
REMARK    5  A    between atoms: N2_9  and  C7_10 
REMARK    6  A    between atoms: C11_17  and  C12_18 
REMARK    7  A    between atoms: N6_31  and  C23_32 
REMARK    8  A    between atoms: C26_35  and  C27_36 
ROOT
HETATM    1  N1  UNL     1      -3.596  49.401 -21.057  1.00  0.00     0.097 N 
HETATM    2  C3  UNL     1      -3.472  48.324 -22.049  1.00  0.00     0.273 C 
HETATM    3  C4  UNL     1      -2.253  47.498 -21.642  1.00  0.00     0.038 C 
HETATM    4  C5  UNL     1      -1.616  48.259 -20.481  1.00  0.00     0.029 C 
HETATM    5  C20 UNL     1      -2.823  48.979 -19.880  1.00  0.00     0.279 C 
ENDROOT
BRANCH   1   6
HETATM    6  C2  UNL     1      -5.010  49.671 -20.735  1.00  0.00     0.374 C 
BRANCH   6   7
HETATM    7  C1  UNL     1      -5.878  48.410 -20.897  1.00  0.00     0.248 C 
HETATM    8  O1  UNL     1      -5.796  47.497 -20.069  1.00  0.00    -0.271 OA
HETATM    9  N5  UNL     1      -6.735  48.338 -21.983  1.00  0.00    -0.348 N 
HETATM   10  C21 UNL     1      -6.897  49.394 -22.988  1.00  0.00     0.145 C 
HETATM   11  C34 UNL     1      -7.535  47.131 -22.194  1.00  0.00     0.145 C 
HETATM   12  C22 UNL     1      -7.973  49.089 -24.054  1.00  0.00     0.143 C 
HETATM   13  N6  UNL     1      -7.787  47.741 -24.618  1.00  0.00    -0.378 N 
HETATM   14  C33 UNL     1      -7.484  46.657 -23.657  1.00  0.00     0.143 C 
BRANCH  13  15
HETATM   15  C23 UNL     1      -8.284  47.397 -25.870  1.00  0.00     0.030 A 
HETATM   16  C24 UNL     1      -7.461  47.171 -26.979  1.00  0.00     0.030 A 
HETATM   17  C25 UNL     1      -7.982  46.832 -28.241  1.00  0.00     0.017 A 
HETATM   18  C26 UNL     1      -9.363  46.695 -28.456  1.00  0.00     0.008 A 
HETATM   19  C31 UNL     1     -10.188  46.899 -27.342  1.00  0.00     0.017 A 
HETATM   20  C32 UNL     1      -9.660  47.239 -26.086  1.00  0.00     0.030 A 
BRANCH  18  21
HETATM   21  C27 UNL     1      -9.919  46.368 -29.784  1.00  0.00     0.115 A 
HETATM   22  N7  UNL     1     -10.462  45.143 -29.958  1.00  0.00    -0.352 N 
HETATM   23  C28 UNL     1     -10.923  44.860 -31.190  1.00  0.00     0.091 A 
ATOM     24  H7  UNL     1     -10.518  44.467 -29.195  1.00  0.00     0.166 HD
HETATM   25  C29 UNL     1     -10.869  45.738 -32.244  1.00  0.00     0.034 A 
HETATM   26  C30 UNL     1     -10.309  46.962 -31.966  1.00  0.00     0.091 A 
HETATM   27  N8  UNL     1      -9.830  47.303 -30.756  1.00  0.00    -0.352 N 
ATOM     28  H8  UNL     1      -9.422  48.221 -30.581  1.00  0.00     0.166 HD
ENDBRANCH  18  21
ENDBRANCH  13  15
ENDBRANCH   6   7
ENDBRANCH   1   6
BRANCH   4  29
HETATM   29  C6  UNL     1      -0.530  49.255 -20.931  1.00  0.00     0.099 C 
BRANCH  29  30
HETATM   30  N2  UNL     1      -0.475  50.439 -20.064  1.00  0.00    -0.293 NA
HETATM   31  H10 UNL     1      -1.361  50.603 -19.592  1.00  0.00     0.127 HD
BRANCH  30  32
HETATM   32  C7  UNL     1       0.094  51.625 -20.544  1.00  0.00     0.009 A 
HETATM   33  C8  UNL     1       0.555  52.640 -19.697  1.00  0.00     0.026 A 
HETATM   34  C9  UNL     1       1.112  53.832 -20.186  1.00  0.00     0.034 A 
HETATM   35  C10 UNL     1       1.177  53.982 -21.573  1.00  0.00     0.060 A 
HETATM   36  N3  UNL     1       1.663  54.987 -22.360  1.00  0.00    -0.299 N 
HETATM   37  C18 UNL     1       0.699  53.027 -22.459  1.00  0.00     0.023 A 
HETATM   38  N4  UNL     1       1.573  54.754 -23.678  1.00  0.00    -0.299 N 
HETATM   39  H13 UNL     1       2.082  55.857 -22.055  1.00  0.00     0.187 HD
HETATM   40  C11 UNL     1       0.958  53.562 -23.760  1.00  0.00     0.070 A 
ATOM     41  H4  UNL     1       1.898  55.345 -24.444  1.00  0.00     0.187 HD
HETATM   42  C19 UNL     1       0.139  51.842 -21.934  1.00  0.00     0.039 A 
BRANCH  40  43
HETATM   43  C12 UNL     1       0.662  52.954 -25.055  1.00  0.00    -0.007 A 
HETATM   44  C13 UNL     1       1.510  51.976 -25.595  1.00  0.00     0.017 A 
HETATM   45  C14 UNL     1       1.231  51.415 -26.843  1.00  0.00     0.043 A 
HETATM   46  C15 UNL     1       0.106  51.831 -27.545  1.00  0.00     0.116 A 
HETATM   47  F1  UNL     1      -0.153  51.302 -28.749  1.00  0.00    -0.206 F 
HETATM   48  C16 UNL     1      -0.751  52.793 -27.021  1.00  0.00     0.043 A 
HETATM   49  C17 UNL     1      -0.477  53.350 -25.771  1.00  0.00     0.017 A 
ENDBRANCH  40  43
ENDBRANCH  30  32
ENDBRANCH  29  30
ENDBRANCH   4  29
TORSDOF 8
ENDMDL
MODEL 4
REMARK minimizedAffinity -10.1919842
REMARK CNNscore 0.254867196
REMARK CNNaffinity 6.35506964
REMARK  8 active torsions:
REMARK  status: ('A' for Active; 'I' for Inactive)
REMARK    1  A    between atoms: C1_2  and  C2_3 
REMARK       I    between atoms: C1_2  and  N5_28 
REMARK    2  A    between atoms: C2_3  and  N1_4 
REMARK    3  A    between atoms: C5_7  and  C6_8 
REMARK    4  A    between atoms: C6_8  and  N2_9 
REMARK    5  A    between atoms: N2_9  and  C7_10 
REMARK    6  A    between atoms: C11_17  and  C12_18 
REMARK    7  A    between atoms: N6_31  and  C23_32 
REMARK    8  A    between atoms: C26_35  and  C27_36 
ROOT
HETATM    1  N1  UNL     1      -0.093  51.149 -15.111  1.00  0.00     0.097 N 
HETATM    2  C3  UNL     1      -0.470  49.729 -15.102  1.00  0.00     0.273 C 
HETATM    3  C4  UNL     1      -0.086  49.170 -16.472  1.00  0.00     0.038 C 
HETATM    4  C5  UNL     1       0.365  50.377 -17.290  1.00  0.00     0.029 C 
HETATM    5  C20 UNL     1       0.879  51.318 -16.201  1.00  0.00     0.279 C 
ENDROOT
BRANCH   1   6
HETATM    6  C2  UNL     1       0.449  51.566 -13.804  1.00  0.00     0.374 C 
BRANCH   6   7
HETATM    7  C1  UNL     1      -0.624  52.255 -12.941  1.00  0.00     0.248 C 
HETATM    8  O1  UNL     1      -1.763  52.416 -13.391  1.00  0.00    -0.271 OA
HETATM    9  N5  UNL     1      -0.273  52.677 -11.669  1.00  0.00    -0.348 N 
HETATM   10  C21 UNL     1       1.053  52.496 -11.069  1.00  0.00     0.145 C 
HETATM   11  C34 UNL     1      -1.254  53.380 -10.845  1.00  0.00     0.145 C 
HETATM   12  C22 UNL     1       1.156  52.994  -9.610  1.00  0.00     0.143 C 
HETATM   13  N6  UNL     1       0.615  54.358  -9.481  1.00  0.00    -0.378 N 
HETATM   14  C33 UNL     1      -0.657  54.636 -10.185  1.00  0.00     0.143 C 
BRANCH  13  15
HETATM   15  C23 UNL     1       0.995  55.201  -8.443  1.00  0.00     0.030 A 
HETATM   16  C24 UNL     1       2.253  55.136  -7.831  1.00  0.00     0.030 A 
HETATM   17  C25 UNL     1       2.617  55.992  -6.775  1.00  0.00     0.017 A 
HETATM   18  C26 UNL     1       1.736  56.967  -6.280  1.00  0.00     0.008 A 
HETATM   19  C31 UNL     1       0.485  57.049  -6.904  1.00  0.00     0.017 A 
HETATM   20  C32 UNL     1       0.128  56.190  -7.956  1.00  0.00     0.030 A 
BRANCH  18  21
HETATM   21  C27 UNL     1       2.100  57.849  -5.152  1.00  0.00     0.115 A 
HETATM   22  N7  UNL     1       1.237  57.939  -4.117  1.00  0.00    -0.352 N 
HETATM   23  C28 UNL     1       1.577  58.781  -3.124  1.00  0.00     0.091 A 
ATOM     24  H7  UNL     1       0.373  57.396  -4.089  1.00  0.00     0.166 HD
HETATM   25  C29 UNL     1       2.729  59.529  -3.120  1.00  0.00     0.034 A 
HETATM   26  C30 UNL     1       3.546  59.361  -4.211  1.00  0.00     0.091 A 
HETATM   27  N8  UNL     1       3.261  58.535  -5.234  1.00  0.00    -0.352 N 
ATOM     28  H8  UNL     1       3.890  58.431  -6.030  1.00  0.00     0.166 HD
ENDBRANCH  18  21
ENDBRANCH  13  15
ENDBRANCH   6   7
ENDBRANCH   1   6
BRANCH   4  29
HETATM   29  C6  UNL     1      -0.774  51.021 -18.104  1.00  0.00     0.099 C 
BRANCH  29  30
HETATM   30  N2  UNL     1      -0.546  50.913 -19.551  1.00  0.00    -0.293 NA
HETATM   31  H10 UNL     1      -0.165  50.005 -19.807  1.00  0.00     0.127 HD
BRANCH  30  32
HETATM   32  C7  UNL     1       0.083  51.960 -20.235  1.00  0.00     0.009 A 
HETATM   33  C8  UNL     1       0.805  52.965 -19.580  1.00  0.00     0.026 A 
HETATM   34  C9  UNL     1       1.421  54.020 -20.272  1.00  0.00     0.034 A 
HETATM   35  C10 UNL     1       1.275  54.042 -21.661  1.00  0.00     0.060 A 
HETATM   36  N3  UNL     1       1.749  54.897 -22.614  1.00  0.00    -0.299 N 
HETATM   37  C18 UNL     1       0.538  53.095 -22.357  1.00  0.00     0.023 A 
HETATM   38  N4  UNL     1       1.413  54.569 -23.872  1.00  0.00    -0.299 N 
HETATM   39  H13 UNL     1       2.321  55.720 -22.471  1.00  0.00     0.187 HD
HETATM   40  C11 UNL     1       0.644  53.476 -23.732  1.00  0.00     0.070 A 
ATOM     41  H4  UNL     1       1.679  55.042 -24.736  1.00  0.00     0.187 HD
HETATM   42  C19 UNL     1      -0.075  52.051 -21.630  1.00  0.00     0.039 A 
BRANCH  40  43
HETATM   43  C12 UNL     1       0.062  52.810 -24.894  1.00  0.00    -0.007 A 
HETATM   44  C13 UNL     1      -1.330  52.725 -25.046  1.00  0.00     0.017 A 
HETATM   45  C14 UNL     1      -1.878  52.069 -26.150  1.00  0.00     0.043 A 
HETATM   46  C15 UNL     1      -1.035  51.502 -27.098  1.00  0.00     0.116 A 
HETATM   47  F1  UNL     1      -1.562  50.861 -28.150  1.00  0.00    -0.206 F 
HETATM   48  C16 UNL     1       0.347  51.585 -26.969  1.00  0.00     0.043 A 
HETATM   49  C17 UNL     1       0.898  52.246 -25.869  1.00  0.00     0.017 A 
ENDBRANCH  40  43
ENDBRANCH  30  32
ENDBRANCH  29  30
ENDBRANCH   4  29
TORSDOF 8
ENDMDL
MODEL 5
REMARK minimizedAffinity -9.96374989
REMARK CNNscore 0.251181632
REMARK CNNaffinity 6.89418268
REMARK  8 active torsions:
REMARK  status: ('A' for Active; 'I' for Inactive)
REMARK    1  A    between atoms: C1_2  and  C2_3 
REMARK       I    between atoms: C1_2  and  N5_28 
REMARK    2  A    between atoms: C2_3  and  N1_4 
REMARK    3  A    between atoms: C5_7  and  C6_8 
REMARK    4  A    between atoms: C6_8  and  N2_9 
REMARK    5  A    between atoms: N2_9  and  C7_10 
REMARK    6  A    between atoms: C11_17  and  C12_18 
REMARK    7  A    between atoms: N6_31  and  C23_32 
REMARK    8  A    between atoms: C26_35  and  C27_36 
ROOT
HETATM    1  N1  UNL     1      -2.019  48.074 -20.657  1.00  0.00     0.097 N 
HETATM    2  C3  UNL     1      -2.347  47.493 -19.348  1.00  0.00     0.273 C 
HETATM    3  C4  UNL     1      -2.721  48.661 -18.437  1.00  0.00     0.038 C 
HETATM    4  C5  UNL     1      -2.428  49.919 -19.250  1.00  0.00     0.029 C 
HETATM    5  C20 UNL     1      -2.615  49.417 -20.681  1.00  0.00     0.279 C 
ENDROOT
BRANCH   1   6
HETATM    6  C2  UNL     1      -2.508  47.221 -21.758  1.00  0.00     0.374 C 
BRANCH   6   7
HETATM    7  C1  UNL     1      -3.603  47.928 -22.576  1.00  0.00     0.248 C 
HETATM    8  O1  UNL     1      -3.294  48.804 -23.390  1.00  0.00    -0.271 OA
HETATM    9  N5  UNL     1      -4.921  47.552 -22.372  1.00  0.00    -0.348 N 
HETATM   10  C21 UNL     1      -5.353  46.505 -21.439  1.00  0.00     0.145 C 
HETATM   11  C34 UNL     1      -5.990  48.240 -23.096  1.00  0.00     0.145 C 
HETATM   12  C22 UNL     1      -6.875  46.235 -21.458  1.00  0.00     0.143 C 
HETATM   13  N6  UNL     1      -7.633  47.492 -21.349  1.00  0.00    -0.378 N 
HETATM   14  C33 UNL     1      -7.155  48.628 -22.168  1.00  0.00     0.143 C 
BRANCH  13  15
HETATM   15  C23 UNL     1      -8.941  47.519 -20.879  1.00  0.00     0.030 A 
HETATM   16  C24 UNL     1      -9.309  48.153 -19.686  1.00  0.00     0.030 A 
HETATM   17  C25 UNL     1     -10.637  48.163 -19.222  1.00  0.00     0.017 A 
HETATM   18  C26 UNL     1     -11.672  47.539 -19.937  1.00  0.00     0.008 A 
HETATM   19  C31 UNL     1     -11.311  46.922 -21.142  1.00  0.00     0.017 A 
HETATM   20  C32 UNL     1      -9.983  46.915 -21.597  1.00  0.00     0.030 A 
BRANCH  18  21
HETATM   21  C27 UNL     1     -13.064  47.519 -19.442  1.00  0.00     0.115 A 
HETATM   22  N7  UNL     1     -13.267  47.733 -18.123  1.00  0.00    -0.352 N 
HETATM   23  C28 UNL     1     -14.542  47.668 -17.695  1.00  0.00     0.091 A 
ATOM     24  H7  UNL     1     -12.496  47.932 -17.486  1.00  0.00     0.166 HD
HETATM   25  C29 UNL     1     -15.609  47.403 -18.517  1.00  0.00     0.034 A 
HETATM   26  C30 UNL     1     -15.301  47.210 -19.842  1.00  0.00     0.091 A 
HETATM   27  N8  UNL     1     -14.049  47.262 -20.330  1.00  0.00    -0.352 N 
ATOM     28  H8  UNL     1     -13.853  47.116 -21.320  1.00  0.00     0.166 HD
ENDBRANCH  18  21
ENDBRANCH  13  15
ENDBRANCH   6   7
ENDBRANCH   1   6
BRANCH   4  29
HETATM   29  C6  UNL     1      -1.007  50.471 -19.025  1.00  0.00     0.099 C 
BRANCH  29  30
HETATM   30  N2  UNL     1      -0.226  50.506 -20.268  1.00  0.00    -0.293 NA
HETATM   31  H10 UNL     1       0.472  49.767 -20.297  1.00  0.00     0.127 HD
BRANCH  30  32
HETATM   32  C7  UNL     1       0.277  51.725 -20.738  1.00  0.00     0.009 A 
HETATM   33  C8  UNL     1       0.694  52.752 -19.882  1.00  0.00     0.026 A 
HETATM   34  C9  UNL     1       1.184  53.977 -20.361  1.00  0.00     0.034 A 
HETATM   35  C10 UNL     1       1.228  54.147 -21.747  1.00  0.00     0.060 A 
HETATM   36  N3  UNL     1       1.654  55.185 -22.525  1.00  0.00    -0.299 N 
HETATM   37  C18 UNL     1       0.791  53.180 -22.640  1.00  0.00     0.023 A 
HETATM   38  N4  UNL     1       1.564  54.964 -23.846  1.00  0.00    -0.299 N 
HETATM   39  H13 UNL     1       2.031  56.072 -22.214  1.00  0.00     0.187 HD
HETATM   40  C11 UNL     1       1.009  53.743 -23.937  1.00  0.00     0.070 A 
ATOM     41  H4  UNL     1       1.850  55.580 -24.607  1.00  0.00     0.187 HD
HETATM   42  C19 UNL     1       0.297  51.961 -22.126  1.00  0.00     0.039 A 
BRANCH  40  43
HETATM   43  C12 UNL     1       0.733  53.136 -25.237  1.00  0.00    -0.007 A 
HETATM   44  C13 UNL     1      -0.023  53.823 -26.199  1.00  0.00     0.017 A 
HETATM   45  C14 UNL     1      -0.300  53.228 -27.431  1.00  0.00     0.043 A 
HETATM   46  C15 UNL     1       0.178  51.951 -27.698  1.00  0.00     0.116 A 
HETATM   47  F1  UNL     1      -0.100  51.375 -28.876  1.00  0.00    -0.206 F 
HETATM   48  C16 UNL     1       0.936  51.258 -26.760  1.00  0.00     0.043 A 
HETATM   49  C17 UNL     1       1.220  51.855 -25.530  1.00  0.00     0.017 A 
ENDBRANCH  40  43
ENDBRANCH  30  32
ENDBRANCH  29  30
ENDBRANCH   4  29
TORSDOF 8
ENDMDL
MODEL 6
REMARK minimizedAffinity -10.553484
REMARK CNNscore 0.220721662
REMARK CNNaffinity 7.62688208
REMARK  8 active torsions:
REMARK  status: ('A' for Active; 'I' for Inactive)
REMARK    1  A    between atoms: C1_2  and  C2_3 
REMARK       I    between atoms: C1_2  and  N5_28 
REMARK    2  A    between atoms: C2_3  and  N1_4 
REMARK    3  A    between atoms: C5_7  and  C6_8 
REMARK    4  A    between atoms: C6_8  and  N2_9 
REMARK    5  A    between atoms: N2_9  and  C7_10 
REMARK    6  A    between atoms: C11_17  and  C12_18 
REMARK    7  A    between atoms: N6_31  and  C23_32 
REMARK    8  A    between atoms: C26_35  and  C27_36 
ROOT
HETATM    1  N1  UNL     1      -1.316  52.072 -26.824  1.00  0.00     0.097 N 
HETATM    2  C3  UNL     1      -0.600  52.233 -28.096  1.00  0.00     0.273 C 
HETATM    3  C4  UNL     1       0.726  51.489 -27.945  1.00  0.00     0.038 C 
HETATM    4  C5  UNL     1       0.781  51.052 -26.483  1.00  0.00     0.029 C 
HETATM    5  C20 UNL     1      -0.703  50.926 -26.139  1.00  0.00     0.279 C 
ENDROOT
BRANCH   1   6
HETATM    6  C2  UNL     1      -2.764  51.889 -27.043  1.00  0.00     0.374 C 
BRANCH   6   7
HETATM    7  C1  UNL     1      -3.180  50.418 -26.867  1.00  0.00     0.248 C 
HETATM    8  O1  UNL     1      -3.064  49.628 -27.810  1.00  0.00    -0.271 OA
HETATM    9  N5  UNL     1      -3.679  50.019 -25.637  1.00  0.00    -0.348 N 
HETATM   10  C21 UNL     1      -3.821  50.899 -24.472  1.00  0.00     0.145 C 
HETATM   11  C34 UNL     1      -4.131  48.641 -25.453  1.00  0.00     0.145 C 
HETATM   12  C22 UNL     1      -4.335  50.183 -23.202  1.00  0.00     0.143 C 
HETATM   13  N6  UNL     1      -5.531  49.378 -23.502  1.00  0.00    -0.378 N 
HETATM   14  C33 UNL     1      -5.495  48.574 -24.743  1.00  0.00     0.143 C 
BRANCH  13  15
HETATM   15  C23 UNL     1      -6.445  49.029 -22.513  1.00  0.00     0.030 A 
HETATM   16  C24 UNL     1      -7.573  48.240 -22.764  1.00  0.00     0.030 A 
HETATM   17  C25 UNL     1      -8.491  47.904 -21.752  1.00  0.00     0.017 A 
HETATM   18  C26 UNL     1      -8.321  48.339 -20.428  1.00  0.00     0.008 A 
HETATM   19  C31 UNL     1      -7.181  49.111 -20.169  1.00  0.00     0.017 A 
HETATM   20  C32 UNL     1      -6.270  49.444 -21.185  1.00  0.00     0.030 A 
BRANCH  18  21
HETATM   21  C27 UNL     1      -9.296  48.015 -19.366  1.00  0.00     0.115 A 
HETATM   22  N7  UNL     1     -10.448  47.411 -19.731  1.00  0.00    -0.352 N 
HETATM   23  C28 UNL     1     -11.334  47.165 -18.748  1.00  0.00     0.091 A 
ATOM     24  H7  UNL     1     -10.637  47.153 -20.700  1.00  0.00     0.166 HD
HETATM   25  C29 UNL     1     -11.121  47.493 -17.431  1.00  0.00     0.034 A 
HETATM   26  C30 UNL     1      -9.916  48.096 -17.159  1.00  0.00     0.091 A 
HETATM   27  N8  UNL     1      -8.991  48.367 -18.098  1.00  0.00    -0.352 N 
ATOM     28  H8  UNL     1      -8.105  48.814 -17.864  1.00  0.00     0.166 HD
ENDBRANCH  18  21
ENDBRANCH  13  15
ENDBRANCH   6   7
ENDBRANCH   1   6
BRANCH   4  29
HETATM   29  C6  UNL     1       1.489  52.072 -25.570  1.00  0.00     0.099 C 
BRANCH  29  30
HETATM   30  N2  UNL     1       0.533  52.931 -24.860  1.00  0.00    -0.293 NA
HETATM   31  H10 UNL     1       0.309  53.768 -25.393  1.00  0.00     0.127 HD
BRANCH  30  32
HETATM   32  C7  UNL     1       0.725  53.208 -23.501  1.00  0.00     0.009 A 
HETATM   33  C8  UNL     1       1.364  54.369 -23.047  1.00  0.00     0.026 A 
HETATM   34  C9  UNL     1       1.565  54.632 -21.683  1.00  0.00     0.034 A 
HETATM   35  C10 UNL     1       1.112  53.671 -20.776  1.00  0.00     0.060 A 
HETATM   36  N3  UNL     1       1.134  53.623 -19.411  1.00  0.00    -0.299 N 
HETATM   37  C18 UNL     1       0.510  52.485 -21.170  1.00  0.00     0.023 A 
HETATM   38  N4  UNL     1       0.569  52.526 -18.884  1.00  0.00    -0.299 N 
HETATM   39  H13 UNL     1       1.513  54.318 -18.779  1.00  0.00     0.187 HD
HETATM   40  C11 UNL     1       0.201  51.800 -19.953  1.00  0.00     0.070 A 
ATOM     41  H4  UNL     1       0.446  52.296 -17.898  1.00  0.00     0.187 HD
HETATM   42  C19 UNL     1       0.328  52.248 -22.551  1.00  0.00     0.039 A 
BRANCH  40  43
HETATM   43  C12 UNL     1      -0.454  50.504 -19.794  1.00  0.00    -0.007 A 
HETATM   44  C13 UNL     1      -0.896  50.078 -18.534  1.00  0.00     0.017 A 
HETATM   45  C14 UNL     1      -1.503  48.829 -18.387  1.00  0.00     0.043 A 
HETATM   46  C15 UNL     1      -1.666  48.012 -19.499  1.00  0.00     0.116 A 
HETATM   47  F1  UNL     1      -2.236  46.807 -19.355  1.00  0.00    -0.206 F 
HETATM   48  C16 UNL     1      -1.243  48.421 -20.759  1.00  0.00     0.043 A 
HETATM   49  C17 UNL     1      -0.642  49.673 -20.908  1.00  0.00     0.017 A 
ENDBRANCH  40  43
ENDBRANCH  30  32
ENDBRANCH  29  30
ENDBRANCH   4  29
TORSDOF 8
ENDMDL
MODEL 7
REMARK minimizedAffinity -9.32822037
REMARK CNNscore 0.192891017
REMARK CNNaffinity 6.38154078
REMARK  8 active torsions:
REMARK  status: ('A' for Active; 'I' for Inactive)
REMARK    1  A    between atoms: C1_2  and  C2_3 
REMARK       I    between atoms: C1_2  and  N5_28 
REMARK    2  A    between atoms: C2_3  and  N1_4 
REMARK    3  A    between atoms: C5_7  and  C6_8 
REMARK    4  A    between atoms: C6_8  and  N2_9 
REMARK    5  A    between atoms: N2_9  and  C7_10 
REMARK    6  A    between atoms: C11_17  and  C12_18 
REMARK    7  A    between atoms: N6_31  and  C23_32 
REMARK    8  A    between atoms: C26_35  and  C27_36 
ROOT
HETATM    1  N1  UNL     1       0.113  52.736 -10.876  1.00  0.00     0.097 N 
HETATM    2  C3  UNL     1      -0.911  52.630  -9.828  1.00  0.00     0.273 C 
HETATM    3  C4  UNL     1      -1.223  54.058  -9.382  1.00  0.00     0.038 C 
HETATM    4  C5  UNL     1      -0.212  54.941 -10.110  1.00  0.00     0.029 C 
HETATM    5  C20 UNL     1       0.069  54.121 -11.368  1.00  0.00     0.279 C 
ENDROOT
BRANCH   1   6
HETATM    6  C2  UNL     1      -0.116  51.750 -11.949  1.00  0.00     0.374 C 
BRANCH   6   7
HETATM    7  C1  UNL     1       1.105  51.633 -12.879  1.00  0.00     0.248 C 
HETATM    8  O1  UNL     1       2.243  51.785 -12.422  1.00  0.00    -0.271 OA
HETATM    9  N5  UNL     1       0.886  51.357 -14.219  1.00  0.00    -0.348 N 
HETATM   10  C21 UNL     1      -0.435  51.143 -14.820  1.00  0.00     0.145 C 
HETATM   11  C34 UNL     1       2.022  51.290 -15.138  1.00  0.00     0.145 C 
HETATM   12  C22 UNL     1      -0.392  50.778 -16.321  1.00  0.00     0.143 C 
HETATM   13  N6  UNL     1       0.466  51.716 -17.064  1.00  0.00    -0.378 N 
HETATM   14  C33 UNL     1       1.757  52.075 -16.435  1.00  0.00     0.143 C 
BRANCH  13  15
HETATM   15  C23 UNL     1       0.318  51.916 -18.433  1.00  0.00     0.030 A 
HETATM   16  C24 UNL     1       0.827  53.038 -19.097  1.00  0.00     0.030 A 
HETATM   17  C25 UNL     1       0.660  53.227 -20.481  1.00  0.00     0.017 A 
HETATM   18  C26 UNL     1      -0.024  52.293 -21.276  1.00  0.00     0.008 A 
HETATM   19  C31 UNL     1      -0.515  51.158 -20.617  1.00  0.00     0.017 A 
HETATM   20  C32 UNL     1      -0.346  50.978 -19.235  1.00  0.00     0.030 A 
BRANCH  18  21
HETATM   21  C27 UNL     1      -0.229  52.499 -22.724  1.00  0.00     0.115 A 
HETATM   22  N7  UNL     1       0.737  53.145 -23.413  1.00  0.00    -0.352 N 
HETATM   23  C28 UNL     1       0.504  53.353 -24.722  1.00  0.00     0.091 A 
ATOM     24  H7  UNL     1       1.599  53.458 -22.965  1.00  0.00     0.166 HD
HETATM   25  C29 UNL     1      -0.640  52.948 -25.366  1.00  0.00     0.034 A 
HETATM   26  C30 UNL     1      -1.558  52.292 -24.582  1.00  0.00     0.091 A 
HETATM   27  N8  UNL     1      -1.382  52.054 -23.270  1.00  0.00    -0.352 N 
ATOM     28  H8  UNL     1      -2.083  51.562 -22.716  1.00  0.00     0.166 HD
ENDBRANCH  18  21
ENDBRANCH  13  15
ENDBRANCH   6   7
ENDBRANCH   1   6
BRANCH   4  29
HETATM   29  C6  UNL     1       1.073  55.191  -9.297  1.00  0.00     0.099 C 
BRANCH  29  30
HETATM   30  N2  UNL     1       2.233  55.436 -10.164  1.00  0.00    -0.293 NA
HETATM   31  H10 UNL     1       2.169  54.919 -11.037  1.00  0.00     0.127 HD
BRANCH  30  32
HETATM   32  C7  UNL     1       3.524  55.399  -9.622  1.00  0.00     0.009 A 
HETATM   33  C8  UNL     1       4.548  54.611 -10.163  1.00  0.00     0.026 A 
HETATM   34  C9  UNL     1       5.836  54.568  -9.606  1.00  0.00     0.034 A 
HETATM   35  C10 UNL     1       6.061  55.340  -8.464  1.00  0.00     0.060 A 
HETATM   36  N3  UNL     1       7.178  55.534  -7.701  1.00  0.00    -0.299 N 
HETATM   37  C18 UNL     1       5.074  56.107  -7.864  1.00  0.00     0.023 A 
HETATM   38  N4  UNL     1       7.010  56.387  -6.678  1.00  0.00    -0.299 N 
HETATM   39  H13 UNL     1       8.092  55.121  -7.834  1.00  0.00     0.187 HD
HETATM   40  C11 UNL     1       5.712  56.730  -6.746  1.00  0.00     0.070 A 
ATOM     41  H4  UNL     1       7.707  56.701  -6.002  1.00  0.00     0.187 HD
HETATM   42  C19 UNL     1       3.787  56.123  -8.445  1.00  0.00     0.039 A 
BRANCH  40  43
HETATM   43  C12 UNL     1       5.126  57.654  -5.778  1.00  0.00    -0.007 A 
HETATM   44  C13 UNL     1       5.945  58.472  -4.986  1.00  0.00     0.017 A 
HETATM   45  C14 UNL     1       5.377  59.338  -4.048  1.00  0.00     0.043 A 
HETATM   46  C15 UNL     1       3.995  59.384  -3.907  1.00  0.00     0.116 A 
HETATM   47  F1  UNL     1       3.452  60.205  -2.998  1.00  0.00    -0.206 F 
HETATM   48  C16 UNL     1       3.167  58.587  -4.690  1.00  0.00     0.043 A 
HETATM   49  C17 UNL     1       3.733  57.725  -5.633  1.00  0.00     0.017 A 
ENDBRANCH  40  43
ENDBRANCH  30  32
ENDBRANCH  29  30
ENDBRANCH   4  29
TORSDOF 8
ENDMDL
MODEL 8
REMARK minimizedAffinity -9.24921513
REMARK CNNscore 0.18579109
REMARK CNNaffinity 5.66158056
REMARK  8 active torsions:
REMARK  status: ('A' for Active; 'I' for Inactive)
REMARK    1  A    between atoms: C1_2  and  C2_3 
REMARK       I    between atoms: C1_2  and  N5_28 
REMARK    2  A    between atoms: C2_3  and  N1_4 
REMARK    3  A    between atoms: C5_7  and  C6_8 
REMARK    4  A    between atoms: C6_8  and  N2_9 
REMARK    5  A    between atoms: N2_9  and  C7_10 
REMARK    6  A    between atoms: C11_17  and  C12_18 
REMARK    7  A    between atoms: N6_31  and  C23_32 
REMARK    8  A    between atoms: C26_35  and  C27_36 
ROOT
HETATM    1  N1  UNL     1      -8.234  48.157 -30.115  1.00  0.00     0.097 N 
HETATM    2  C3  UNL     1      -7.697  47.524 -31.327  1.00  0.00     0.273 C 
HETATM    3  C4  UNL     1      -6.430  46.783 -30.904  1.00  0.00     0.038 C 
HETATM    4  C5  UNL     1      -6.202  47.170 -29.444  1.00  0.00     0.029 C 
HETATM    5  C20 UNL     1      -7.626  47.459 -28.972  1.00  0.00     0.279 C 
ENDROOT
BRANCH   1   6
HETATM    6  C2  UNL     1      -9.708  48.100 -30.090  1.00  0.00     0.374 C 
BRANCH   6   7
HETATM    7  C1  UNL     1     -10.213  46.758 -29.530  1.00  0.00     0.248 C 
HETATM    8  O1  UNL     1     -10.185  45.746 -30.239  1.00  0.00    -0.271 OA
HETATM    9  N5  UNL     1     -10.688  46.726 -28.229  1.00  0.00    -0.348 N 
HETATM   10  C21 UNL     1     -10.728  47.883 -27.329  1.00  0.00     0.145 C 
HETATM   11  C34 UNL     1     -11.222  45.477 -27.685  1.00  0.00     0.145 C 
HETATM   12  C22 UNL     1     -11.238  47.557 -25.907  1.00  0.00     0.143 C 
HETATM   13  N6  UNL     1     -12.495  46.791 -25.963  1.00  0.00    -0.378 N 
HETATM   14  C33 UNL     1     -12.559  45.695 -26.955  1.00  0.00     0.143 C 
BRANCH  13  15
HETATM   15  C23 UNL     1     -13.390  46.775 -24.899  1.00  0.00     0.030 A 
HETATM   16  C24 UNL     1     -14.778  46.816 -25.072  1.00  0.00     0.030 A 
HETATM   17  C25 UNL     1     -15.669  46.808 -23.983  1.00  0.00     0.017 A 
HETATM   18  C26 UNL     1     -15.211  46.752 -22.657  1.00  0.00     0.008 A 
HETATM   19  C31 UNL     1     -13.823  46.689 -22.481  1.00  0.00     0.017 A 
HETATM   20  C32 UNL     1     -12.940  46.700 -23.573  1.00  0.00     0.030 A 
BRANCH  18  21
HETATM   21  C27 UNL     1     -16.139  46.773 -21.507  1.00  0.00     0.115 A 
HETATM   22  N7  UNL     1     -17.434  46.466 -21.736  1.00  0.00    -0.352 N 
HETATM   23  C28 UNL     1     -18.263  46.534 -20.678  1.00  0.00     0.091 A 
ATOM     24  H7  UNL     1     -17.768  46.198 -22.663  1.00  0.00     0.166 HD
HETATM   25  C29 UNL     1     -17.857  46.889 -19.414  1.00  0.00     0.034 A 
HETATM   26  C30 UNL     1     -16.519  47.173 -19.281  1.00  0.00     0.091 A 
HETATM   27  N8  UNL     1     -15.643  47.123 -20.300  1.00  0.00    -0.352 N 
ATOM     28  H8  UNL     1     -14.655  47.338 -20.168  1.00  0.00     0.166 HD
ENDBRANCH  18  21
ENDBRANCH  13  15
ENDBRANCH   6   7
ENDBRANCH   1   6
BRANCH   4  29
HETATM   29  C6  UNL     1      -5.289  48.399 -29.276  1.00  0.00     0.099 C 
BRANCH  29  30
HETATM   30  N2  UNL     1      -4.109  48.100 -28.454  1.00  0.00    -0.293 NA
HETATM   31  H10 UNL     1      -4.147  47.161 -28.065  1.00  0.00     0.127 HD
BRANCH  30  32
HETATM   32  C7  UNL     1      -3.659  49.040 -27.519  1.00  0.00     0.009 A 
HETATM   33  C8  UNL     1      -3.213  50.316 -27.884  1.00  0.00     0.026 A 
HETATM   34  C9  UNL     1      -2.750  51.248 -26.941  1.00  0.00     0.034 A 
HETATM   35  C10 UNL     1      -2.734  50.846 -25.604  1.00  0.00     0.060 A 
HETATM   36  N3  UNL     1      -2.368  51.498 -24.460  1.00  0.00    -0.299 N 
HETATM   37  C18 UNL     1      -3.126  49.582 -25.191  1.00  0.00     0.023 A 
HETATM   38  N4  UNL     1      -2.520  50.778 -23.337  1.00  0.00    -0.299 N 
HETATM   39  H13 UNL     1      -2.016  52.444 -24.378  1.00  0.00     0.187 HD
HETATM   40  C11 UNL     1      -2.962  49.585 -23.769  1.00  0.00     0.070 A 
ATOM     41  H4  UNL     1      -2.341  51.070 -22.376  1.00  0.00     0.187 HD
HETATM   42  C19 UNL     1      -3.580  48.665 -26.164  1.00  0.00     0.039 A 
BRANCH  40  43
HETATM   43  C12 UNL     1      -3.243  48.501 -22.832  1.00  0.00    -0.007 A 
HETATM   44  C13 UNL     1      -4.552  48.031 -22.656  1.00  0.00     0.017 A 
HETATM   45  C14 UNL     1      -4.815  47.008 -21.742  1.00  0.00     0.043 A 
HETATM   46  C15 UNL     1      -3.770  46.459 -21.009  1.00  0.00     0.116 A 
HETATM   47  F1  UNL     1      -4.026  45.487 -20.122  1.00  0.00    -0.206 F 
HETATM   48  C16 UNL     1      -2.464  46.906 -21.176  1.00  0.00     0.043 A 
HETATM   49  C17 UNL     1      -2.198  47.924 -22.094  1.00  0.00     0.017 A 
ENDBRANCH  40  43
ENDBRANCH  30  32
ENDBRANCH  29  30
ENDBRANCH   4  29
TORSDOF 8
ENDMDL
MODEL 9
REMARK minimizedAffinity -9.33001423
REMARK CNNscore 0.176703125
REMARK CNNaffinity 6.50860214
REMARK  8 active torsions:
REMARK  status: ('A' for Active; 'I' for Inactive)
REMARK    1  A    between atoms: C1_2  and  C2_3 
REMARK       I    between atoms: C1_2  and  N5_28 
REMARK    2  A    between atoms: C2_3  and  N1_4 
REMARK    3  A    between atoms: C5_7  and  C6_8 
REMARK    4  A    between atoms: C6_8  and  N2_9 
REMARK    5  A    between atoms: N2_9  and  C7_10 
REMARK    6  A    between atoms: C11_17  and  C12_18 
REMARK    7  A    between atoms: N6_31  and  C23_32 
REMARK    8  A    between atoms: C26_35  and  C27_36 
ROOT
HETATM    1  N1  UNL     1       2.592  51.384 -14.878  1.00  0.00     0.097 N 
HETATM    2  C3  UNL     1       3.669  52.028 -15.642  1.00  0.00     0.273 C 
HETATM    3  C4  UNL     1       2.991  52.964 -16.642  1.00  0.00     0.038 C 
HETATM    4  C5  UNL     1       1.495  52.686 -16.508  1.00  0.00     0.029 C 
HETATM    5  C20 UNL     1       1.394  52.217 -15.057  1.00  0.00     0.279 C 
ENDROOT
BRANCH   1   6
HETATM    6  C2  UNL     1       2.962  51.229 -13.459  1.00  0.00     0.374 C 
BRANCH   6   7
HETATM    7  C1  UNL     1       2.431  49.906 -12.877  1.00  0.00     0.248 C 
HETATM    8  O1  UNL     1       3.048  48.855 -13.077  1.00  0.00    -0.271 OA
HETATM    9  N5  UNL     1       1.259  49.938 -12.138  1.00  0.00    -0.348 N 
HETATM   10  C21 UNL     1       0.492  51.153 -11.846  1.00  0.00     0.145 C 
HETATM   11  C34 UNL     1       0.701  48.691 -11.616  1.00  0.00     0.145 C 
HETATM   12  C22 UNL     1      -0.737  50.918 -10.938  1.00  0.00     0.143 C 
HETATM   13  N6  UNL     1      -1.549  49.795 -11.434  1.00  0.00    -0.378 N 
HETATM   14  C33 UNL     1      -0.813  48.588 -11.873  1.00  0.00     0.143 C 
BRANCH  13  15
HETATM   15  C23 UNL     1      -2.896  49.669 -11.115  1.00  0.00     0.030 A 
HETATM   16  C24 UNL     1      -3.570  50.576 -10.288  1.00  0.00     0.030 A 
HETATM   17  C25 UNL     1      -4.932  50.429  -9.969  1.00  0.00     0.017 A 
HETATM   18  C26 UNL     1      -5.695  49.361 -10.469  1.00  0.00     0.008 A 
HETATM   19  C31 UNL     1      -5.029  48.463 -11.314  1.00  0.00     0.017 A 
HETATM   20  C32 UNL     1      -3.669  48.617 -11.626  1.00  0.00     0.030 A 
BRANCH  18  21
HETATM   21  C27 UNL     1      -7.118  49.182 -10.115  1.00  0.00     0.115 A 
HETATM   22  N7  UNL     1      -7.510  49.547  -8.874  1.00  0.00    -0.352 N 
HETATM   23  C28 UNL     1      -8.803  49.335  -8.566  1.00  0.00     0.091 A 
ATOM     24  H7  UNL     1      -6.860  49.962  -8.205  1.00  0.00     0.166 HD
HETATM   25  C29 UNL     1      -9.711  48.781  -9.435  1.00  0.00     0.034 A 
HETATM   26  C30 UNL     1      -9.219  48.452 -10.675  1.00  0.00     0.091 A 
HETATM   27  N8  UNL     1      -7.938  48.641 -11.041  1.00  0.00    -0.352 N 
ATOM     28  H8  UNL     1      -7.604  48.387 -11.971  1.00  0.00     0.166 HD
ENDBRANCH  18  21
ENDBRANCH  13  15
ENDBRANCH   6   7
ENDBRANCH   1   6
BRANCH   4  29
HETATM   29  C6  UNL     1       0.987  51.611 -17.488  1.00  0.00     0.099 C 
BRANCH  29  30
HETATM   30  N2  UNL     1      -0.087  52.118 -18.352  1.00  0.00    -0.293 NA
HETATM   31  H10 UNL     1      -0.934  51.560 -18.270  1.00  0.00     0.127 HD
BRANCH  30  32
HETATM   32  C7  UNL     1       0.193  52.459 -19.680  1.00  0.00     0.009 A 
HETATM   33  C8  UNL     1       1.155  53.415 -20.029  1.00  0.00     0.026 A 
HETATM   34  C9  UNL     1       1.421  53.761 -21.363  1.00  0.00     0.034 A 
HETATM   35  C10 UNL     1       0.669  53.119 -22.350  1.00  0.00     0.060 A 
HETATM   36  N3  UNL     1       0.686  53.209 -23.713  1.00  0.00    -0.299 N 
HETATM   37  C18 UNL     1      -0.323  52.194 -22.060  1.00  0.00     0.023 A 
HETATM   38  N4  UNL     1      -0.184  52.398 -24.334  1.00  0.00    -0.299 N 
HETATM   39  H13 UNL     1       1.280  53.799 -24.282  1.00  0.00     0.187 HD
HETATM   40  C11 UNL     1      -0.834  51.783 -23.331  1.00  0.00     0.070 A 
ATOM     41  H4  UNL     1      -0.322  52.276 -25.338  1.00  0.00     0.187 HD
HETATM   42  C19 UNL     1      -0.570  51.872 -20.707  1.00  0.00     0.039 A 
BRANCH  40  43
HETATM   43  C12 UNL     1      -1.890  50.810 -23.602  1.00  0.00    -0.007 A 
HETATM   44  C13 UNL     1      -1.870  49.547 -22.992  1.00  0.00     0.017 A 
HETATM   45  C14 UNL     1      -2.871  48.615 -23.273  1.00  0.00     0.043 A 
HETATM   46  C15 UNL     1      -3.889  48.949 -24.158  1.00  0.00     0.116 A 
HETATM   47  F1  UNL     1      -4.843  48.049 -24.437  1.00  0.00    -0.206 F 
HETATM   48  C16 UNL     1      -3.930  50.200 -24.765  1.00  0.00     0.043 A 
HETATM   49  C17 UNL     1      -2.933  51.135 -24.481  1.00  0.00     0.017 A 
ENDBRANCH  40  43
ENDBRANCH  30  32
ENDBRANCH  29  30
ENDBRANCH   4  29
TORSDOF 8
ENDMDL
