MODEL 1
REMARK minimizedAffinity -9.00719166
REMARK  6 active torsions:
REMARK  status: ('A' for Active; 'I' for Inactive)
REMARK    1  A    between atoms: C2_2  and  N1_3 
REMARK    2  A    between atoms: C2_2  and  C16_27 
REMARK       I    between atoms: N1_3  and  C3_4 
REMARK       I    between atoms: C3_4  and  N2_6 
REMARK    3  A    between atoms: N2_6  and  C4_7 
REMARK    4  A    between atoms: C7_13  and  O2_14 
REMARK    5  A    between atoms: O2_14  and  C8_15 
REMARK    6  A    between atoms: C8_15  and  C9_16 
ROOT
HETATM    1  C4  UNL     1      -2.524  50.619 -21.126  1.00  0.00     0.111 A 
HETATM    2  C5  UNL     1      -3.891  50.756 -21.345  1.00  0.00     0.080 A 
HETATM    3  C6  UNL     1      -4.241  51.307 -22.576  1.00  0.00     0.067 A 
HETATM    4  N3  UNL     1      -5.456  51.590 -23.145  1.00  0.00    -0.298 N 
HETATM    5  N4  UNL     1      -5.371  52.129 -24.374  1.00  0.00    -0.279 N 
ATOM      6  H4  UNL     1      -6.130  52.420 -24.991  1.00  0.00     0.189 HD
HETATM    7  C7  UNL     1      -4.058  52.190 -24.594  1.00  0.00     0.171 A 
HETATM    8  C14 UNL     1      -3.296  51.694 -23.517  1.00  0.00     0.060 A 
HETATM    9  C15 UNL     1      -1.948  51.527 -23.217  1.00  0.00     0.108 A 
HETATM   10  N6  UNL     1      -1.578  50.993 -22.022  1.00  0.00    -0.351 N 
ATOM     11  H6  UNL     1      -0.589  50.874 -21.800  1.00  0.00     0.166 HD
HETATM   12  H8  UNL     1      -6.377  51.439 -22.747  1.00  0.00     0.187 HD
ENDROOT
BRANCH   1  13
HETATM   13  N2  UNL     1      -1.980  50.092 -19.955  1.00  0.00    -0.295 N 
HETATM   14  C3  UNL     1      -1.977  50.634 -18.698  1.00  0.00     0.322 C 
HETATM   15  N1  UNL     1      -1.311  49.825 -17.806  1.00  0.00    -0.335 N 
HETATM   16  O1  UNL     1      -2.494  51.692 -18.363  1.00  0.00    -0.247 OA
HETATM   17  H5  UNL     1      -0.663  49.150 -18.182  1.00  0.00     0.165 HD
HETATM   18  H6  UNL     1      -1.652  49.147 -20.076  1.00  0.00     0.172 HD
BRANCH  15  19
HETATM   19  C2  UNL     1      -1.127  50.213 -16.417  1.00  0.00     0.115 C 
HETATM   20  C1  UNL     1      -2.335  50.996 -15.891  1.00  0.00     0.037 C 
BRANCH  19  21
HETATM   21  C16 UNL     1       0.185  50.971 -16.285  1.00  0.00    -0.036 A 
HETATM   22  C17 UNL     1       0.653  51.841 -17.285  1.00  0.00     0.012 A 
HETATM   23  C18 UNL     1       1.876  52.500 -17.139  1.00  0.00     0.043 A 
HETATM   24  C19 UNL     1       2.640  52.285 -16.000  1.00  0.00     0.116 A 
HETATM   25  F1  UNL     1       3.813  52.917 -15.862  1.00  0.00    -0.206 F 
HETATM   26  C20 UNL     1       2.209  51.419 -15.004  1.00  0.00     0.043 A 
HETATM   27  C21 UNL     1       0.987  50.760 -15.148  1.00  0.00     0.012 A 
ENDBRANCH  19  21
ENDBRANCH  15  19
ENDBRANCH   1  13
BRANCH   7  28
HETATM   28  O2  UNL     1      -3.555  52.699 -25.740  1.00  0.00    -0.328 OA
BRANCH  28  29
HETATM   29  C8  UNL     1      -3.083  51.734 -26.688  1.00  0.00     0.234 C 
BRANCH  29  30
HETATM   30  C9  UNL     1      -1.613  51.857 -27.043  1.00  0.00     0.033 A 
HETATM   31  C10 UNL     1      -0.684  50.898 -26.643  1.00  0.00     0.027 A 
HETATM   32  C11 UNL     1       0.646  51.038 -27.032  1.00  0.00     0.003 A 
HETATM   33  C12 UNL     1       1.015  52.121 -27.820  1.00  0.00     0.017 A 
HETATM   34  C13 UNL     1       0.033  53.020 -28.192  1.00  0.00     0.088 A 
HETATM   35  N5  UNL     1      -1.265  52.908 -27.834  1.00  0.00    -0.367 N 
ATOM     36  H5  UNL     1      -1.958  53.588 -28.145  1.00  0.00     0.165 HD
ENDBRANCH  29  30
ENDBRANCH  28  29
ENDBRANCH   7  28
TORSDOF 6
ENDMDL
MODEL 2
REMARK minimizedAffinity -8.98851585
REMARK  6 active torsions:
REMARK  status: ('A' for Active; 'I' for Inactive)
REMARK    1  A    between atoms: C2_2  and  N1_3 
REMARK    2  A    between atoms: C2_2  and  C16_27 
REMARK       I    between atoms: N1_3  and  C3_4 
REMARK       I    between atoms: C3_4  and  N2_6 
REMARK    3  A    between atoms: N2_6  and  C4_7 
REMARK    4  A    between atoms: C7_13  and  O2_14 
REMARK    5  A    between atoms: O2_14  and  C8_15 
REMARK    6  A    between atoms: C8_15  and  C9_16 
ROOT
HETATM    1  C4  UNL     1      -3.242  48.684 -24.347  1.00  0.00     0.111 A 
HETATM    2  C5  UNL     1      -4.601  48.426 -24.484  1.00  0.00     0.080 A 
HETATM    3  C6  UNL     1      -5.050  48.295 -25.797  1.00  0.00     0.067 A 
HETATM    4  N3  UNL     1      -6.290  48.043 -26.324  1.00  0.00    -0.298 N 
HETATM    5  N4  UNL     1      -6.313  47.993 -27.668  1.00  0.00    -0.279 N 
ATOM      6  H4  UNL     1      -7.110  47.821 -28.281  1.00  0.00     0.189 HD
HETATM    7  C7  UNL     1      -5.044  48.222 -28.006  1.00  0.00     0.171 A 
HETATM    8  C14 UNL     1      -4.204  48.417 -26.891  1.00  0.00     0.060 A 
HETATM    9  C15 UNL     1      -2.856  48.681 -26.667  1.00  0.00     0.108 A 
HETATM   10  N6  UNL     1      -2.391  48.814 -25.395  1.00  0.00    -0.351 N 
ATOM     11  H6  UNL     1      -1.404  49.011 -25.231  1.00  0.00     0.166 HD
HETATM   12  H8  UNL     1      -7.160  47.896 -25.821  1.00  0.00     0.187 HD
ENDROOT
BRANCH   1  13
HETATM   13  N2  UNL     1      -2.608  48.849 -23.115  1.00  0.00    -0.295 N 
HETATM   14  C3  UNL     1      -2.729  49.883 -22.228  1.00  0.00     0.322 C 
HETATM   15  N1  UNL     1      -1.915  49.700 -21.133  1.00  0.00    -0.335 N 
HETATM   16  O1  UNL     1      -3.459  50.859 -22.345  1.00  0.00    -0.247 OA
HETATM   17  H5  UNL     1      -1.137  49.066 -21.231  1.00  0.00     0.165 HD
HETATM   18  H6  UNL     1      -2.088  48.031 -22.840  1.00  0.00     0.172 HD
BRANCH  15  19
HETATM   19  C2  UNL     1      -1.828  50.693 -20.075  1.00  0.00     0.115 C 
HETATM   20  C1  UNL     1      -3.188  51.346 -19.807  1.00  0.00     0.037 C 
BRANCH  19  21
HETATM   21  C16 UNL     1      -0.739  51.696 -20.426  1.00  0.00    -0.036 A 
HETATM   22  C17 UNL     1      -0.422  52.782 -19.592  1.00  0.00     0.012 A 
HETATM   23  C18 UNL     1       0.567  53.697 -19.961  1.00  0.00     0.043 A 
HETATM   24  C19 UNL     1       1.235  53.537 -21.168  1.00  0.00     0.116 A 
HETATM   25  F1  UNL     1       2.182  54.416 -21.520  1.00  0.00    -0.206 F 
HETATM   26  C20 UNL     1       0.931  52.482 -22.018  1.00  0.00     0.043 A 
HETATM   27  C21 UNL     1      -0.057  51.566 -21.651  1.00  0.00     0.012 A 
ENDBRANCH  19  21
ENDBRANCH  15  19
ENDBRANCH   1  13
BRANCH   7  28
HETATM   28  O2  UNL     1      -4.653  48.268 -29.298  1.00  0.00    -0.328 OA
BRANCH  28  29
HETATM   29  C8  UNL     1      -5.687  48.042 -30.264  1.00  0.00     0.234 C 
BRANCH  29  30
HETATM   30  C9  UNL     1      -5.614  46.702 -30.972  1.00  0.00     0.033 A 
HETATM   31  C10 UNL     1      -4.569  46.396 -31.844  1.00  0.00     0.027 A 
HETATM   32  C11 UNL     1      -4.527  45.137 -32.436  1.00  0.00     0.003 A 
HETATM   33  C12 UNL     1      -5.517  44.209 -32.136  1.00  0.00     0.017 A 
HETATM   34  C13 UNL     1      -6.509  44.580 -31.247  1.00  0.00     0.088 A 
HETATM   35  N5  UNL     1      -6.573  45.792 -30.655  1.00  0.00    -0.367 N 
ATOM     36  H5  UNL     1      -7.316  46.017 -29.993  1.00  0.00     0.165 HD
ENDBRANCH  29  30
ENDBRANCH  28  29
ENDBRANCH   7  28
TORSDOF 6
ENDMDL
MODEL 3
REMARK minimizedAffinity -8.8497057
REMARK  6 active torsions:
REMARK  status: ('A' for Active; 'I' for Inactive)
REMARK    1  A    between atoms: C2_2  and  N1_3 
REMARK    2  A    between atoms: C2_2  and  C16_27 
REMARK       I    between atoms: N1_3  and  C3_4 
REMARK       I    between atoms: C3_4  and  N2_6 
REMARK    3  A    between atoms: N2_6  and  C4_7 
REMARK    4  A    between atoms: C7_13  and  O2_14 
REMARK    5  A    between atoms: O2_14  and  C8_15 
REMARK    6  A    between atoms: C8_15  and  C9_16 
ROOT
HETATM    1  C4  UNL     1       0.783  52.824 -18.987  1.00  0.00     0.111 A 
HETATM    2  C5  UNL     1       1.299  53.636 -19.991  1.00  0.00     0.080 A 
HETATM    3  C6  UNL     1       0.911  53.296 -21.286  1.00  0.00     0.067 A 
HETATM    4  N3  UNL     1       1.203  53.846 -22.507  1.00  0.00    -0.298 N 
HETATM    5  N4  UNL     1       0.622  53.214 -23.543  1.00  0.00    -0.279 N 
ATOM      6  H4  UNL     1       0.689  53.435 -24.537  1.00  0.00     0.189 HD
HETATM    7  C7  UNL     1      -0.061  52.230 -22.959  1.00  0.00     0.171 A 
HETATM    8  C14 UNL     1       0.073  52.224 -21.556  1.00  0.00     0.060 A 
HETATM    9  C15 UNL     1      -0.396  51.458 -20.493  1.00  0.00     0.108 A 
HETATM   10  N6  UNL     1      -0.033  51.767 -19.220  1.00  0.00    -0.351 N 
ATOM     11  H6  UNL     1      -0.374  51.203 -18.441  1.00  0.00     0.166 HD
HETATM   12  H8  UNL     1       1.791  54.650 -22.701  1.00  0.00     0.187 HD
ENDROOT
BRANCH   1  13
HETATM   13  N2  UNL     1       1.059  53.004 -17.631  1.00  0.00    -0.295 N 
HETATM   14  C3  UNL     1       1.103  52.063 -16.639  1.00  0.00     0.322 C 
HETATM   15  N1  UNL     1       1.379  52.636 -15.419  1.00  0.00    -0.335 N 
HETATM   16  O1  UNL     1       0.934  50.858 -16.775  1.00  0.00    -0.247 OA
HETATM   17  H5  UNL     1       1.205  53.623 -15.317  1.00  0.00     0.165 HD
HETATM   18  H6  UNL     1       1.361  53.943 -17.423  1.00  0.00     0.172 HD
BRANCH  15  19
HETATM   19  C2  UNL     1       1.424  51.845 -14.200  1.00  0.00     0.115 C 
HETATM   20  C1  UNL     1       1.817  50.392 -14.490  1.00  0.00     0.037 C 
BRANCH  19  21
HETATM   21  C16 UNL     1       0.093  51.974 -13.476  1.00  0.00    -0.036 A 
HETATM   22  C17 UNL     1      -1.086  51.384 -13.963  1.00  0.00     0.012 A 
HETATM   23  C18 UNL     1      -2.296  51.547 -13.284  1.00  0.00     0.043 A 
HETATM   24  C19 UNL     1      -2.335  52.308 -12.123  1.00  0.00     0.116 A 
HETATM   25  F1  UNL     1      -3.496  52.463 -11.474  1.00  0.00    -0.206 F 
HETATM   26  C20 UNL     1      -1.188  52.915 -11.628  1.00  0.00     0.043 A 
HETATM   27  C21 UNL     1       0.022  52.753 -12.305  1.00  0.00     0.012 A 
ENDBRANCH  19  21
ENDBRANCH  15  19
ENDBRANCH   1  13
BRANCH   7  28
HETATM   28  O2  UNL     1      -0.782  51.344 -23.681  1.00  0.00    -0.328 OA
BRANCH  28  29
HETATM   29  C8  UNL     1      -1.587  51.908 -24.724  1.00  0.00     0.234 C 
BRANCH  29  30
HETATM   30  C9  UNL     1      -0.856  52.149 -26.031  1.00  0.00     0.033 A 
HETATM   31  C10 UNL     1       0.009  51.196 -26.568  1.00  0.00     0.027 A 
HETATM   32  C11 UNL     1       0.622  51.449 -27.792  1.00  0.00     0.003 A 
HETATM   33  C12 UNL     1       0.350  52.638 -28.458  1.00  0.00     0.017 A 
HETATM   34  C13 UNL     1      -0.534  53.525 -27.871  1.00  0.00     0.088 A 
HETATM   35  N5  UNL     1      -1.146  53.304 -26.687  1.00  0.00    -0.367 N 
ATOM     36  H5  UNL     1      -1.803  53.981 -26.300  1.00  0.00     0.165 HD
ENDBRANCH  29  30
ENDBRANCH  28  29
ENDBRANCH   7  28
TORSDOF 6
ENDMDL
MODEL 4
REMARK minimizedAffinity -8.80931473
REMARK  6 active torsions:
REMARK  status: ('A' for Active; 'I' for Inactive)
REMARK    1  A    between atoms: C2_2  and  N1_3 
REMARK    2  A    between atoms: C2_2  and  C16_27 
REMARK       I    between atoms: N1_3  and  C3_4 
REMARK       I    between atoms: C3_4  and  N2_6 
REMARK    3  A    between atoms: N2_6  and  C4_7 
REMARK    4  A    between atoms: C7_13  and  O2_14 
REMARK    5  A    between atoms: O2_14  and  C8_15 
REMARK    6  A    between atoms: C8_15  and  C9_16 
ROOT
HETATM    1  C4  UNL     1      -3.648  49.419 -27.148  1.00  0.00     0.111 A 
HETATM    2  C5  UNL     1      -3.168  50.406 -28.001  1.00  0.00     0.080 A 
HETATM    3  C6  UNL     1      -2.035  51.080 -27.548  1.00  0.00     0.067 A 
HETATM    4  N3  UNL     1      -1.286  52.089 -28.095  1.00  0.00    -0.298 N 
HETATM    5  N4  UNL     1      -0.249  52.475 -27.331  1.00  0.00    -0.279 N 
ATOM      6  H4  UNL     1       0.444  53.200 -27.523  1.00  0.00     0.189 HD
HETATM    7  C7  UNL     1      -0.343  51.685 -26.262  1.00  0.00     0.171 A 
HETATM    8  C14 UNL     1      -1.431  50.792 -26.332  1.00  0.00     0.060 A 
HETATM    9  C15 UNL     1      -1.979  49.791 -25.535  1.00  0.00     0.108 A 
HETATM   10  N6  UNL     1      -3.084  49.118 -25.952  1.00  0.00    -0.351 N 
ATOM     11  H6  UNL     1      -3.488  48.387 -25.366  1.00  0.00     0.166 HD
HETATM   12  H8  UNL     1      -1.429  52.556 -28.985  1.00  0.00     0.187 HD
ENDROOT
BRANCH   1  13
HETATM   13  N2  UNL     1      -4.771  48.639 -27.425  1.00  0.00    -0.295 N 
HETATM   14  C3  UNL     1      -5.101  48.006 -28.592  1.00  0.00     0.322 C 
HETATM   15  N1  UNL     1      -6.310  47.358 -28.485  1.00  0.00    -0.335 N 
HETATM   16  O1  UNL     1      -4.435  47.984 -29.619  1.00  0.00    -0.247 OA
HETATM   17  H5  UNL     1      -6.937  47.657 -27.753  1.00  0.00     0.165 HD
HETATM   18  H6  UNL     1      -5.327  48.462 -26.603  1.00  0.00     0.172 HD
BRANCH  15  19
HETATM   19  C2  UNL     1      -6.901  46.657 -29.613  1.00  0.00     0.115 C 
HETATM   20  C1  UNL     1      -7.163  45.184 -29.281  1.00  0.00     0.037 C 
BRANCH  19  21
HETATM   21  C16 UNL     1      -6.015  46.849 -30.835  1.00  0.00    -0.036 A 
HETATM   22  C17 UNL     1      -6.126  47.973 -31.672  1.00  0.00     0.012 A 
HETATM   23  C18 UNL     1      -5.313  48.103 -32.800  1.00  0.00     0.043 A 
HETATM   24  C19 UNL     1      -4.394  47.106 -33.102  1.00  0.00     0.116 A 
HETATM   25  F1  UNL     1      -3.616  47.232 -34.185  1.00  0.00    -0.206 F 
HETATM   26  C20 UNL     1      -4.275  45.978 -32.301  1.00  0.00     0.043 A 
HETATM   27  C21 UNL     1      -5.087  45.848 -31.173  1.00  0.00     0.012 A 
ENDBRANCH  19  21
ENDBRANCH  15  19
ENDBRANCH   1  13
BRANCH   7  28
HETATM   28  O2  UNL     1       0.529  51.778 -25.234  1.00  0.00    -0.328 OA
BRANCH  28  29
HETATM   29  C8  UNL     1       0.566  53.046 -24.569  1.00  0.00     0.234 C 
BRANCH  29  30
HETATM   30  C9  UNL     1       0.582  52.970 -23.054  1.00  0.00     0.033 A 
HETATM   31  C10 UNL     1       0.085  51.858 -22.375  1.00  0.00     0.027 A 
HETATM   32  C11 UNL     1       0.163  51.820 -20.986  1.00  0.00     0.003 A 
HETATM   33  C12 UNL     1       0.744  52.884 -20.306  1.00  0.00     0.017 A 
HETATM   34  C13 UNL     1       1.231  53.943 -21.051  1.00  0.00     0.088 A 
HETATM   35  N5  UNL     1       1.174  54.005 -22.399  1.00  0.00    -0.367 N 
ATOM     36  H5  UNL     1       1.561  54.800 -22.907  1.00  0.00     0.165 HD
ENDBRANCH  29  30
ENDBRANCH  28  29
ENDBRANCH   7  28
TORSDOF 6
ENDMDL
MODEL 5
REMARK minimizedAffinity -8.78889847
REMARK  6 active torsions:
REMARK  status: ('A' for Active; 'I' for Inactive)
REMARK    1  A    between atoms: C2_2  and  N1_3 
REMARK    2  A    between atoms: C2_2  and  C16_27 
REMARK       I    between atoms: N1_3  and  C3_4 
REMARK       I    between atoms: C3_4  and  N2_6 
REMARK    3  A    between atoms: N2_6  and  C4_7 
REMARK    4  A    between atoms: C7_13  and  O2_14 
REMARK    5  A    between atoms: O2_14  and  C8_15 
REMARK    6  A    between atoms: C8_15  and  C9_16 
ROOT
HETATM    1  C4  UNL     1      -4.091  49.014 -26.194  1.00  0.00     0.111 A 
HETATM    2  C5  UNL     1      -3.650  48.457 -24.998  1.00  0.00     0.080 A 
HETATM    3  C6  UNL     1      -2.860  49.293 -24.211  1.00  0.00     0.067 A 
HETATM    4  N3  UNL     1      -2.256  49.110 -22.995  1.00  0.00    -0.298 N 
HETATM    5  N4  UNL     1      -1.565  50.180 -22.561  1.00  0.00    -0.279 N 
ATOM      6  H4  UNL     1      -1.037  50.283 -21.695  1.00  0.00     0.189 HD
HETATM    7  C7  UNL     1      -1.737  51.072 -23.536  1.00  0.00     0.171 A 
HETATM    8  C14 UNL     1      -2.534  50.587 -24.592  1.00  0.00     0.060 A 
HETATM    9  C15 UNL     1      -3.012  51.067 -25.808  1.00  0.00     0.108 A 
HETATM   10  N6  UNL     1      -3.784  50.272 -26.596  1.00  0.00    -0.351 N 
ATOM     11  H6  UNL     1      -4.132  50.621 -27.489  1.00  0.00     0.166 HD
HETATM   12  H8  UNL     1      -2.276  48.280 -22.411  1.00  0.00     0.187 HD
ENDROOT
BRANCH   1  13
HETATM   13  N2  UNL     1      -4.887  48.332 -27.114  1.00  0.00    -0.295 N 
HETATM   14  C3  UNL     1      -4.893  48.438 -28.478  1.00  0.00     0.322 C 
HETATM   15  N1  UNL     1      -5.848  47.621 -29.039  1.00  0.00    -0.335 N 
HETATM   16  O1  UNL     1      -4.158  49.147 -29.154  1.00  0.00    -0.247 OA
HETATM   17  H5  UNL     1      -6.603  47.311 -28.447  1.00  0.00     0.165 HD
HETATM   18  H6  UNL     1      -5.436  47.606 -26.682  1.00  0.00     0.172 HD
BRANCH  15  19
HETATM   19  C2  UNL     1      -6.084  47.600 -30.474  1.00  0.00     0.115 C 
HETATM   20  C1  UNL     1      -7.447  48.204 -30.826  1.00  0.00     0.037 C 
BRANCH  19  21
HETATM   21  C16 UNL     1      -5.908  46.177 -30.983  1.00  0.00    -0.036 A 
HETATM   22  C17 UNL     1      -4.927  45.835 -31.930  1.00  0.00     0.012 A 
HETATM   23  C18 UNL     1      -4.813  44.523 -32.394  1.00  0.00     0.043 A 
HETATM   24  C19 UNL     1      -5.684  43.549 -31.922  1.00  0.00     0.116 A 
HETATM   25  F1  UNL     1      -5.573  42.292 -32.369  1.00  0.00    -0.206 F 
HETATM   26  C20 UNL     1      -6.672  43.863 -30.998  1.00  0.00     0.043 A 
HETATM   27  C21 UNL     1      -6.787  45.174 -30.533  1.00  0.00     0.012 A 
ENDBRANCH  19  21
ENDBRANCH  15  19
ENDBRANCH   1  13
BRANCH   7  28
HETATM   28  O2  UNL     1      -1.173  52.299 -23.480  1.00  0.00    -0.328 OA
BRANCH  28  29
HETATM   29  C8  UNL     1       0.167  52.385 -23.979  1.00  0.00     0.234 C 
BRANCH  29  30
HETATM   30  C9  UNL     1       0.278  52.498 -25.488  1.00  0.00     0.033 A 
HETATM   31  C10 UNL     1       0.832  51.475 -26.257  1.00  0.00     0.027 A 
HETATM   32  C11 UNL     1       0.871  51.612 -27.642  1.00  0.00     0.003 A 
HETATM   33  C12 UNL     1       0.346  52.757 -28.229  1.00  0.00     0.017 A 
HETATM   34  C13 UNL     1      -0.203  53.719 -27.401  1.00  0.00     0.088 A 
HETATM   35  N5  UNL     1      -0.259  53.612 -26.055  1.00  0.00    -0.367 N 
ATOM     36  H5  UNL     1      -0.688  54.340 -25.486  1.00  0.00     0.165 HD
ENDBRANCH  29  30
ENDBRANCH  28  29
ENDBRANCH   7  28
TORSDOF 6
ENDMDL
MODEL 6
REMARK minimizedAffinity -8.62696934
REMARK  6 active torsions:
REMARK  status: ('A' for Active; 'I' for Inactive)
REMARK    1  A    between atoms: C2_2  and  N1_3 
REMARK    2  A    between atoms: C2_2  and  C16_27 
REMARK       I    between atoms: N1_3  and  C3_4 
REMARK       I    between atoms: C3_4  and  N2_6 
REMARK    3  A    between atoms: N2_6  and  C4_7 
REMARK    4  A    between atoms: C7_13  and  O2_14 
REMARK    5  A    between atoms: O2_14  and  C8_15 
REMARK    6  A    between atoms: C8_15  and  C9_16 
ROOT
HETATM    1  C4  UNL     1      -4.122  49.208 -25.792  1.00  0.00     0.111 A 
HETATM    2  C5  UNL     1      -3.614  48.627 -24.635  1.00  0.00     0.080 A 
HETATM    3  C6  UNL     1      -2.720  49.420 -23.917  1.00  0.00     0.067 A 
HETATM    4  N3  UNL     1      -2.028  49.203 -22.754  1.00  0.00    -0.298 N 
HETATM    5  N4  UNL     1      -1.250  50.235 -22.381  1.00  0.00    -0.279 N 
ATOM      6  H4  UNL     1      -0.648  50.309 -21.561  1.00  0.00     0.189 HD
HETATM    7  C7  UNL     1      -1.454  51.137 -23.341  1.00  0.00     0.171 A 
HETATM    8  C14 UNL     1      -2.359  50.696 -24.327  1.00  0.00     0.060 A 
HETATM    9  C15 UNL     1      -2.909  51.202 -25.501  1.00  0.00     0.108 A 
HETATM   10  N6  UNL     1      -3.784  50.449 -26.221  1.00  0.00    -0.351 N 
ATOM     11  H6  UNL     1      -4.185  50.818 -27.084  1.00  0.00     0.166 HD
HETATM   12  H8  UNL     1      -2.044  48.375 -22.168  1.00  0.00     0.187 HD
ENDROOT
BRANCH   1  13
HETATM   13  N2  UNL     1      -5.025  48.571 -26.642  1.00  0.00    -0.295 N 
HETATM   14  C3  UNL     1      -4.893  48.301 -27.977  1.00  0.00     0.322 C 
HETATM   15  N1  UNL     1      -6.017  47.683 -28.476  1.00  0.00    -0.335 N 
HETATM   16  O1  UNL     1      -3.917  48.549 -28.674  1.00  0.00    -0.247 OA
HETATM   17  H5  UNL     1      -6.874  47.783 -27.955  1.00  0.00     0.165 HD
HETATM   18  H6  UNL     1      -5.812  48.186 -26.145  1.00  0.00     0.172 HD
BRANCH  15  19
HETATM   19  C2  UNL     1      -6.138  47.345 -29.885  1.00  0.00     0.115 C 
HETATM   20  C1  UNL     1      -5.420  48.370 -30.769  1.00  0.00     0.037 C 
BRANCH  19  21
HETATM   21  C16 UNL     1      -7.610  47.178 -30.230  1.00  0.00    -0.036 A 
HETATM   22  C17 UNL     1      -8.152  45.945 -30.631  1.00  0.00     0.012 A 
HETATM   23  C18 UNL     1      -9.503  45.837 -30.965  1.00  0.00     0.043 A 
HETATM   24  C19 UNL     1     -10.316  46.961 -30.911  1.00  0.00     0.116 A 
HETATM   25  F1  UNL     1     -11.612  46.856 -31.233  1.00  0.00    -0.206 F 
HETATM   26  C20 UNL     1      -9.803  48.195 -30.534  1.00  0.00     0.043 A 
HETATM   27  C21 UNL     1      -8.453  48.305 -30.199  1.00  0.00     0.012 A 
ENDBRANCH  19  21
ENDBRANCH  15  19
ENDBRANCH   1  13
BRANCH   7  28
HETATM   28  O2  UNL     1      -0.824  52.333 -23.334  1.00  0.00    -0.328 OA
BRANCH  28  29
HETATM   29  C8  UNL     1       0.464  52.354 -23.961  1.00  0.00     0.234 C 
BRANCH  29  30
HETATM   30  C9  UNL     1       0.434  52.471 -25.473  1.00  0.00     0.033 A 
HETATM   31  C10 UNL     1       0.855  51.424 -26.293  1.00  0.00     0.027 A 
HETATM   32  C11 UNL     1       0.766  51.567 -27.675  1.00  0.00     0.003 A 
HETATM   33  C12 UNL     1       0.250  52.742 -28.208  1.00  0.00     0.017 A 
HETATM   34  C13 UNL     1      -0.164  53.727 -27.329  1.00  0.00     0.088 A 
HETATM   35  N5  UNL     1      -0.095  53.615 -25.985  1.00  0.00    -0.367 N 
ATOM     36  H5  UNL     1      -0.427  54.362 -25.376  1.00  0.00     0.165 HD
ENDBRANCH  29  30
ENDBRANCH  28  29
ENDBRANCH   7  28
TORSDOF 6
ENDMDL
MODEL 7
REMARK minimizedAffinity -8.60460186
REMARK  6 active torsions:
REMARK  status: ('A' for Active; 'I' for Inactive)
REMARK    1  A    between atoms: C2_2  and  N1_3 
REMARK    2  A    between atoms: C2_2  and  C16_27 
REMARK       I    between atoms: N1_3  and  C3_4 
REMARK       I    between atoms: C3_4  and  N2_6 
REMARK    3  A    between atoms: N2_6  and  C4_7 
REMARK    4  A    between atoms: C7_13  and  O2_14 
REMARK    5  A    between atoms: O2_14  and  C8_15 
REMARK    6  A    between atoms: C8_15  and  C9_16 
ROOT
HETATM    1  C4  UNL     1       0.705  52.698 -19.051  1.00  0.00     0.111 A 
HETATM    2  C5  UNL     1       1.161  53.482 -20.104  1.00  0.00     0.080 A 
HETATM    3  C6  UNL     1       0.746  53.073 -21.370  1.00  0.00     0.067 A 
HETATM    4  N3  UNL     1       0.981  53.577 -22.622  1.00  0.00    -0.298 N 
HETATM    5  N4  UNL     1       0.392  52.881 -23.611  1.00  0.00    -0.279 N 
ATOM      6  H4  UNL     1       0.420  53.061 -24.615  1.00  0.00     0.189 HD
HETATM    7  C7  UNL     1      -0.238  51.901 -22.965  1.00  0.00     0.171 A 
HETATM    8  C14 UNL     1      -0.061  51.961 -21.568  1.00  0.00     0.060 A 
HETATM    9  C15 UNL     1      -0.470  51.226 -20.459  1.00  0.00     0.108 A 
HETATM   10  N6  UNL     1      -0.079  51.603 -19.212  1.00  0.00    -0.351 N 
ATOM     11  H6  UNL     1      -0.376  51.063 -18.399  1.00  0.00     0.166 HD
HETATM   12  H8  UNL     1       1.533  54.393 -22.869  1.00  0.00     0.187 HD
ENDROOT
BRANCH   1  13
HETATM   13  N2  UNL     1       1.015  52.946 -17.713  1.00  0.00    -0.295 N 
HETATM   14  C3  UNL     1       1.119  52.052 -16.683  1.00  0.00     0.322 C 
HETATM   15  N1  UNL     1       1.413  52.686 -15.498  1.00  0.00    -0.335 N 
HETATM   16  O1  UNL     1       0.985  50.837 -16.760  1.00  0.00    -0.247 OA
HETATM   17  H5  UNL     1       1.211  53.672 -15.434  1.00  0.00     0.165 HD
HETATM   18  H6  UNL     1       1.293  53.902 -17.556  1.00  0.00     0.172 HD
BRANCH  15  19
HETATM   19  C2  UNL     1       1.520  51.952 -14.247  1.00  0.00     0.115 C 
HETATM   20  C1  UNL     1       1.858  50.478 -14.492  1.00  0.00     0.037 C 
BRANCH  19  21
HETATM   21  C16 UNL     1       0.243  52.151 -13.446  1.00  0.00    -0.036 A 
HETATM   22  C17 UNL     1       0.212  52.904 -12.259  1.00  0.00     0.012 A 
HETATM   23  C18 UNL     1      -0.975  53.043 -11.536  1.00  0.00     0.043 A 
HETATM   24  C19 UNL     1      -2.132  52.422 -11.989  1.00  0.00     0.116 A 
HETATM   25  F1  UNL     1      -3.269  52.555 -11.293  1.00  0.00    -0.206 F 
HETATM   26  C20 UNL     1      -2.125  51.659 -13.149  1.00  0.00     0.043 A 
HETATM   27  C21 UNL     1      -0.940  51.520 -13.873  1.00  0.00     0.012 A 
ENDBRANCH  19  21
ENDBRANCH  15  19
ENDBRANCH   1  13
BRANCH   7  28
HETATM   28  O2  UNL     1      -0.948  50.960 -23.625  1.00  0.00    -0.328 OA
BRANCH  28  29
HETATM   29  C8  UNL     1      -2.061  51.447 -24.385  1.00  0.00     0.234 C 
BRANCH  29  30
HETATM   30  C9  UNL     1      -2.588  50.483 -25.430  1.00  0.00     0.033 A 
HETATM   31  C10 UNL     1      -2.974  49.185 -25.096  1.00  0.00     0.027 A 
HETATM   32  C11 UNL     1      -3.490  48.355 -26.086  1.00  0.00     0.003 A 
HETATM   33  C12 UNL     1      -3.623  48.839 -27.382  1.00  0.00     0.017 A 
HETATM   34  C13 UNL     1      -3.236  50.143 -27.631  1.00  0.00     0.088 A 
HETATM   35  N5  UNL     1      -2.736  50.973 -26.691  1.00  0.00    -0.367 N 
ATOM     36  H5  UNL     1      -2.478  51.933 -26.918  1.00  0.00     0.165 HD
ENDBRANCH  29  30
ENDBRANCH  28  29
ENDBRANCH   7  28
TORSDOF 6
ENDMDL
MODEL 8
REMARK minimizedAffinity -8.6017561
REMARK  6 active torsions:
REMARK  status: ('A' for Active; 'I' for Inactive)
REMARK    1  A    between atoms: C2_2  and  N1_3 
REMARK    2  A    between atoms: C2_2  and  C16_27 
REMARK       I    between atoms: N1_3  and  C3_4 
REMARK       I    between atoms: C3_4  and  N2_6 
REMARK    3  A    between atoms: N2_6  and  C4_7 
REMARK    4  A    between atoms: C7_13  and  O2_14 
REMARK    5  A    between atoms: O2_14  and  C8_15 
REMARK    6  A    between atoms: C8_15  and  C9_16 
ROOT
HETATM    1  C4  UNL     1      -2.270  51.098 -26.722  1.00  0.00     0.111 A 
HETATM    2  C5  UNL     1      -1.507  52.213 -27.048  1.00  0.00     0.080 A 
HETATM    3  C6  UNL     1      -0.578  52.599 -26.083  1.00  0.00     0.067 A 
HETATM    4  N3  UNL     1       0.335  53.620 -26.041  1.00  0.00    -0.298 N 
HETATM    5  N4  UNL     1       1.061  53.657 -24.910  1.00  0.00    -0.279 N 
ATOM      6  H4  UNL     1       1.795  54.317 -24.650  1.00  0.00     0.189 HD
HETATM    7  C7  UNL     1       0.594  52.624 -24.209  1.00  0.00     0.171 A 
HETATM    8  C14 UNL     1      -0.427  51.921 -24.881  1.00  0.00     0.060 A 
HETATM    9  C15 UNL     1      -1.235  50.816 -24.630  1.00  0.00     0.108 A 
HETATM   10  N6  UNL     1      -2.150  50.419 -25.554  1.00  0.00    -0.351 N 
ATOM     11  H6  UNL     1      -2.745  49.612 -25.370  1.00  0.00     0.166 HD
HETATM   12  H8  UNL     1       0.511  54.324 -26.750  1.00  0.00     0.187 HD
ENDROOT
BRANCH   1  13
HETATM   13  N2  UNL     1      -3.252  50.564 -27.557  1.00  0.00    -0.295 N 
HETATM   14  C3  UNL     1      -3.711  49.277 -27.617  1.00  0.00     0.322 C 
HETATM   15  N1  UNL     1      -4.666  49.132 -28.597  1.00  0.00    -0.335 N 
HETATM   16  O1  UNL     1      -3.355  48.346 -26.906  1.00  0.00    -0.247 OA
HETATM   17  H5  UNL     1      -4.693  49.825 -29.328  1.00  0.00     0.165 HD
HETATM   18  H6  UNL     1      -3.727  51.274 -28.092  1.00  0.00     0.172 HD
BRANCH  15  19
HETATM   19  C2  UNL     1      -5.267  47.840 -28.889  1.00  0.00     0.115 C 
HETATM   20  C1  UNL     1      -5.246  47.541 -30.392  1.00  0.00     0.037 C 
BRANCH  19  21
HETATM   21  C16 UNL     1      -6.663  47.795 -28.287  1.00  0.00    -0.036 A 
HETATM   22  C17 UNL     1      -7.804  48.189 -29.008  1.00  0.00     0.012 A 
HETATM   23  C18 UNL     1      -9.067  48.159 -28.412  1.00  0.00     0.043 A 
HETATM   24  C19 UNL     1      -9.195  47.746 -27.093  1.00  0.00     0.116 A 
HETATM   25  F1  UNL     1     -10.406  47.718 -26.524  1.00  0.00    -0.206 F 
HETATM   26  C20 UNL     1      -8.082  47.366 -26.353  1.00  0.00     0.043 A 
HETATM   27  C21 UNL     1      -6.819  47.396 -26.947  1.00  0.00     0.012 A 
ENDBRANCH  19  21
ENDBRANCH  15  19
ENDBRANCH   1  13
BRANCH   7  28
HETATM   28  O2  UNL     1       1.069  52.329 -22.979  1.00  0.00    -0.328 OA
BRANCH  28  29
HETATM   29  C8  UNL     1       0.707  53.249 -21.942  1.00  0.00     0.234 C 
BRANCH  29  30
HETATM   30  C9  UNL     1       0.437  52.611 -20.592  1.00  0.00     0.033 A 
HETATM   31  C10 UNL     1      -0.169  51.359 -20.487  1.00  0.00     0.027 A 
HETATM   32  C11 UNL     1      -0.357  50.800 -19.226  1.00  0.00     0.003 A 
HETATM   33  C12 UNL     1       0.075  51.493 -18.102  1.00  0.00     0.017 A 
HETATM   34  C13 UNL     1       0.683  52.721 -18.289  1.00  0.00     0.088 A 
HETATM   35  N5  UNL     1       0.883  53.286 -19.499  1.00  0.00    -0.367 N 
ATOM     36  H5  UNL     1       1.351  54.187 -19.590  1.00  0.00     0.165 HD
ENDBRANCH  29  30
ENDBRANCH  28  29
ENDBRANCH   7  28
TORSDOF 6
ENDMDL
MODEL 9
REMARK minimizedAffinity -8.57494736
REMARK  6 active torsions:
REMARK  status: ('A' for Active; 'I' for Inactive)
REMARK    1  A    between atoms: C2_2  and  N1_3 
REMARK    2  A    between atoms: C2_2  and  C16_27 
REMARK       I    between atoms: N1_3  and  C3_4 
REMARK       I    between atoms: C3_4  and  N2_6 
REMARK    3  A    between atoms: N2_6  and  C4_7 
REMARK    4  A    between atoms: C7_13  and  O2_14 
REMARK    5  A    between atoms: O2_14  and  C8_15 
REMARK    6  A    between atoms: C8_15  and  C9_16 
ROOT
HETATM    1  C4  UNL     1      -2.892  49.259 -24.721  1.00  0.00     0.111 A 
HETATM    2  C5  UNL     1      -4.173  48.718 -24.672  1.00  0.00     0.080 A 
HETATM    3  C6  UNL     1      -4.750  48.452 -25.913  1.00  0.00     0.067 A 
HETATM    4  N3  UNL     1      -5.966  47.928 -26.268  1.00  0.00    -0.298 N 
HETATM    5  N4  UNL     1      -6.150  47.829 -27.596  1.00  0.00    -0.279 N 
ATOM      6  H4  UNL     1      -6.965  47.473 -28.097  1.00  0.00     0.189 HD
HETATM    7  C7  UNL     1      -5.013  48.305 -28.102  1.00  0.00     0.171 A 
HETATM    8  C14 UNL     1      -4.097  48.710 -27.111  1.00  0.00     0.060 A 
HETATM    9  C15 UNL     1      -2.818  49.257 -27.070  1.00  0.00     0.108 A 
HETATM   10  N6  UNL     1      -2.231  49.527 -25.874  1.00  0.00    -0.351 N 
ATOM     11  H6  UNL     1      -1.296  49.932 -25.843  1.00  0.00     0.166 HD
HETATM   12  H8  UNL     1      -6.712  47.620 -25.653  1.00  0.00     0.187 HD
ENDROOT
BRANCH   1  13
HETATM   13  N2  UNL     1      -2.154  49.595 -23.585  1.00  0.00    -0.295 N 
HETATM   14  C3  UNL     1      -1.769  50.836 -23.157  1.00  0.00     0.322 C 
HETATM   15  N1  UNL     1      -1.022  50.757 -22.004  1.00  0.00    -0.335 N 
HETATM   16  O1  UNL     1      -2.038  51.904 -23.692  1.00  0.00    -0.247 OA
HETATM   17  H5  UNL     1      -0.585  49.874 -21.791  1.00  0.00     0.165 HD
HETATM   18  H6  UNL     1      -1.999  48.804 -22.982  1.00  0.00     0.172 HD
BRANCH  15  19
HETATM   19  C2  UNL     1      -0.451  51.942 -21.384  1.00  0.00     0.115 C 
HETATM   20  C1  UNL     1       0.793  52.423 -22.139  1.00  0.00     0.037 C 
BRANCH  19  21
HETATM   21  C16 UNL     1      -0.187  51.654 -19.914  1.00  0.00    -0.036 A 
HETATM   22  C17 UNL     1       0.487  52.563 -19.081  1.00  0.00     0.012 A 
HETATM   23  C18 UNL     1       0.733  52.252 -17.742  1.00  0.00     0.043 A 
HETATM   24  C19 UNL     1       0.318  51.029 -17.233  1.00  0.00     0.116 A 
HETATM   25  F1  UNL     1       0.557  50.732 -15.949  1.00  0.00    -0.206 F 
HETATM   26  C20 UNL     1      -0.335  50.106 -18.038  1.00  0.00     0.043 A 
HETATM   27  C21 UNL     1      -0.583  50.415 -19.377  1.00  0.00     0.012 A 
ENDBRANCH  19  21
ENDBRANCH  15  19
ENDBRANCH   1  13
BRANCH   7  28
HETATM   28  O2  UNL     1      -4.811  48.388 -29.436  1.00  0.00    -0.328 OA
BRANCH  28  29
HETATM   29  C8  UNL     1      -5.922  47.999 -30.253  1.00  0.00     0.234 C 
BRANCH  29  30
HETATM   30  C9  UNL     1      -5.740  46.687 -30.992  1.00  0.00     0.033 A 
HETATM   31  C10 UNL     1      -4.571  46.404 -31.698  1.00  0.00     0.027 A 
HETATM   32  C11 UNL     1      -4.438  45.168 -32.323  1.00  0.00     0.003 A 
HETATM   33  C12 UNL     1      -5.465  44.238 -32.220  1.00  0.00     0.017 A 
HETATM   34  C13 UNL     1      -6.585  44.584 -31.487  1.00  0.00     0.088 A 
HETATM   35  N5  UNL     1      -6.741  45.774 -30.866  1.00  0.00    -0.367 N 
ATOM     36  H5  UNL     1      -7.578  45.980 -30.323  1.00  0.00     0.165 HD
ENDBRANCH  29  30
ENDBRANCH  28  29
ENDBRANCH   7  28
TORSDOF 6
ENDMDL
