MODEL 1
REMARK minimizedAffinity -9.88607311
REMARK  3 active torsions:
REMARK  status: ('A' for Active; 'I' for Inactive)
REMARK    1  A    between atoms: C4_4  and  C5_5 
REMARK    2  A    between atoms: C8_11  and  N3_12 
REMARK       I    between atoms: N3_12  and  C9_13 
REMARK       I    between atoms: C9_13  and  N4_15 
REMARK    3  A    between atoms: N4_15  and  C10_16 
ROOT
HETATM    1  C5  UNL     1       0.153  52.716 -24.171  1.00  0.00     0.072 A 
HETATM    2  N1  UNL     1       1.012  53.313 -25.013  1.00  0.00    -0.299 N 
ATOM      3  H1  UNL     1       1.869  53.816 -24.780  1.00  0.00     0.187 HD
HETATM    4  N2  UNL     1       0.490  53.097 -26.231  1.00  0.00    -0.299 N 
HETATM    5  C6  UNL     1      -0.661  52.365 -26.222  1.00  0.00     0.065 A 
HETATM    6  C7  UNL     1      -1.486  51.923 -27.254  1.00  0.00     0.080 A 
HETATM    7  C8  UNL     1      -2.568  51.146 -26.858  1.00  0.00     0.111 A 
HETATM    8  N6  UNL     1      -2.839  50.846 -25.565  1.00  0.00    -0.351 N 
ATOM      9  H6  UNL     1      -3.654  50.279 -25.333  1.00  0.00     0.166 HD
HETATM   10  C19 UNL     1      -2.023  51.300 -24.577  1.00  0.00     0.105 A 
HETATM   11  C20 UNL     1      -0.908  52.082 -24.885  1.00  0.00     0.036 A 
HETATM   12  H5  UNL     1       0.981  53.465 -27.038  1.00  0.00     0.187 HD
ENDROOT
BRANCH   7  13
HETATM   13  N3  UNL     1      -3.498  50.617 -27.759  1.00  0.00    -0.295 N 
HETATM   14  C9  UNL     1      -3.927  49.321 -27.846  1.00  0.00     0.322 C 
HETATM   15  O1  UNL     1      -3.610  48.394 -27.107  1.00  0.00    -0.247 OA
HETATM   16  N4  UNL     1      -4.804  49.151 -28.906  1.00  0.00    -0.338 N 
HETATM   17  H8  UNL     1      -4.625  49.751 -29.702  1.00  0.00     0.164 HD
HETATM   18  H7  UNL     1      -4.024  51.331 -28.237  1.00  0.00     0.172 HD
BRANCH  16  19
HETATM   19  C10 UNL     1      -5.345  47.815 -29.176  1.00  0.00     0.090 C 
HETATM   20  C11 UNL     1      -6.823  47.731 -28.787  1.00  0.00     0.030 C 
HETATM   21  C12 UNL     1      -7.730  48.395 -29.821  1.00  0.00     0.041 C 
HETATM   22  C13 UNL     1      -7.523  47.766 -31.174  1.00  0.00    -0.049 A 
HETATM   23  C14 UNL     1      -8.576  47.691 -32.100  1.00  0.00     0.024 A 
HETATM   24  C17 UNL     1      -6.270  47.261 -31.534  1.00  0.00    -0.035 A 
HETATM   25  C15 UNL     1      -8.346  47.082 -33.325  1.00  0.00     0.088 A 
HETATM   26  N5  UNL     1      -7.154  46.570 -33.695  1.00  0.00    -0.375 N 
HETATM   27  C16 UNL     1      -6.145  46.677 -32.797  1.00  0.00     0.095 A 
ATOM     28  H5  UNL     1      -7.019  46.127 -34.604  1.00  0.00     0.164 HD
HETATM   29  C18 UNL     1      -5.063  47.364 -30.631  1.00  0.00     0.065 C 
ENDBRANCH  16  19
ENDBRANCH   7  13
BRANCH   1  30
HETATM   30  C4  UNL     1       0.386  52.746 -22.730  1.00  0.00    -0.004 A 
HETATM   31  C3  UNL     1      -0.109  51.741 -21.898  1.00  0.00     0.038 A 
HETATM   32  C2  UNL     1       0.156  51.813 -20.535  1.00  0.00     0.005 A 
HETATM   33  C1  UNL     1      -0.329  50.736 -19.606  1.00  0.00     0.068 C 
HETATM   34  N7  UNL     1       0.869  52.819 -19.979  1.00  0.00    -0.369 N 
HETATM   35  C22 UNL     1       1.324  53.786 -20.799  1.00  0.00     0.089 A 
ATOM     36  H7  UNL     1       1.057  52.844 -18.977  1.00  0.00     0.165 HD
HETATM   37  C21 UNL     1       1.108  53.797 -22.164  1.00  0.00     0.031 A 
ENDBRANCH   1  30
TORSDOF 3
ENDMDL
MODEL 2
REMARK minimizedAffinity -9.77425671
REMARK  3 active torsions:
REMARK  status: ('A' for Active; 'I' for Inactive)
REMARK    1  A    between atoms: C4_4  and  C5_5 
REMARK    2  A    between atoms: C8_11  and  N3_12 
REMARK       I    between atoms: N3_12  and  C9_13 
REMARK       I    between atoms: C9_13  and  N4_15 
REMARK    3  A    between atoms: N4_15  and  C10_16 
ROOT
HETATM    1  C5  UNL     1       0.691  53.153 -23.683  1.00  0.00     0.072 A 
HETATM    2  N1  UNL     1       1.258  54.351 -23.900  1.00  0.00    -0.299 N 
ATOM      3  H1  UNL     1       1.401  54.823 -24.794  1.00  0.00     0.187 HD
HETATM    4  N2  UNL     1       1.595  54.788 -22.676  1.00  0.00    -0.299 N 
HETATM    5  C6  UNL     1       1.250  53.937 -21.666  1.00  0.00     0.065 A 
HETATM    6  C7  UNL     1       1.407  54.027 -20.285  1.00  0.00     0.080 A 
HETATM    7  C8  UNL     1       0.880  52.968 -19.557  1.00  0.00     0.111 A 
HETATM    8  N6  UNL     1       0.274  51.899 -20.126  1.00  0.00    -0.351 N 
ATOM      9  H6  UNL     1      -0.086  51.144 -19.542  1.00  0.00     0.166 HD
HETATM   10  C19 UNL     1       0.144  51.832 -21.478  1.00  0.00     0.105 A 
HETATM   11  C20 UNL     1       0.638  52.857 -22.287  1.00  0.00     0.036 A 
HETATM   12  H5  UNL     1       2.047  55.691 -22.595  1.00  0.00     0.187 HD
ENDROOT
BRANCH   7  13
HETATM   13  N3  UNL     1       0.946  52.893 -18.162  1.00  0.00    -0.295 N 
HETATM   14  C9  UNL     1       0.629  51.823 -17.371  1.00  0.00     0.322 C 
HETATM   15  O1  UNL     1       0.278  50.710 -17.751  1.00  0.00    -0.247 OA
HETATM   16  N4  UNL     1       0.753  52.136 -16.027  1.00  0.00    -0.338 N 
HETATM   17  H8  UNL     1       0.546  53.101 -15.798  1.00  0.00     0.164 HD
HETATM   18  H7  UNL     1       1.472  53.650 -17.757  1.00  0.00     0.172 HD
BRANCH  16  19
HETATM   19  C10 UNL     1       0.422  51.119 -15.024  1.00  0.00     0.090 C 
HETATM   20  C11 UNL     1       1.196  51.354 -13.725  1.00  0.00     0.030 C 
HETATM   21  C12 UNL     1       0.595  52.485 -12.892  1.00  0.00     0.041 C 
HETATM   22  C13 UNL     1      -0.848  52.188 -12.578  1.00  0.00    -0.049 A 
HETATM   23  C14 UNL     1      -1.433  52.647 -11.387  1.00  0.00     0.024 A 
HETATM   24  C17 UNL     1      -1.633  51.462 -13.479  1.00  0.00    -0.035 A 
HETATM   25  C15 UNL     1      -2.759  52.330 -11.129  1.00  0.00     0.088 A 
HETATM   26  N5  UNL     1      -3.537  51.619 -11.970  1.00  0.00    -0.375 N 
HETATM   27  C16 UNL     1      -2.959  51.208 -13.125  1.00  0.00     0.095 A 
ATOM     28  H5  UNL     1      -4.508  51.401 -11.748  1.00  0.00     0.164 HD
HETATM   29  C18 UNL     1      -1.108  50.992 -14.817  1.00  0.00     0.065 C 
ENDBRANCH  16  19
ENDBRANCH   7  13
BRANCH   1  30
HETATM   30  C4  UNL     1       0.195  52.354 -24.800  1.00  0.00    -0.004 A 
HETATM   31  C3  UNL     1       0.788  52.430 -26.061  1.00  0.00     0.038 A 
HETATM   32  C2  UNL     1       0.284  51.635 -27.084  1.00  0.00     0.005 A 
HETATM   33  C1  UNL     1       0.912  51.659 -28.448  1.00  0.00     0.068 C 
HETATM   34  N7  UNL     1      -0.761  50.794 -26.911  1.00  0.00    -0.369 N 
HETATM   35  C22 UNL     1      -1.328  50.749 -25.690  1.00  0.00     0.089 A 
ATOM     36  H7  UNL     1      -1.107  50.215 -27.676  1.00  0.00     0.165 HD
HETATM   37  C21 UNL     1      -0.894  51.503 -24.615  1.00  0.00     0.031 A 
ENDBRANCH   1  30
TORSDOF 3
ENDMDL
MODEL 3
REMARK minimizedAffinity -9.61456299
REMARK  3 active torsions:
REMARK  status: ('A' for Active; 'I' for Inactive)
REMARK    1  A    between atoms: C4_4  and  C5_5 
REMARK    2  A    between atoms: C8_11  and  N3_12 
REMARK       I    between atoms: N3_12  and  C9_13 
REMARK       I    between atoms: C9_13  and  N4_15 
REMARK    3  A    between atoms: N4_15  and  C10_16 
ROOT
HETATM    1  C5  UNL     1       0.614  53.082 -23.786  1.00  0.00     0.072 A 
HETATM    2  N1  UNL     1       1.125  54.286 -24.091  1.00  0.00    -0.299 N 
ATOM      3  H1  UNL     1       1.195  54.721 -25.011  1.00  0.00     0.187 HD
HETATM    4  N2  UNL     1       1.524  54.788 -22.911  1.00  0.00    -0.299 N 
HETATM    5  C6  UNL     1       1.274  53.973 -21.845  1.00  0.00     0.065 A 
HETATM    6  C7  UNL     1       1.516  54.130 -20.482  1.00  0.00     0.080 A 
HETATM    7  C8  UNL     1       1.072  53.088 -19.677  1.00  0.00     0.111 A 
HETATM    8  N6  UNL     1       0.468  51.976 -20.159  1.00  0.00    -0.351 N 
ATOM      9  H6  UNL     1       0.172  51.238 -19.520  1.00  0.00     0.166 HD
HETATM   10  C19 UNL     1       0.255  51.844 -21.495  1.00  0.00     0.105 A 
HETATM   11  C20 UNL     1       0.661  52.847 -22.378  1.00  0.00     0.036 A 
HETATM   12  H5  UNL     1       1.949  55.707 -22.899  1.00  0.00     0.187 HD
ENDROOT
BRANCH   7  13
HETATM   13  N3  UNL     1       1.230  53.078 -18.287  1.00  0.00    -0.295 N 
HETATM   14  C9  UNL     1       0.881  52.081 -17.418  1.00  0.00     0.322 C 
HETATM   15  O1  UNL     1       0.412  50.986 -17.711  1.00  0.00    -0.247 OA
HETATM   16  N4  UNL     1       1.124  52.450 -16.104  1.00  0.00    -0.338 N 
HETATM   17  H8  UNL     1       1.015  53.440 -15.917  1.00  0.00     0.164 HD
HETATM   18  H7  UNL     1       1.844  53.807 -17.961  1.00  0.00     0.172 HD
BRANCH  16  19
HETATM   19  C10 UNL     1       0.781  51.518 -15.026  1.00  0.00     0.090 C 
HETATM   20  C11 UNL     1       1.999  50.694 -14.601  1.00  0.00     0.030 C 
HETATM   21  C12 UNL     1       2.953  51.493 -13.715  1.00  0.00     0.041 C 
HETATM   22  C13 UNL     1       2.229  51.997 -12.495  1.00  0.00    -0.049 A 
HETATM   23  C14 UNL     1       2.906  52.168 -11.277  1.00  0.00     0.024 A 
HETATM   24  C17 UNL     1       0.870  52.319 -12.561  1.00  0.00    -0.035 A 
HETATM   25  C15 UNL     1       2.194  52.613 -10.173  1.00  0.00     0.088 A 
HETATM   26  N5  UNL     1       0.881  52.916 -10.201  1.00  0.00    -0.375 N 
HETATM   27  C16 UNL     1       0.252  52.769 -11.393  1.00  0.00     0.095 A 
ATOM     28  H5  UNL     1       0.386  53.239  -9.370  1.00  0.00     0.164 HD
HETATM   29  C18 UNL     1       0.079  52.236 -13.847  1.00  0.00     0.065 C 
ENDBRANCH  16  19
ENDBRANCH   7  13
BRANCH   1  30
HETATM   30  C4  UNL     1       0.076  52.218 -24.832  1.00  0.00    -0.004 A 
HETATM   31  C3  UNL     1      -0.993  51.358 -24.580  1.00  0.00     0.038 A 
HETATM   32  C2  UNL     1      -1.474  50.569 -25.618  1.00  0.00     0.005 A 
HETATM   33  C1  UNL     1      -2.645  49.653 -25.401  1.00  0.00     0.068 C 
HETATM   34  N7  UNL     1      -0.945  50.593 -26.863  1.00  0.00    -0.369 N 
HETATM   35  C22 UNL     1       0.097  51.418 -27.080  1.00  0.00     0.089 A 
ATOM     36  H7  UNL     1      -1.321  50.009 -27.610  1.00  0.00     0.165 HD
HETATM   37  C21 UNL     1       0.641  52.238 -26.108  1.00  0.00     0.031 A 
ENDBRANCH   1  30
TORSDOF 3
ENDMDL
MODEL 4
REMARK minimizedAffinity -9.20576668
REMARK  3 active torsions:
REMARK  status: ('A' for Active; 'I' for Inactive)
REMARK    1  A    between atoms: C4_4  and  C5_5 
REMARK    2  A    between atoms: C8_11  and  N3_12 
REMARK       I    between atoms: N3_12  and  C9_13 
REMARK       I    between atoms: C9_13  and  N4_15 
REMARK    3  A    between atoms: N4_15  and  C10_16 
ROOT
HETATM    1  C5  UNL     1      -1.785  50.317 -24.600  1.00  0.00     0.072 A 
HETATM    2  N1  UNL     1      -1.924  49.903 -23.330  1.00  0.00    -0.299 N 
ATOM      3  H1  UNL     1      -1.334  50.133 -22.529  1.00  0.00     0.187 HD
HETATM    4  N2  UNL     1      -3.013  49.118 -23.351  1.00  0.00    -0.299 N 
HETATM    5  C6  UNL     1      -3.605  49.020 -24.577  1.00  0.00     0.065 A 
HETATM    6  C7  UNL     1      -4.738  48.332 -25.006  1.00  0.00     0.080 A 
HETATM    7  C8  UNL     1      -5.069  48.510 -26.344  1.00  0.00     0.111 A 
HETATM    8  N6  UNL     1      -4.345  49.272 -27.198  1.00  0.00    -0.351 N 
ATOM      9  H6  UNL     1      -4.631  49.358 -28.173  1.00  0.00     0.166 HD
HETATM   10  C19 UNL     1      -3.237  49.924 -26.754  1.00  0.00     0.105 A 
HETATM   11  C20 UNL     1      -2.835  49.808 -25.422  1.00  0.00     0.036 A 
HETATM   12  H5  UNL     1      -3.313  48.687 -22.484  1.00  0.00     0.187 HD
ENDROOT
BRANCH   7  13
HETATM   13  N3  UNL     1      -6.174  47.897 -26.944  1.00  0.00    -0.295 N 
HETATM   14  C9  UNL     1      -6.245  47.358 -28.200  1.00  0.00     0.322 C 
HETATM   15  O1  UNL     1      -5.329  47.268 -29.011  1.00  0.00    -0.247 OA
HETATM   16  N4  UNL     1      -7.523  46.898 -28.477  1.00  0.00    -0.338 N 
HETATM   17  H8  UNL     1      -8.266  47.424 -28.035  1.00  0.00     0.164 HD
HETATM   18  H7  UNL     1      -6.900  47.673 -26.283  1.00  0.00     0.172 HD
BRANCH  16  19
HETATM   19  C10 UNL     1      -7.799  46.315 -29.794  1.00  0.00     0.090 C 
HETATM   20  C11 UNL     1      -8.441  47.343 -30.728  1.00  0.00     0.030 C 
HETATM   21  C12 UNL     1      -7.419  48.328 -31.291  1.00  0.00     0.041 C 
HETATM   22  C13 UNL     1      -6.331  47.586 -32.022  1.00  0.00    -0.049 A 
HETATM   23  C14 UNL     1      -5.674  48.169 -33.117  1.00  0.00     0.024 A 
HETATM   24  C17 UNL     1      -5.945  46.307 -31.608  1.00  0.00    -0.035 A 
HETATM   25  C15 UNL     1      -4.694  47.440 -33.775  1.00  0.00     0.088 A 
HETATM   26  N5  UNL     1      -4.312  46.199 -33.410  1.00  0.00    -0.375 N 
HETATM   27  C16 UNL     1      -4.940  45.666 -32.334  1.00  0.00     0.095 A 
ATOM     28  H5  UNL     1      -3.589  45.689 -33.917  1.00  0.00     0.164 HD
HETATM   29  C18 UNL     1      -6.545  45.632 -30.395  1.00  0.00     0.065 C 
ENDBRANCH  16  19
ENDBRANCH   7  13
BRANCH   1  30
HETATM   30  C4  UNL     1      -0.683  51.198 -24.976  1.00  0.00    -0.004 A 
HETATM   31  C3  UNL     1       0.059  50.970 -26.136  1.00  0.00     0.038 A 
HETATM   32  C2  UNL     1       1.087  51.851 -26.453  1.00  0.00     0.005 A 
HETATM   33  C1  UNL     1       1.891  51.664 -27.708  1.00  0.00     0.068 C 
HETATM   34  N7  UNL     1       1.404  52.917 -25.682  1.00  0.00    -0.369 N 
HETATM   35  C22 UNL     1       0.685  53.108 -24.559  1.00  0.00     0.089 A 
ATOM     36  H7  UNL     1       2.158  53.552 -25.941  1.00  0.00     0.165 HD
HETATM   37  C21 UNL     1      -0.354  52.284 -24.165  1.00  0.00     0.031 A 
ENDBRANCH   1  30
TORSDOF 3
ENDMDL
MODEL 5
REMARK minimizedAffinity -9.19105339
REMARK  3 active torsions:
REMARK  status: ('A' for Active; 'I' for Inactive)
REMARK    1  A    between atoms: C4_4  and  C5_5 
REMARK    2  A    between atoms: C8_11  and  N3_12 
REMARK       I    between atoms: N3_12  and  C9_13 
REMARK       I    between atoms: C9_13  and  N4_15 
REMARK    3  A    between atoms: N4_15  and  C10_16 
ROOT
HETATM    1  C5  UNL     1      -1.458  50.773 -23.683  1.00  0.00     0.072 A 
HETATM    2  N1  UNL     1      -1.431  49.985 -22.597  1.00  0.00    -0.299 N 
ATOM      3  H1  UNL     1      -0.859  50.095 -21.758  1.00  0.00     0.187 HD
HETATM    4  N2  UNL     1      -2.324  49.019 -22.863  1.00  0.00    -0.299 N 
HETATM    5  C6  UNL     1      -2.951  49.156 -24.067  1.00  0.00     0.065 A 
HETATM    6  C7  UNL     1      -3.932  48.390 -24.694  1.00  0.00     0.080 A 
HETATM    7  C8  UNL     1      -4.371  48.874 -25.920  1.00  0.00     0.111 A 
HETATM    8  N6  UNL     1      -3.879  49.995 -26.500  1.00  0.00    -0.351 N 
ATOM      9  H6  UNL     1      -4.232  50.298 -27.407  1.00  0.00     0.166 HD
HETATM   10  C19 UNL     1      -2.913  50.718 -25.871  1.00  0.00     0.105 A 
HETATM   11  C20 UNL     1      -2.419  50.308 -24.631  1.00  0.00     0.036 A 
HETATM   12  H5  UNL     1      -2.474  48.297 -22.168  1.00  0.00     0.187 HD
ENDROOT
BRANCH   7  13
HETATM   13  N3  UNL     1      -5.350  48.235 -26.687  1.00  0.00    -0.295 N 
HETATM   14  C9  UNL     1      -5.337  48.016 -28.037  1.00  0.00     0.322 C 
HETATM   15  O1  UNL     1      -4.431  48.298 -28.816  1.00  0.00    -0.247 OA
HETATM   16  N4  UNL     1      -6.510  47.412 -28.460  1.00  0.00    -0.338 N 
HETATM   17  H8  UNL     1      -7.333  47.668 -27.928  1.00  0.00     0.164 HD
HETATM   18  H7  UNL     1      -6.013  47.727 -26.124  1.00  0.00     0.172 HD
BRANCH  16  19
HETATM   19  C10 UNL     1      -6.692  47.128 -29.887  1.00  0.00     0.090 C 
HETATM   20  C11 UNL     1      -6.573  45.628 -30.170  1.00  0.00     0.030 C 
HETATM   21  C12 UNL     1      -7.837  44.866 -29.777  1.00  0.00     0.041 C 
HETATM   22  C13 UNL     1      -9.030  45.428 -30.503  1.00  0.00    -0.049 A 
HETATM   23  C14 UNL     1     -10.115  44.606 -30.847  1.00  0.00     0.024 A 
HETATM   24  C17 UNL     1      -9.082  46.786 -30.832  1.00  0.00    -0.035 A 
HETATM   25  C15 UNL     1     -11.183  45.162 -31.536  1.00  0.00     0.088 A 
HETATM   26  N5  UNL     1     -11.255  46.463 -31.882  1.00  0.00    -0.375 N 
HETATM   27  C16 UNL     1     -10.209  47.244 -31.517  1.00  0.00     0.095 A 
ATOM     28  H5  UNL     1     -12.055  46.839 -32.392  1.00  0.00     0.164 HD
HETATM   29  C18 UNL     1      -7.995  47.759 -30.438  1.00  0.00     0.065 C 
ENDBRANCH  16  19
ENDBRANCH   7  13
BRANCH   1  30
HETATM   30  C4  UNL     1      -0.596  51.949 -23.768  1.00  0.00    -0.004 A 
HETATM   31  C3  UNL     1       0.026  52.471 -22.633  1.00  0.00     0.038 A 
HETATM   32  C2  UNL     1       0.848  53.583 -22.776  1.00  0.00     0.005 A 
HETATM   33  C1  UNL     1       1.565  54.159 -21.587  1.00  0.00     0.068 C 
HETATM   34  N7  UNL     1       1.067  54.185 -23.967  1.00  0.00    -0.369 N 
HETATM   35  C22 UNL     1       0.444  53.674 -25.046  1.00  0.00     0.089 A 
ATOM     36  H7  UNL     1       1.681  54.996 -24.046  1.00  0.00     0.165 HD
HETATM   37  C21 UNL     1      -0.391  52.573 -24.999  1.00  0.00     0.031 A 
ENDBRANCH   1  30
TORSDOF 3
ENDMDL
MODEL 6
REMARK minimizedAffinity -9.17724037
REMARK  3 active torsions:
REMARK  status: ('A' for Active; 'I' for Inactive)
REMARK    1  A    between atoms: C4_4  and  C5_5 
REMARK    2  A    between atoms: C8_11  and  N3_12 
REMARK       I    between atoms: N3_12  and  C9_13 
REMARK       I    between atoms: C9_13  and  N4_15 
REMARK    3  A    between atoms: N4_15  and  C10_16 
ROOT
HETATM    1  C5  UNL     1      -1.778  50.340 -23.913  1.00  0.00     0.072 A 
HETATM    2  N1  UNL     1      -2.131  49.375 -23.048  1.00  0.00    -0.299 N 
ATOM      3  H1  UNL     1      -1.849  49.277 -22.072  1.00  0.00     0.187 HD
HETATM    4  N2  UNL     1      -2.938  48.570 -23.756  1.00  0.00    -0.299 N 
HETATM    5  C6  UNL     1      -3.147  48.979 -25.041  1.00  0.00     0.065 A 
HETATM    6  C7  UNL     1      -3.914  48.441 -26.072  1.00  0.00     0.080 A 
HETATM    7  C8  UNL     1      -3.921  49.175 -27.252  1.00  0.00     0.111 A 
HETATM    8  N6  UNL     1      -3.221  50.322 -27.423  1.00  0.00    -0.351 N 
ATOM      9  H6  UNL     1      -3.257  50.813 -28.316  1.00  0.00     0.166 HD
HETATM   10  C19 UNL     1      -2.472  50.818 -26.403  1.00  0.00     0.105 A 
HETATM   11  C20 UNL     1      -2.413  50.150 -25.178  1.00  0.00     0.036 A 
HETATM   12  H5  UNL     1      -3.332  47.757 -23.295  1.00  0.00     0.187 HD
ENDROOT
BRANCH   7  13
HETATM   13  N3  UNL     1      -4.637  48.785 -28.388  1.00  0.00    -0.295 N 
HETATM   14  C9  UNL     1      -5.817  48.093 -28.431  1.00  0.00     0.322 C 
HETATM   15  O1  UNL     1      -6.490  47.736 -27.470  1.00  0.00    -0.247 OA
HETATM   16  N4  UNL     1      -6.196  47.826 -29.737  1.00  0.00    -0.338 N 
HETATM   17  H8  UNL     1      -5.426  47.687 -30.380  1.00  0.00     0.164 HD
HETATM   18  H7  UNL     1      -4.323  49.252 -29.224  1.00  0.00     0.172 HD
BRANCH  16  19
HETATM   19  C10 UNL     1      -7.423  47.061 -29.980  1.00  0.00     0.090 C 
HETATM   20  C11 UNL     1      -8.543  47.968 -30.496  1.00  0.00     0.030 C 
HETATM   21  C12 UNL     1      -8.371  48.314 -31.973  1.00  0.00     0.041 C 
HETATM   22  C13 UNL     1      -8.315  47.055 -32.798  1.00  0.00    -0.049 A 
HETATM   23  C14 UNL     1      -8.793  47.039 -34.118  1.00  0.00     0.024 A 
HETATM   24  C17 UNL     1      -7.768  45.884 -32.265  1.00  0.00    -0.035 A 
HETATM   25  C15 UNL     1      -8.743  45.851 -34.833  1.00  0.00     0.088 A 
HETATM   26  N5  UNL     1      -8.237  44.702 -34.341  1.00  0.00    -0.375 N 
HETATM   27  C16 UNL     1      -7.757  44.747 -33.075  1.00  0.00     0.095 A 
ATOM     28  H5  UNL     1      -8.217  43.845 -34.894  1.00  0.00     0.164 HD
HETATM   29  C18 UNL     1      -7.163  45.828 -30.881  1.00  0.00     0.065 C 
ENDBRANCH  16  19
ENDBRANCH   7  13
BRANCH   1  30
HETATM   30  C4  UNL     1      -0.881  51.415 -23.500  1.00  0.00    -0.004 A 
HETATM   31  C3  UNL     1      -0.625  51.662 -22.151  1.00  0.00     0.038 A 
HETATM   32  C2  UNL     1       0.250  52.690 -21.817  1.00  0.00     0.005 A 
HETATM   33  C1  UNL     1       0.582  52.971 -20.379  1.00  0.00     0.068 C 
HETATM   34  N7  UNL     1       0.859  53.465 -22.743  1.00  0.00    -0.369 N 
HETATM   35  C22 UNL     1       0.584  53.219 -24.038  1.00  0.00     0.089 A 
ATOM     36  H7  UNL     1       1.503  54.208 -22.471  1.00  0.00     0.165 HD
HETATM   37  C21 UNL     1      -0.272  52.219 -24.463  1.00  0.00     0.031 A 
ENDBRANCH   1  30
TORSDOF 3
ENDMDL
MODEL 7
REMARK minimizedAffinity -9.12929535
REMARK  3 active torsions:
REMARK  status: ('A' for Active; 'I' for Inactive)
REMARK    1  A    between atoms: C4_4  and  C5_5 
REMARK    2  A    between atoms: C8_11  and  N3_12 
REMARK       I    between atoms: N3_12  and  C9_13 
REMARK       I    between atoms: C9_13  and  N4_15 
REMARK    3  A    between atoms: N4_15  and  C10_16 
ROOT
HETATM    1  C5  UNL     1      -0.002  52.371 -23.459  1.00  0.00     0.072 A 
HETATM    2  N1  UNL     1       0.660  53.405 -24.003  1.00  0.00    -0.299 N 
ATOM      3  H1  UNL     1       0.719  53.660 -24.989  1.00  0.00     0.187 HD
HETATM    4  N2  UNL     1       1.224  54.028 -22.956  1.00  0.00    -0.299 N 
HETATM    5  C6  UNL     1       0.941  53.458 -21.749  1.00  0.00     0.065 A 
HETATM    6  C7  UNL     1       1.313  53.802 -20.451  1.00  0.00     0.080 A 
HETATM    7  C8  UNL     1       0.784  52.998 -19.449  1.00  0.00     0.111 A 
HETATM    8  N6  UNL     1      -0.019  51.935 -19.690  1.00  0.00    -0.351 N 
ATOM      9  H6  UNL     1      -0.371  51.374 -18.914  1.00  0.00     0.166 HD
HETATM   10  C19 UNL     1      -0.357  51.615 -20.968  1.00  0.00     0.105 A 
HETATM   11  C20 UNL     1       0.123  52.373 -22.037  1.00  0.00     0.036 A 
HETATM   12  H5  UNL     1       1.784  54.854 -23.132  1.00  0.00     0.187 HD
ENDROOT
BRANCH   7  13
HETATM   13  N3  UNL     1       1.050  53.198 -18.091  1.00  0.00    -0.295 N 
HETATM   14  C9  UNL     1       1.125  52.248 -17.109  1.00  0.00     0.322 C 
HETATM   15  O1  UNL     1       1.022  51.034 -17.256  1.00  0.00    -0.247 OA
HETATM   16  N4  UNL     1       1.340  52.824 -15.867  1.00  0.00    -0.338 N 
HETATM   17  H8  UNL     1       0.925  53.740 -15.749  1.00  0.00     0.164 HD
HETATM   18  H7  UNL     1       1.413  54.118 -17.898  1.00  0.00     0.172 HD
BRANCH  16  19
HETATM   19  C10 UNL     1       1.416  51.960 -14.684  1.00  0.00     0.090 C 
HETATM   20  C11 UNL     1       0.138  52.058 -13.848  1.00  0.00     0.030 C 
HETATM   21  C12 UNL     1      -1.012  51.258 -14.457  1.00  0.00     0.041 C 
HETATM   22  C13 UNL     1      -0.615  49.814 -14.613  1.00  0.00    -0.049 A 
HETATM   23  C14 UNL     1      -1.573  48.792 -14.519  1.00  0.00     0.024 A 
HETATM   24  C17 UNL     1       0.715  49.470 -14.870  1.00  0.00    -0.035 A 
HETATM   25  C15 UNL     1      -1.159  47.474 -14.646  1.00  0.00     0.088 A 
HETATM   26  N5  UNL     1       0.119  47.110 -14.878  1.00  0.00    -0.375 N 
HETATM   27  C16 UNL     1       1.022  48.113 -14.991  1.00  0.00     0.095 A 
ATOM     28  H5  UNL     1       0.390  46.130 -14.964  1.00  0.00     0.164 HD
HETATM   29  C18 UNL     1       1.799  50.506 -15.059  1.00  0.00     0.065 C 
ENDBRANCH  16  19
ENDBRANCH   7  13
BRANCH   1  30
HETATM   30  C4  UNL     1      -0.747  51.441 -24.303  1.00  0.00    -0.004 A 
HETATM   31  C3  UNL     1      -1.734  50.613 -23.767  1.00  0.00     0.038 A 
HETATM   32  C2  UNL     1      -2.422  49.758 -24.620  1.00  0.00     0.005 A 
HETATM   33  C1  UNL     1      -3.516  48.872 -24.094  1.00  0.00     0.068 C 
HETATM   34  N7  UNL     1      -2.173  49.690 -25.948  1.00  0.00    -0.369 N 
HETATM   35  C22 UNL     1      -1.206  50.487 -26.441  1.00  0.00     0.089 A 
ATOM     36  H7  UNL     1      -2.698  49.059 -26.554  1.00  0.00     0.165 HD
HETATM   37  C21 UNL     1      -0.470  51.367 -25.668  1.00  0.00     0.031 A 
ENDBRANCH   1  30
TORSDOF 3
ENDMDL
MODEL 8
REMARK minimizedAffinity -9.12660122
REMARK  3 active torsions:
REMARK  status: ('A' for Active; 'I' for Inactive)
REMARK    1  A    between atoms: C4_4  and  C5_5 
REMARK    2  A    between atoms: C8_11  and  N3_12 
REMARK       I    between atoms: N3_12  and  C9_13 
REMARK       I    between atoms: C9_13  and  N4_15 
REMARK    3  A    between atoms: N4_15  and  C10_16 
ROOT
HETATM    1  C5  UNL     1      -0.543  51.289 -21.301  1.00  0.00     0.072 A 
HETATM    2  N1  UNL     1      -0.928  50.012 -21.147  1.00  0.00    -0.299 N 
ATOM      3  H1  UNL     1      -1.308  49.384 -21.856  1.00  0.00     0.187 HD
HETATM    4  N2  UNL     1      -0.701  49.748 -19.851  1.00  0.00    -0.299 N 
HETATM    5  C6  UNL     1      -0.161  50.791 -19.156  1.00  0.00     0.065 A 
HETATM    6  C7  UNL     1       0.227  50.914 -17.823  1.00  0.00     0.080 A 
HETATM    7  C8  UNL     1       0.791  52.137 -17.480  1.00  0.00     0.111 A 
HETATM    8  N6  UNL     1       0.941  53.162 -18.353  1.00  0.00    -0.351 N 
ATOM      9  H6  UNL     1       1.353  54.041 -18.041  1.00  0.00     0.166 HD
HETATM   10  C19 UNL     1       0.543  53.018 -19.645  1.00  0.00     0.105 A 
HETATM   11  C20 UNL     1      -0.027  51.819 -20.079  1.00  0.00     0.036 A 
HETATM   12  H5  UNL     1      -0.922  48.823 -19.502  1.00  0.00     0.187 HD
ENDROOT
BRANCH   7  13
HETATM   13  N3  UNL     1       1.238  52.435 -16.189  1.00  0.00    -0.295 N 
HETATM   14  C9  UNL     1       0.771  51.924 -15.009  1.00  0.00     0.322 C 
HETATM   15  O1  UNL     1      -0.094  51.065 -14.875  1.00  0.00    -0.247 OA
HETATM   16  N4  UNL     1       1.409  52.502 -13.923  1.00  0.00    -0.338 N 
HETATM   17  H8  UNL     1       1.687  53.466 -14.061  1.00  0.00     0.164 HD
HETATM   18  H7  UNL     1       2.120  52.923 -16.186  1.00  0.00     0.172 HD
BRANCH  16  19
HETATM   19  C10 UNL     1       1.016  52.101 -12.568  1.00  0.00     0.090 C 
HETATM   20  C11 UNL     1       2.232  52.018 -11.643  1.00  0.00     0.030 C 
HETATM   21  C12 UNL     1       2.702  53.397 -11.184  1.00  0.00     0.041 C 
HETATM   22  C13 UNL     1       1.581  54.122 -10.487  1.00  0.00    -0.049 A 
HETATM   23  C14 UNL     1       1.848  55.039  -9.458  1.00  0.00     0.024 A 
HETATM   24  C17 UNL     1       0.253  53.904 -10.868  1.00  0.00    -0.035 A 
HETATM   25  C15 UNL     1       0.783  55.667  -8.828  1.00  0.00     0.088 A 
HETATM   26  N5  UNL     1      -0.508  55.465  -9.161  1.00  0.00    -0.375 N 
HETATM   27  C16 UNL     1      -0.742  54.596 -10.175  1.00  0.00     0.095 A 
ATOM     28  H5  UNL     1      -1.268  55.941  -8.676  1.00  0.00     0.164 HD
HETATM   29  C18 UNL     1      -0.123  52.992 -12.013  1.00  0.00     0.065 C 
ENDBRANCH  16  19
ENDBRANCH   7  13
BRANCH   1  30
HETATM   30  C4  UNL     1      -0.650  51.945 -22.600  1.00  0.00    -0.004 A 
HETATM   31  C3  UNL     1      -1.792  51.801 -23.389  1.00  0.00     0.038 A 
HETATM   32  C2  UNL     1      -1.845  52.460 -24.612  1.00  0.00     0.005 A 
HETATM   33  C1  UNL     1      -3.068  52.361 -25.480  1.00  0.00     0.068 C 
HETATM   34  N7  UNL     1      -0.835  53.233 -25.073  1.00  0.00    -0.369 N 
HETATM   35  C22 UNL     1       0.264  53.345 -24.303  1.00  0.00     0.089 A 
ATOM     36  H7  UNL     1      -0.903  53.713 -25.971  1.00  0.00     0.165 HD
HETATM   37  C21 UNL     1       0.405  52.726 -23.074  1.00  0.00     0.031 A 
ENDBRANCH   1  30
TORSDOF 3
ENDMDL
MODEL 9
REMARK minimizedAffinity -9.04168224
REMARK  3 active torsions:
REMARK  status: ('A' for Active; 'I' for Inactive)
REMARK    1  A    between atoms: C4_4  and  C5_5 
REMARK    2  A    between atoms: C8_11  and  N3_12 
REMARK       I    between atoms: N3_12  and  C9_13 
REMARK       I    between atoms: C9_13  and  N4_15 
REMARK    3  A    between atoms: N4_15  and  C10_16 
ROOT
HETATM    1  C5  UNL     1       0.990  53.552 -23.749  1.00  0.00     0.072 A 
HETATM    2  N1  UNL     1       1.585  54.748 -23.608  1.00  0.00    -0.299 N 
ATOM      3  H1  UNL     1       1.891  55.385 -24.344  1.00  0.00     0.187 HD
HETATM    4  N2  UNL     1       1.686  54.916 -22.280  1.00  0.00    -0.299 N 
HETATM    5  C6  UNL     1       1.162  53.892 -21.546  1.00  0.00     0.065 A 
HETATM    6  C7  UNL     1       1.057  53.695 -20.171  1.00  0.00     0.080 A 
HETATM    7  C8  UNL     1       0.406  52.530 -19.785  1.00  0.00     0.111 A 
HETATM    8  N6  UNL     1      -0.081  51.620 -20.663  1.00  0.00    -0.351 N 
ATOM      9  H6  UNL     1      -0.541  50.777 -20.322  1.00  0.00     0.166 HD
HETATM   10  C19 UNL     1       0.045  51.833 -22.001  1.00  0.00     0.105 A 
HETATM   11  C20 UNL     1       0.679  52.982 -22.478  1.00  0.00     0.036 A 
HETATM   12  H5  UNL     1       2.113  55.768 -21.933  1.00  0.00     0.187 HD
ENDROOT
BRANCH   7  13
HETATM   13  N3  UNL     1       0.211  52.172 -18.448  1.00  0.00    -0.295 N 
HETATM   14  C9  UNL     1       1.075  52.356 -17.403  1.00  0.00     0.322 C 
HETATM   15  O1  UNL     1       2.163  52.921 -17.445  1.00  0.00    -0.247 OA
HETATM   16  N4  UNL     1       0.571  51.814 -16.231  1.00  0.00    -0.338 N 
HETATM   17  H8  UNL     1      -0.007  50.993 -16.361  1.00  0.00     0.164 HD
HETATM   18  H7  UNL     1      -0.749  51.945 -18.243  1.00  0.00     0.172 HD
BRANCH  16  19
HETATM   19  C10 UNL     1       1.376  51.887 -15.008  1.00  0.00     0.090 C 
HETATM   20  C11 UNL     1       0.495  52.151 -13.784  1.00  0.00     0.030 C 
HETATM   21  C12 UNL     1      -0.239  50.894 -13.321  1.00  0.00     0.041 C 
HETATM   22  C13 UNL     1       0.748  49.800 -13.012  1.00  0.00    -0.049 A 
HETATM   23  C14 UNL     1       0.474  48.844 -12.021  1.00  0.00     0.024 A 
HETATM   24  C17 UNL     1       1.950  49.711 -13.720  1.00  0.00    -0.035 A 
HETATM   25  C15 UNL     1       1.423  47.867 -11.753  1.00  0.00     0.088 A 
HETATM   26  N5  UNL     1       2.597  47.765 -12.408  1.00  0.00    -0.375 N 
HETATM   27  C16 UNL     1       2.830  48.682 -13.378  1.00  0.00     0.095 A 
ATOM     28  H5  UNL     1       3.274  47.036 -12.184  1.00  0.00     0.164 HD
HETATM   29  C18 UNL     1       2.297  50.651 -14.852  1.00  0.00     0.065 C 
ENDBRANCH  16  19
ENDBRANCH   7  13
BRANCH   1  30
HETATM   30  C4  UNL     1       0.714  53.013 -25.077  1.00  0.00    -0.004 A 
HETATM   31  C3  UNL     1      -0.071  53.716 -25.992  1.00  0.00     0.038 A 
HETATM   32  C2  UNL     1      -0.289  53.161 -27.248  1.00  0.00     0.005 A 
HETATM   33  C1  UNL     1      -1.100  53.896 -28.277  1.00  0.00     0.068 C 
HETATM   34  N7  UNL     1       0.224  51.965 -27.620  1.00  0.00    -0.369 N 
HETATM   35  C22 UNL     1       0.965  51.298 -26.716  1.00  0.00     0.089 A 
ATOM     36  H7  UNL     1       0.056  51.584 -28.552  1.00  0.00     0.165 HD
HETATM   37  C21 UNL     1       1.233  51.772 -25.445  1.00  0.00     0.031 A 
ENDBRANCH   1  30
TORSDOF 3
ENDMDL
