MODEL 1
REMARK minimizedAffinity -9.38983536
REMARK  5 active torsions:
REMARK  status: ('A' for Active; 'I' for Inactive)
REMARK    1  A    between atoms: C2_2  and  N1_3 
REMARK    2  A    between atoms: C2_2  and  C17_27 
REMARK       I    between atoms: N1_3  and  C3_4 
REMARK       I    between atoms: C3_4  and  N2_6 
REMARK    3  A    between atoms: N2_6  and  C4_7 
REMARK    4  A    between atoms: C7_13  and  N5_14 
REMARK       I    between atoms: N5_14  and  C8_15 
REMARK    5  A    between atoms: C8_15  and  C9_17 
ROOT
HETATM    1  C4  UNL     1       0.777  52.825 -19.109  1.00  0.00     0.111 A 
HETATM    2  C5  UNL     1       1.195  53.704 -20.095  1.00  0.00     0.080 A 
HETATM    3  C6  UNL     1       0.864  53.338 -21.400  1.00  0.00     0.067 A 
HETATM    4  N3  UNL     1       1.123  53.949 -22.593  1.00  0.00    -0.298 N 
HETATM    5  N4  UNL     1       0.656  53.286 -23.658  1.00  0.00    -0.284 N 
ATOM      6  H4  UNL     1       0.745  53.541 -24.642  1.00  0.00     0.188 HD
HETATM    7  C7  UNL     1       0.048  52.211 -23.140  1.00  0.00     0.136 A 
HETATM    8  C15 UNL     1       0.155  52.181 -21.716  1.00  0.00     0.053 A 
HETATM    9  C16 UNL     1      -0.222  51.356 -20.653  1.00  0.00     0.107 A 
HETATM   10  N6  UNL     1       0.099  51.687 -19.369  1.00  0.00    -0.351 N 
ATOM     11  H6  UNL     1      -0.173  51.071 -18.603  1.00  0.00     0.166 HD
HETATM   12  H8  UNL     1       1.621  54.818 -22.744  1.00  0.00     0.187 HD
ENDROOT
BRANCH   1  13
HETATM   13  N2  UNL     1       1.035  53.010 -17.749  1.00  0.00    -0.295 N 
HETATM   14  C3  UNL     1       1.089  52.070 -16.758  1.00  0.00     0.322 C 
HETATM   15  N1  UNL     1       1.324  52.645 -15.533  1.00  0.00    -0.335 N 
HETATM   16  O1  UNL     1       0.978  50.859 -16.904  1.00  0.00    -0.247 OA
HETATM   17  H5  UNL     1       1.157  53.635 -15.433  1.00  0.00     0.165 HD
HETATM   18  H6  UNL     1       1.297  53.958 -17.535  1.00  0.00     0.172 HD
BRANCH  15  19
HETATM   19  C2  UNL     1       1.376  51.865 -14.308  1.00  0.00     0.115 C 
HETATM   20  C1  UNL     1       1.736  50.406 -14.605  1.00  0.00     0.037 C 
BRANCH  19  21
HETATM   21  C17 UNL     1       0.064  52.042 -13.560  1.00  0.00    -0.036 A 
HETATM   22  C18 UNL     1      -1.091  51.403 -14.057  1.00  0.00     0.009 A 
HETATM   23  C19 UNL     1      -2.316  51.520 -13.395  1.00  0.00     0.001 A 
HETATM   24  C20 UNL     1      -2.400  52.267 -12.217  1.00  0.00     0.000 A 
HETATM   25  C21 UNL     1      -1.260  52.892 -11.699  1.00  0.00     0.001 A 
HETATM   26  C22 UNL     1      -0.037  52.777 -12.362  1.00  0.00     0.009 A 
ENDBRANCH  19  21
ENDBRANCH  15  19
ENDBRANCH   1  13
BRANCH   7  27
HETATM   27  N5  UNL     1      -0.535  51.376 -24.063  1.00  0.00    -0.311 N 
HETATM   28  C8  UNL     1      -1.146  51.708 -25.245  1.00  0.00     0.227 C 
HETATM   29  O2  UNL     1      -1.329  52.840 -25.671  1.00  0.00    -0.273 OA
HETATM   30  H9  UNL     1      -0.398  50.405 -23.823  1.00  0.00     0.170 HD
BRANCH  28  31
HETATM   31  C9  UNL     1      -1.684  50.480 -25.986  1.00  0.00     0.078 C 
HETATM   32  C10 UNL     1      -2.688  49.762 -25.076  1.00  0.00     0.014 C 
HETATM   33  C11 UNL     1      -3.246  48.488 -25.710  1.00  0.00     0.001 C 
HETATM   34  C12 UNL     1      -3.298  48.540 -27.240  1.00  0.00     0.000 C 
HETATM   35  C13 UNL     1      -3.483  49.963 -27.749  1.00  0.00     0.001 C 
HETATM   36  C14 UNL     1      -2.307  50.860 -27.346  1.00  0.00     0.014 C 
ENDBRANCH  28  31
ENDBRANCH   7  27
TORSDOF 5
ENDMDL
MODEL 2
REMARK minimizedAffinity -9.36133862
REMARK  5 active torsions:
REMARK  status: ('A' for Active; 'I' for Inactive)
REMARK    1  A    between atoms: C2_2  and  N1_3 
REMARK    2  A    between atoms: C2_2  and  C17_27 
REMARK       I    between atoms: N1_3  and  C3_4 
REMARK       I    between atoms: C3_4  and  N2_6 
REMARK    3  A    between atoms: N2_6  and  C4_7 
REMARK    4  A    between atoms: C7_13  and  N5_14 
REMARK       I    between atoms: N5_14  and  C8_15 
REMARK    5  A    between atoms: C8_15  and  C9_17 
ROOT
HETATM    1  C4  UNL     1      -0.030  51.457 -17.957  1.00  0.00     0.111 A 
HETATM    2  C5  UNL     1       0.608  52.657 -18.230  1.00  0.00     0.080 A 
HETATM    3  C6  UNL     1       0.790  52.942 -19.584  1.00  0.00     0.067 A 
HETATM    4  N3  UNL     1       1.379  54.006 -20.202  1.00  0.00    -0.298 N 
HETATM    5  N4  UNL     1       1.382  53.928 -21.538  1.00  0.00    -0.284 N 
ATOM      6  H4  UNL     1       1.777  54.594 -22.203  1.00  0.00     0.188 HD
HETATM    7  C7  UNL     1       0.748  52.779 -21.805  1.00  0.00     0.136 A 
HETATM    8  C15 UNL     1       0.360  52.102 -20.609  1.00  0.00     0.053 A 
HETATM    9  C16 UNL     1      -0.274  50.914 -20.235  1.00  0.00     0.107 A 
HETATM   10  N6  UNL     1      -0.452  50.607 -18.917  1.00  0.00    -0.351 N 
ATOM     11  H6  UNL     1      -0.907  49.732 -18.657  1.00  0.00     0.166 HD
HETATM   12  H8  UNL     1       1.805  54.815 -19.763  1.00  0.00     0.187 HD
ENDROOT
BRANCH   1  13
HETATM   13  N2  UNL     1      -0.278  50.991 -16.665  1.00  0.00    -0.295 N 
HETATM   14  C3  UNL     1       0.157  51.506 -15.476  1.00  0.00     0.322 C 
HETATM   15  N1  UNL     1      -0.259  50.739 -14.414  1.00  0.00    -0.335 N 
HETATM   16  O1  UNL     1       0.809  52.532 -15.328  1.00  0.00    -0.247 OA
HETATM   17  H5  UNL     1      -0.565  49.796 -14.601  1.00  0.00     0.165 HD
HETATM   18  H6  UNL     1      -0.939  50.231 -16.653  1.00  0.00     0.172 HD
BRANCH  15  19
HETATM   19  C2  UNL     1       0.115  51.045 -13.044  1.00  0.00     0.115 C 
HETATM   20  C1  UNL     1       0.514  49.772 -12.290  1.00  0.00     0.037 C 
BRANCH  19  21
HETATM   21  C17 UNL     1      -1.015  51.825 -12.392  1.00  0.00    -0.036 A 
HETATM   22  C18 UNL     1      -2.341  51.562 -12.794  1.00  0.00     0.009 A 
HETATM   23  C19 UNL     1      -3.415  52.239 -12.210  1.00  0.00     0.001 A 
HETATM   24  C20 UNL     1      -3.179  53.181 -11.206  1.00  0.00     0.000 A 
HETATM   25  C21 UNL     1      -1.871  53.441 -10.781  1.00  0.00     0.001 A 
HETATM   26  C22 UNL     1      -0.798  52.766 -11.365  1.00  0.00     0.009 A 
ENDBRANCH  19  21
ENDBRANCH  15  19
ENDBRANCH   1  13
BRANCH   7  27
HETATM   27  N5  UNL     1       0.611  52.492 -23.143  1.00  0.00    -0.311 N 
HETATM   28  C8  UNL     1       0.801  53.324 -24.216  1.00  0.00     0.227 C 
HETATM   29  O2  UNL     1       1.083  54.514 -24.167  1.00  0.00    -0.273 OA
HETATM   30  H9  UNL     1       0.420  51.512 -23.293  1.00  0.00     0.170 HD
BRANCH  28  31
HETATM   31  C9  UNL     1       0.532  52.623 -25.550  1.00  0.00     0.078 C 
HETATM   32  C10 UNL     1       0.121  53.680 -26.583  1.00  0.00     0.014 C 
HETATM   33  C11 UNL     1      -0.220  53.069 -27.942  1.00  0.00     0.001 C 
HETATM   34  C12 UNL     1       0.542  51.774 -28.237  1.00  0.00     0.000 C 
HETATM   35  C13 UNL     1       1.898  51.748 -27.545  1.00  0.00     0.001 C 
HETATM   36  C14 UNL     1       1.750  51.800 -26.020  1.00  0.00     0.014 C 
ENDBRANCH  28  31
ENDBRANCH   7  27
TORSDOF 5
ENDMDL
MODEL 3
REMARK minimizedAffinity -9.26231956
REMARK  5 active torsions:
REMARK  status: ('A' for Active; 'I' for Inactive)
REMARK    1  A    between atoms: C2_2  and  N1_3 
REMARK    2  A    between atoms: C2_2  and  C17_27 
REMARK       I    between atoms: N1_3  and  C3_4 
REMARK       I    between atoms: C3_4  and  N2_6 
REMARK    3  A    between atoms: N2_6  and  C4_7 
REMARK    4  A    between atoms: C7_13  and  N5_14 
REMARK       I    between atoms: N5_14  and  C8_15 
REMARK    5  A    between atoms: C8_15  and  C9_17 
ROOT
HETATM    1  C4  UNL     1       0.086  51.429 -18.011  1.00  0.00     0.111 A 
HETATM    2  C5  UNL     1       0.667  52.658 -18.282  1.00  0.00     0.080 A 
HETATM    3  C6  UNL     1       0.812  52.964 -19.636  1.00  0.00     0.067 A 
HETATM    4  N3  UNL     1       1.345  54.058 -20.253  1.00  0.00    -0.298 N 
HETATM    5  N4  UNL     1       1.327  53.994 -21.590  1.00  0.00    -0.284 N 
ATOM      6  H4  UNL     1       1.682  54.682 -22.254  1.00  0.00     0.188 HD
HETATM    7  C7  UNL     1       0.737  52.821 -21.858  1.00  0.00     0.136 A 
HETATM    8  C15 UNL     1       0.400  52.117 -20.663  1.00  0.00     0.053 A 
HETATM    9  C16 UNL     1      -0.175  50.899 -20.290  1.00  0.00     0.107 A 
HETATM   10  N6  UNL     1      -0.317  50.572 -18.973  1.00  0.00    -0.351 N 
ATOM     11  H6  UNL     1      -0.730  49.676 -18.714  1.00  0.00     0.166 HD
HETATM   12  H8  UNL     1       1.743  54.880 -19.813  1.00  0.00     0.187 HD
ENDROOT
BRANCH   1  13
HETATM   13  N2  UNL     1      -0.120  50.940 -16.720  1.00  0.00    -0.295 N 
HETATM   14  C3  UNL     1       0.271  51.488 -15.531  1.00  0.00     0.322 C 
HETATM   15  N1  UNL     1      -0.075  50.685 -14.470  1.00  0.00    -0.335 N 
HETATM   16  O1  UNL     1       0.832  52.566 -15.381  1.00  0.00    -0.247 OA
HETATM   17  H5  UNL     1      -0.299  49.720 -14.659  1.00  0.00     0.165 HD
HETATM   18  H6  UNL     1      -0.712  50.126 -16.710  1.00  0.00     0.172 HD
BRANCH  15  19
HETATM   19  C2  UNL     1       0.272  51.019 -13.099  1.00  0.00     0.115 C 
HETATM   20  C1  UNL     1      -0.063  52.483 -12.792  1.00  0.00     0.037 C 
BRANCH  19  21
HETATM   21  C17 UNL     1       1.729  50.652 -12.861  1.00  0.00    -0.036 A 
HETATM   22  C18 UNL     1       2.361  51.113 -11.688  1.00  0.00     0.009 A 
HETATM   23  C19 UNL     1       3.692  50.786 -11.415  1.00  0.00     0.001 A 
HETATM   24  C20 UNL     1       4.406  49.982 -12.308  1.00  0.00     0.000 A 
HETATM   25  C21 UNL     1       3.789  49.501 -13.468  1.00  0.00     0.001 A 
HETATM   26  C22 UNL     1       2.460  49.829 -13.741  1.00  0.00     0.009 A 
ENDBRANCH  19  21
ENDBRANCH  15  19
ENDBRANCH   1  13
BRANCH   7  27
HETATM   27  N5  UNL     1       0.589  52.542 -23.196  1.00  0.00    -0.311 N 
HETATM   28  C8  UNL     1       0.777  53.378 -24.266  1.00  0.00     0.227 C 
HETATM   29  O2  UNL     1       1.068  54.566 -24.213  1.00  0.00    -0.273 OA
HETATM   30  H9  UNL     1       0.390  51.565 -23.350  1.00  0.00     0.170 HD
BRANCH  28  31
HETATM   31  C9  UNL     1       0.494  52.686 -25.602  1.00  0.00     0.078 C 
HETATM   32  C10 UNL     1       0.141  53.757 -26.642  1.00  0.00     0.014 C 
HETATM   33  C11 UNL     1      -0.209  53.157 -28.004  1.00  0.00     0.001 C 
HETATM   34  C12 UNL     1       0.499  51.830 -28.287  1.00  0.00     0.000 C 
HETATM   35  C13 UNL     1       1.844  51.747 -27.579  1.00  0.00     0.001 C 
HETATM   36  C14 UNL     1       1.681  51.810 -26.056  1.00  0.00     0.014 C 
ENDBRANCH  28  31
ENDBRANCH   7  27
TORSDOF 5
ENDMDL
MODEL 4
REMARK minimizedAffinity -9.22369385
REMARK  5 active torsions:
REMARK  status: ('A' for Active; 'I' for Inactive)
REMARK    1  A    between atoms: C2_2  and  N1_3 
REMARK    2  A    between atoms: C2_2  and  C17_27 
REMARK       I    between atoms: N1_3  and  C3_4 
REMARK       I    between atoms: C3_4  and  N2_6 
REMARK    3  A    between atoms: N2_6  and  C4_7 
REMARK    4  A    between atoms: C7_13  and  N5_14 
REMARK       I    between atoms: N5_14  and  C8_15 
REMARK    5  A    between atoms: C8_15  and  C9_17 
ROOT
HETATM    1  C4  UNL     1      -3.290  48.691 -24.035  1.00  0.00     0.111 A 
HETATM    2  C5  UNL     1      -4.642  48.392 -24.084  1.00  0.00     0.080 A 
HETATM    3  C6  UNL     1      -5.184  48.287 -25.365  1.00  0.00     0.067 A 
HETATM    4  N3  UNL     1      -6.458  48.022 -25.778  1.00  0.00    -0.298 N 
HETATM    5  N4  UNL     1      -6.610  48.015 -27.108  1.00  0.00    -0.284 N 
ATOM      6  H4  UNL     1      -7.467  47.858 -27.639  1.00  0.00     0.188 HD
HETATM    7  C7  UNL     1      -5.382  48.262 -27.584  1.00  0.00     0.136 A 
HETATM    8  C15 UNL     1      -4.438  48.455 -26.530  1.00  0.00     0.053 A 
HETATM    9  C16 UNL     1      -3.082  48.755 -26.379  1.00  0.00     0.107 A 
HETATM   10  N6  UNL     1      -2.532  48.875 -25.136  1.00  0.00    -0.351 N 
ATOM     11  H6  UNL     1      -1.542  49.105 -25.039  1.00  0.00     0.166 HD
HETATM   12  H8  UNL     1      -7.269  47.844 -25.197  1.00  0.00     0.187 HD
ENDROOT
BRANCH   1  13
HETATM   13  N2  UNL     1      -2.579  48.860 -22.845  1.00  0.00    -0.295 N 
HETATM   14  C3  UNL     1      -2.628  49.904 -21.965  1.00  0.00     0.322 C 
HETATM   15  N1  UNL     1      -1.743  49.731 -20.929  1.00  0.00    -0.335 N 
HETATM   16  O1  UNL     1      -3.372  50.875 -22.036  1.00  0.00    -0.247 OA
HETATM   17  H5  UNL     1      -0.996  49.062 -21.049  1.00  0.00     0.165 HD
HETATM   18  H6  UNL     1      -2.042  48.043 -22.602  1.00  0.00     0.172 HD
BRANCH  15  19
HETATM   19  C2  UNL     1      -1.566  50.726 -19.885  1.00  0.00     0.115 C 
HETATM   20  C1  UNL     1      -2.915  51.314 -19.458  1.00  0.00     0.037 C 
BRANCH  19  21
HETATM   21  C17 UNL     1      -0.560  51.761 -20.363  1.00  0.00    -0.036 A 
HETATM   22  C18 UNL     1       0.066  51.572 -21.613  1.00  0.00     0.009 A 
HETATM   23  C19 UNL     1       0.983  52.506 -22.104  1.00  0.00     0.001 A 
HETATM   24  C20 UNL     1       1.278  53.649 -21.356  1.00  0.00     0.000 A 
HETATM   25  C21 UNL     1       0.652  53.862 -20.122  1.00  0.00     0.001 A 
HETATM   26  C22 UNL     1      -0.263  52.928 -19.632  1.00  0.00     0.009 A 
ENDBRANCH  19  21
ENDBRANCH  15  19
ENDBRANCH   1  13
BRANCH   7  27
HETATM   27  N5  UNL     1      -5.288  48.283 -28.955  1.00  0.00    -0.311 N 
HETATM   28  C8  UNL     1      -5.824  47.404 -29.860  1.00  0.00     0.227 C 
HETATM   29  O2  UNL     1      -6.455  46.389 -29.595  1.00  0.00    -0.273 OA
HETATM   30  H9  UNL     1      -4.818  49.116 -29.281  1.00  0.00     0.170 HD
BRANCH  28  31
HETATM   31  C9  UNL     1      -5.477  47.771 -31.305  1.00  0.00     0.078 C 
HETATM   32  C10 UNL     1      -4.553  46.688 -31.875  1.00  0.00     0.014 C 
HETATM   33  C11 UNL     1      -4.107  46.993 -33.306  1.00  0.00     0.001 C 
HETATM   34  C12 UNL     1      -5.126  47.814 -34.101  1.00  0.00     0.000 C 
HETATM   35  C13 UNL     1      -6.550  47.552 -33.632  1.00  0.00     0.001 C 
HETATM   36  C14 UNL     1      -6.743  47.963 -32.168  1.00  0.00     0.014 C 
ENDBRANCH  28  31
ENDBRANCH   7  27
TORSDOF 5
ENDMDL
MODEL 5
REMARK minimizedAffinity -9.19576931
REMARK  5 active torsions:
REMARK  status: ('A' for Active; 'I' for Inactive)
REMARK    1  A    between atoms: C2_2  and  N1_3 
REMARK    2  A    between atoms: C2_2  and  C17_27 
REMARK       I    between atoms: N1_3  and  C3_4 
REMARK       I    between atoms: C3_4  and  N2_6 
REMARK    3  A    between atoms: N2_6  and  C4_7 
REMARK    4  A    between atoms: C7_13  and  N5_14 
REMARK       I    between atoms: N5_14  and  C8_15 
REMARK    5  A    between atoms: C8_15  and  C9_17 
ROOT
HETATM    1  C4  UNL     1      -1.962  50.118 -24.748  1.00  0.00     0.111 A 
HETATM    2  C5  UNL     1      -1.954  50.886 -25.901  1.00  0.00     0.080 A 
HETATM    3  C6  UNL     1      -2.750  50.408 -26.943  1.00  0.00     0.067 A 
HETATM    4  N3  UNL     1      -2.966  50.894 -28.199  1.00  0.00    -0.298 N 
HETATM    5  N4  UNL     1      -3.795  50.147 -28.939  1.00  0.00    -0.284 N 
ATOM      6  H4  UNL     1      -4.087  50.305 -29.904  1.00  0.00     0.188 HD
HETATM    7  C7  UNL     1      -4.154  49.145 -28.125  1.00  0.00     0.136 A 
HETATM    8  C15 UNL     1      -3.517  49.247 -26.852  1.00  0.00     0.053 A 
HETATM    9  C16 UNL     1      -3.458  48.539 -25.649  1.00  0.00     0.107 A 
HETATM   10  N6  UNL     1      -2.678  48.981 -24.620  1.00  0.00    -0.351 N 
ATOM     11  H6  UNL     1      -2.637  48.450 -23.750  1.00  0.00     0.166 HD
HETATM   12  H8  UNL     1      -2.569  51.730 -28.613  1.00  0.00     0.187 HD
ENDROOT
BRANCH   1  13
HETATM   13  N2  UNL     1      -1.211  50.423 -23.612  1.00  0.00    -0.295 N 
HETATM   14  C3  UNL     1      -1.288  51.530 -22.814  1.00  0.00     0.322 C 
HETATM   15  N1  UNL     1      -0.348  51.493 -21.812  1.00  0.00    -0.335 N 
HETATM   16  O1  UNL     1      -2.093  52.446 -22.924  1.00  0.00    -0.247 OA
HETATM   17  H5  UNL     1       0.433  50.862 -21.916  1.00  0.00     0.165 HD
HETATM   18  H6  UNL     1      -0.614  49.662 -23.332  1.00  0.00     0.172 HD
BRANCH  15  19
HETATM   19  C2  UNL     1      -0.189  52.577 -20.858  1.00  0.00     0.115 C 
HETATM   20  C1  UNL     1       0.914  53.542 -21.308  1.00  0.00     0.037 C 
BRANCH  19  21
HETATM   21  C17 UNL     1       0.031  51.984 -19.475  1.00  0.00    -0.036 A 
HETATM   22  C18 UNL     1      -0.459  50.689 -19.208  1.00  0.00     0.009 A 
HETATM   23  C19 UNL     1      -0.265  50.093 -17.959  1.00  0.00     0.001 A 
HETATM   24  C20 UNL     1       0.434  50.781 -16.962  1.00  0.00     0.000 A 
HETATM   25  C21 UNL     1       0.943  52.059 -17.217  1.00  0.00     0.001 A 
HETATM   26  C22 UNL     1       0.748  52.654 -18.464  1.00  0.00     0.009 A 
ENDBRANCH  19  21
ENDBRANCH  15  19
ENDBRANCH   1  13
BRANCH   7  27
HETATM   27  N5  UNL     1      -5.036  48.244 -28.674  1.00  0.00    -0.311 N 
HETATM   28  C8  UNL     1      -5.334  48.041 -29.997  1.00  0.00     0.227 C 
HETATM   29  O2  UNL     1      -4.892  48.679 -30.943  1.00  0.00    -0.273 OA
HETATM   30  H9  UNL     1      -5.425  47.633 -27.971  1.00  0.00     0.170 HD
BRANCH  28  31
HETATM   31  C9  UNL     1      -6.386  46.947 -30.195  1.00  0.00     0.078 C 
HETATM   32  C10 UNL     1      -5.799  45.866 -31.112  1.00  0.00     0.014 C 
HETATM   33  C11 UNL     1      -6.798  44.748 -31.413  1.00  0.00     0.001 C 
HETATM   34  C12 UNL     1      -7.813  44.518 -30.290  1.00  0.00     0.000 C 
HETATM   35  C13 UNL     1      -7.237  44.878 -28.927  1.00  0.00     0.001 C 
HETATM   36  C14 UNL     1      -6.866  46.363 -28.849  1.00  0.00     0.014 C 
ENDBRANCH  28  31
ENDBRANCH   7  27
TORSDOF 5
ENDMDL
MODEL 6
REMARK minimizedAffinity -9.17410755
REMARK  5 active torsions:
REMARK  status: ('A' for Active; 'I' for Inactive)
REMARK    1  A    between atoms: C2_2  and  N1_3 
REMARK    2  A    between atoms: C2_2  and  C17_27 
REMARK       I    between atoms: N1_3  and  C3_4 
REMARK       I    between atoms: C3_4  and  N2_6 
REMARK    3  A    between atoms: N2_6  and  C4_7 
REMARK    4  A    between atoms: C7_13  and  N5_14 
REMARK       I    between atoms: N5_14  and  C8_15 
REMARK    5  A    between atoms: C8_15  and  C9_17 
ROOT
HETATM    1  C4  UNL     1      -2.748  49.424 -24.360  1.00  0.00     0.111 A 
HETATM    2  C5  UNL     1      -4.006  48.852 -24.269  1.00  0.00     0.080 A 
HETATM    3  C6  UNL     1      -4.633  48.591 -25.488  1.00  0.00     0.067 A 
HETATM    4  N3  UNL     1      -5.857  48.056 -25.768  1.00  0.00    -0.298 N 
HETATM    5  N4  UNL     1      -6.129  47.970 -27.076  1.00  0.00    -0.284 N 
ATOM      6  H4  UNL     1      -6.980  47.621 -27.516  1.00  0.00     0.188 HD
HETATM    7  C7  UNL     1      -5.029  48.445 -27.676  1.00  0.00     0.136 A 
HETATM    8  C15 UNL     1      -4.051  48.866 -26.724  1.00  0.00     0.053 A 
HETATM    9  C16 UNL     1      -2.779  49.444 -26.714  1.00  0.00     0.107 A 
HETATM   10  N6  UNL     1      -2.151  49.719 -25.534  1.00  0.00    -0.351 N 
ATOM     11  H6  UNL     1      -1.226  50.150 -25.540  1.00  0.00     0.166 HD
HETATM   12  H8  UNL     1      -6.555  47.737 -25.106  1.00  0.00     0.187 HD
ENDROOT
BRANCH   1  13
HETATM   13  N2  UNL     1      -1.978  49.778 -23.250  1.00  0.00    -0.295 N 
HETATM   14  C3  UNL     1      -1.679  51.028 -22.786  1.00  0.00     0.322 C 
HETATM   15  N1  UNL     1      -0.853  50.972 -21.690  1.00  0.00    -0.335 N 
HETATM   16  O1  UNL     1      -2.097  52.086 -23.239  1.00  0.00    -0.247 OA
HETATM   17  H5  UNL     1      -0.348  50.116 -21.519  1.00  0.00     0.165 HD
HETATM   18  H6  UNL     1      -1.705  48.978 -22.703  1.00  0.00     0.172 HD
BRANCH  15  19
HETATM   19  C2  UNL     1      -0.347  52.169 -21.039  1.00  0.00     0.115 C 
HETATM   20  C1  UNL     1       0.821  52.768 -21.829  1.00  0.00     0.037 C 
BRANCH  19  21
HETATM   21  C17 UNL     1      -0.014  51.835 -19.593  1.00  0.00    -0.036 A 
HETATM   22  C18 UNL     1      -0.415  50.586 -19.076  1.00  0.00     0.009 A 
HETATM   23  C19 UNL     1      -0.115  50.226 -17.760  1.00  0.00     0.001 A 
HETATM   24  C20 UNL     1       0.603  51.106 -16.945  1.00  0.00     0.000 A 
HETATM   25  C21 UNL     1       1.026  52.341 -17.448  1.00  0.00     0.001 A 
HETATM   26  C22 UNL     1       0.724  52.702 -18.763  1.00  0.00     0.009 A 
ENDBRANCH  19  21
ENDBRANCH  15  19
ENDBRANCH   1  13
BRANCH   7  27
HETATM   27  N5  UNL     1      -5.071  48.436 -29.050  1.00  0.00    -0.311 N 
HETATM   28  C8  UNL     1      -5.710  47.548 -29.877  1.00  0.00     0.227 C 
HETATM   29  O2  UNL     1      -6.328  46.551 -29.527  1.00  0.00    -0.273 OA
HETATM   30  H9  UNL     1      -4.622  49.252 -29.439  1.00  0.00     0.170 HD
BRANCH  28  31
HETATM   31  C9  UNL     1      -5.501  47.878 -31.357  1.00  0.00     0.078 C 
HETATM   32  C10 UNL     1      -4.538  46.845 -31.956  1.00  0.00     0.014 C 
HETATM   33  C11 UNL     1      -4.225  47.120 -33.427  1.00  0.00     0.001 C 
HETATM   34  C12 UNL     1      -5.362  47.826 -34.171  1.00  0.00     0.000 C 
HETATM   35  C13 UNL     1      -6.723  47.475 -33.584  1.00  0.00     0.001 C 
HETATM   36  C14 UNL     1      -6.838  47.934 -32.126  1.00  0.00     0.014 C 
ENDBRANCH  28  31
ENDBRANCH   7  27
TORSDOF 5
ENDMDL
MODEL 7
REMARK minimizedAffinity -9.12824535
REMARK  5 active torsions:
REMARK  status: ('A' for Active; 'I' for Inactive)
REMARK    1  A    between atoms: C2_2  and  N1_3 
REMARK    2  A    between atoms: C2_2  and  C17_27 
REMARK       I    between atoms: N1_3  and  C3_4 
REMARK       I    between atoms: C3_4  and  N2_6 
REMARK    3  A    between atoms: N2_6  and  C4_7 
REMARK    4  A    between atoms: C7_13  and  N5_14 
REMARK       I    between atoms: N5_14  and  C8_15 
REMARK    5  A    between atoms: C8_15  and  C9_17 
ROOT
HETATM    1  C4  UNL     1      -4.111  49.034 -27.506  1.00  0.00     0.111 A 
HETATM    2  C5  UNL     1      -3.445  50.063 -28.153  1.00  0.00     0.080 A 
HETATM    3  C6  UNL     1      -2.548  50.783 -27.363  1.00  0.00     0.067 A 
HETATM    4  N3  UNL     1      -1.748  51.847 -27.663  1.00  0.00    -0.298 N 
HETATM    5  N4  UNL     1      -1.020  52.291 -26.630  1.00  0.00    -0.284 N 
ATOM      6  H4  UNL     1      -0.371  53.078 -26.615  1.00  0.00     0.188 HD
HETATM    7  C7  UNL     1      -1.340  51.470 -25.621  1.00  0.00     0.136 A 
HETATM    8  C15 UNL     1      -2.311  50.502 -26.019  1.00  0.00     0.053 A 
HETATM    9  C16 UNL     1      -3.031  49.446 -25.454  1.00  0.00     0.107 A 
HETATM   10  N6  UNL     1      -3.923  48.734 -26.203  1.00  0.00    -0.351 N 
ATOM     11  H6  UNL     1      -4.450  47.972 -25.776  1.00  0.00     0.166 HD
HETATM   12  H8  UNL     1      -1.660  52.319 -28.556  1.00  0.00     0.187 HD
ENDROOT
BRANCH   1  13
HETATM   13  N2  UNL     1      -5.062  48.221 -28.124  1.00  0.00    -0.295 N 
HETATM   14  C3  UNL     1      -5.293  48.046 -29.459  1.00  0.00     0.322 C 
HETATM   15  N1  UNL     1      -6.350  47.196 -29.679  1.00  0.00    -0.335 N 
HETATM   16  O1  UNL     1      -4.648  48.539 -30.375  1.00  0.00    -0.247 OA
HETATM   17  H5  UNL     1      -6.989  47.025 -28.916  1.00  0.00     0.165 HD
HETATM   18  H6  UNL     1      -5.556  47.642 -27.464  1.00  0.00     0.172 HD
BRANCH  15  19
HETATM   19  C2  UNL     1      -6.831  46.885 -31.015  1.00  0.00     0.115 C 
HETATM   20  C1  UNL     1      -8.360  46.952 -31.074  1.00  0.00     0.037 C 
BRANCH  19  21
HETATM   21  C17 UNL     1      -6.250  45.547 -31.444  1.00  0.00    -0.036 A 
HETATM   22  C18 UNL     1      -6.949  44.367 -31.113  1.00  0.00     0.009 A 
HETATM   23  C19 UNL     1      -6.466  43.115 -31.502  1.00  0.00     0.001 A 
HETATM   24  C20 UNL     1      -5.282  43.026 -32.239  1.00  0.00     0.000 A 
HETATM   25  C21 UNL     1      -4.586  44.187 -32.592  1.00  0.00     0.001 A 
HETATM   26  C22 UNL     1      -5.068  45.438 -32.202  1.00  0.00     0.009 A 
ENDBRANCH  19  21
ENDBRANCH  15  19
ENDBRANCH   1  13
BRANCH   7  27
HETATM   27  N5  UNL     1      -0.688  51.727 -24.439  1.00  0.00    -0.311 N 
HETATM   28  C8  UNL     1       0.449  52.466 -24.237  1.00  0.00     0.227 C 
HETATM   29  O2  UNL     1       1.130  52.998 -25.104  1.00  0.00    -0.273 OA
HETATM   30  H9  UNL     1      -1.200  51.364 -23.648  1.00  0.00     0.170 HD
BRANCH  28  31
HETATM   31  C9  UNL     1       0.866  52.501 -22.764  1.00  0.00     0.078 C 
HETATM   32  C10 UNL     1       1.086  53.962 -22.353  1.00  0.00     0.014 C 
HETATM   33  C11 UNL     1       1.557  54.099 -20.905  1.00  0.00     0.001 C 
HETATM   34  C12 UNL     1       1.058  52.975 -19.992  1.00  0.00     0.000 C 
HETATM   35  C13 UNL     1      -0.279  52.419 -20.463  1.00  0.00     0.001 C 
HETATM   36  C14 UNL     1      -0.168  51.797 -21.859  1.00  0.00     0.014 C 
ENDBRANCH  28  31
ENDBRANCH   7  27
TORSDOF 5
ENDMDL
MODEL 8
REMARK minimizedAffinity -8.99870777
REMARK  5 active torsions:
REMARK  status: ('A' for Active; 'I' for Inactive)
REMARK    1  A    between atoms: C2_2  and  N1_3 
REMARK    2  A    between atoms: C2_2  and  C17_27 
REMARK       I    between atoms: N1_3  and  C3_4 
REMARK       I    between atoms: C3_4  and  N2_6 
REMARK    3  A    between atoms: N2_6  and  C4_7 
REMARK    4  A    between atoms: C7_13  and  N5_14 
REMARK       I    between atoms: N5_14  and  C8_15 
REMARK    5  A    between atoms: C8_15  and  C9_17 
ROOT
HETATM    1  C4  UNL     1      -4.100  48.876 -27.510  1.00  0.00     0.111 A 
HETATM    2  C5  UNL     1      -3.431  49.908 -28.147  1.00  0.00     0.080 A 
HETATM    3  C6  UNL     1      -2.553  50.636 -27.344  1.00  0.00     0.067 A 
HETATM    4  N3  UNL     1      -1.756  51.705 -27.632  1.00  0.00    -0.298 N 
HETATM    5  N4  UNL     1      -1.049  52.157 -26.588  1.00  0.00    -0.284 N 
ATOM      6  H4  UNL     1      -0.405  52.948 -26.563  1.00  0.00     0.188 HD
HETATM    7  C7  UNL     1      -1.380  51.334 -25.583  1.00  0.00     0.136 A 
HETATM    8  C15 UNL     1      -2.337  50.358 -25.996  1.00  0.00     0.053 A 
HETATM    9  C16 UNL     1      -3.058  49.298 -25.441  1.00  0.00     0.107 A 
HETATM   10  N6  UNL     1      -3.932  48.579 -26.204  1.00  0.00    -0.351 N 
ATOM     11  H6  UNL     1      -4.461  47.814 -25.785  1.00  0.00     0.166 HD
HETATM   12  H8  UNL     1      -1.656  52.177 -28.524  1.00  0.00     0.187 HD
ENDROOT
BRANCH   1  13
HETATM   13  N2  UNL     1      -5.035  48.054 -28.142  1.00  0.00    -0.295 N 
HETATM   14  C3  UNL     1      -5.368  48.007 -29.467  1.00  0.00     0.322 C 
HETATM   15  N1  UNL     1      -6.370  47.096 -29.701  1.00  0.00    -0.335 N 
HETATM   16  O1  UNL     1      -4.846  48.653 -30.367  1.00  0.00    -0.247 OA
HETATM   17  H5  UNL     1      -6.924  46.788 -28.917  1.00  0.00     0.165 HD
HETATM   18  H6  UNL     1      -5.422  47.365 -27.519  1.00  0.00     0.172 HD
BRANCH  15  19
HETATM   19  C2  UNL     1      -6.940  46.893 -31.022  1.00  0.00     0.115 C 
HETATM   20  C1  UNL     1      -6.297  47.837 -32.045  1.00  0.00     0.037 C 
BRANCH  19  21
HETATM   21  C17 UNL     1      -8.452  47.017 -30.927  1.00  0.00    -0.036 A 
HETATM   22  C18 UNL     1      -9.253  46.044 -31.560  1.00  0.00     0.009 A 
HETATM   23  C19 UNL     1     -10.647  46.104 -31.484  1.00  0.00     0.001 A 
HETATM   24  C20 UNL     1     -11.260  47.132 -30.762  1.00  0.00     0.000 A 
HETATM   25  C21 UNL     1     -10.480  48.095 -30.112  1.00  0.00     0.001 A 
HETATM   26  C22 UNL     1      -9.087  48.036 -30.189  1.00  0.00     0.009 A 
ENDBRANCH  19  21
ENDBRANCH  15  19
ENDBRANCH   1  13
BRANCH   7  27
HETATM   27  N5  UNL     1      -0.749  51.598 -24.391  1.00  0.00    -0.311 N 
HETATM   28  C8  UNL     1       0.359  52.374 -24.166  1.00  0.00     0.227 C 
HETATM   29  O2  UNL     1       1.029  52.941 -25.019  1.00  0.00    -0.273 OA
HETATM   30  H9  UNL     1      -1.256  51.206 -23.610  1.00  0.00     0.170 HD
BRANCH  28  31
HETATM   31  C9  UNL     1       0.759  52.403 -22.688  1.00  0.00     0.078 C 
HETATM   32  C10 UNL     1       1.009  53.860 -22.279  1.00  0.00     0.014 C 
HETATM   33  C11 UNL     1       1.466  53.990 -20.826  1.00  0.00     0.001 C 
HETATM   34  C12 UNL     1       0.929  52.881 -19.916  1.00  0.00     0.000 C 
HETATM   35  C13 UNL     1      -0.415  52.356 -20.401  1.00  0.00     0.001 C 
HETATM   36  C14 UNL     1      -0.302  51.727 -21.794  1.00  0.00     0.014 C 
ENDBRANCH  28  31
ENDBRANCH   7  27
TORSDOF 5
ENDMDL
MODEL 9
REMARK minimizedAffinity -8.88039494
REMARK  5 active torsions:
REMARK  status: ('A' for Active; 'I' for Inactive)
REMARK    1  A    between atoms: C2_2  and  N1_3 
REMARK    2  A    between atoms: C2_2  and  C17_27 
REMARK       I    between atoms: N1_3  and  C3_4 
REMARK       I    between atoms: C3_4  and  N2_6 
REMARK    3  A    between atoms: N2_6  and  C4_7 
REMARK    4  A    between atoms: C7_13  and  N5_14 
REMARK       I    between atoms: N5_14  and  C8_15 
REMARK    5  A    between atoms: C8_15  and  C9_17 
ROOT
HETATM    1  C4  UNL     1      -4.928  48.516 -26.024  1.00  0.00     0.111 A 
HETATM    2  C5  UNL     1      -5.174  48.047 -24.744  1.00  0.00     0.080 A 
HETATM    3  C6  UNL     1      -4.329  48.547 -23.752  1.00  0.00     0.067 A 
HETATM    4  N3  UNL     1      -4.277  48.297 -22.412  1.00  0.00    -0.298 N 
HETATM    5  N4  UNL     1      -3.307  48.959 -21.770  1.00  0.00    -0.284 N 
ATOM      6  H4  UNL     1      -3.071  48.917 -20.778  1.00  0.00     0.188 HD
HETATM    7  C7  UNL     1      -2.716  49.690 -22.725  1.00  0.00     0.136 A 
HETATM    8  C15 UNL     1      -3.310  49.464 -24.003  1.00  0.00     0.053 A 
HETATM    9  C16 UNL     1      -3.139  49.878 -25.327  1.00  0.00     0.107 A 
HETATM   10  N6  UNL     1      -3.945  49.394 -26.316  1.00  0.00    -0.351 N 
ATOM     11  H6  UNL     1      -3.803  49.697 -27.279  1.00  0.00     0.166 HD
HETATM   12  H8  UNL     1      -4.875  47.676 -21.878  1.00  0.00     0.187 HD
ENDROOT
BRANCH   1  13
HETATM   13  N2  UNL     1      -5.652  48.112 -27.147  1.00  0.00    -0.295 N 
HETATM   14  C3  UNL     1      -5.276  48.149 -28.460  1.00  0.00     0.322 C 
HETATM   15  N1  UNL     1      -6.283  47.707 -29.284  1.00  0.00    -0.335 N 
HETATM   16  O1  UNL     1      -4.183  48.497 -28.890  1.00  0.00    -0.247 OA
HETATM   17  H5  UNL     1      -7.221  47.676 -28.914  1.00  0.00     0.165 HD
HETATM   18  H6  UNL     1      -6.518  47.661 -26.902  1.00  0.00     0.172 HD
BRANCH  15  19
HETATM   19  C2  UNL     1      -6.152  47.696 -30.731  1.00  0.00     0.115 C 
HETATM   20  C1  UNL     1      -7.376  48.335 -31.395  1.00  0.00     0.037 C 
BRANCH  19  21
HETATM   21  C17 UNL     1      -5.872  46.272 -31.186  1.00  0.00    -0.036 A 
HETATM   22  C18 UNL     1      -6.743  45.244 -30.771  1.00  0.00     0.009 A 
HETATM   23  C19 UNL     1      -6.539  43.923 -31.178  1.00  0.00     0.001 A 
HETATM   24  C20 UNL     1      -5.465  43.613 -32.018  1.00  0.00     0.000 A 
HETATM   25  C21 UNL     1      -4.601  44.624 -32.454  1.00  0.00     0.001 A 
HETATM   26  C22 UNL     1      -4.805  45.943 -32.046  1.00  0.00     0.009 A 
ENDBRANCH  19  21
ENDBRANCH  15  19
ENDBRANCH   1  13
BRANCH   7  27
HETATM   27  N5  UNL     1      -1.682  50.483 -22.287  1.00  0.00    -0.311 N 
HETATM   28  C8  UNL     1      -0.737  50.202 -21.334  1.00  0.00     0.227 C 
HETATM   29  O2  UNL     1      -0.680  49.188 -20.650  1.00  0.00    -0.273 OA
HETATM   30  H9  UNL     1      -1.615  51.334 -22.826  1.00  0.00     0.170 HD
BRANCH  28  31
HETATM   31  C9  UNL     1       0.241  51.361 -21.125  1.00  0.00     0.078 C 
HETATM   32  C10 UNL     1       0.050  52.371 -22.264  1.00  0.00     0.014 C 
HETATM   33  C11 UNL     1       1.023  53.547 -22.172  1.00  0.00     0.001 C 
HETATM   34  C12 UNL     1       1.446  53.879 -20.738  1.00  0.00     0.000 C 
HETATM   35  C13 UNL     1       0.361  53.520 -19.733  1.00  0.00     0.001 C 
HETATM   36  C14 UNL     1       0.068  52.015 -19.738  1.00  0.00     0.014 C 
ENDBRANCH  28  31
ENDBRANCH   7  27
TORSDOF 5
ENDMDL
