MODEL 1
REMARK minimizedAffinity -9.24864578
REMARK CNNscore 0.630165815
REMARK CNNaffinity 7.84750509
REMARK  8 active torsions:
REMARK  status: ('A' for Active; 'I' for Inactive)
REMARK    1  A    between atoms: C2_2  and  C3_3 
REMARK       I    between atoms: C3_3  and  N1_5 
REMARK    2  A    between atoms: N1_5  and  C4_6 
REMARK    3  A    between atoms: C10_12  and  N2_13 
REMARK    4  A    between atoms: N2_13  and  C11_14 
REMARK    5  A    between atoms: C12_17  and  N4_18 
REMARK    6  A    between atoms: N4_18  and  C13_19 
REMARK    7  A    between atoms: C15_21  and  O2_22 
REMARK    8  A    between atoms: C21_32  and  C22_33 
ROOT
HETATM    1  C11 UNL     1      -3.083  51.229 -22.871  1.00  0.00     0.138 A 
HETATM    2  N3  UNL     1      -2.100  51.156 -21.953  1.00  0.00    -0.176 N 
ATOM      3  H3  UNL     1      -1.160  51.475 -22.186  1.00  0.00     0.186 HD
HETATM    4  C12 UNL     1      -2.356  50.664 -20.739  1.00  0.00     0.684 A 
HETATM    5  N6  UNL     1      -3.569  50.230 -20.379  1.00  0.00    -0.201 N 
ATOM      6  H6  UNL     1      -3.750  49.868 -19.443  1.00  0.00     0.183 HD
HETATM    7  C20 UNL     1      -4.541  50.293 -21.307  1.00  0.00     0.126 A 
HETATM    8  C21 UNL     1      -4.355  50.786 -22.579  1.00  0.00     0.108 A 
ENDROOT
BRANCH   1   9
HETATM    9  N2  UNL     1      -2.769  51.726 -24.151  1.00  0.00    -0.339 N 
HETATM   10  H11 UNL     1      -3.370  52.471 -24.486  1.00  0.00     0.167 HD
BRANCH   9  11
HETATM   11  C10 UNL     1      -1.509  51.678 -24.800  1.00  0.00     0.060 A 
HETATM   12  C4  UNL     1      -1.181  50.638 -25.702  1.00  0.00     0.062 A 
HETATM   13  C5  UNL     1       0.095  50.611 -26.280  1.00  0.00     0.038 A 
HETATM   14  C6  UNL     1       1.039  51.613 -26.011  1.00  0.00    -0.060 A 
HETATM   15  C7  UNL     1       2.377  51.597 -26.692  1.00  0.00     0.048 C 
HETATM   16  C8  UNL     1       0.689  52.670 -25.173  1.00  0.00     0.009 A 
HETATM   17  C9  UNL     1      -0.570  52.699 -24.575  1.00  0.00     0.032 A 
BRANCH  12  18
HETATM   18  N1  UNL     1      -2.187  49.703 -26.056  1.00  0.00    -0.322 N 
HETATM   19  C3  UNL     1      -2.976  49.715 -27.182  1.00  0.00     0.244 C 
HETATM   20  O1  UNL     1      -2.835  50.413 -28.181  1.00  0.00    -0.268 OA
HETATM   21  H4  UNL     1      -2.366  48.976 -25.381  1.00  0.00     0.169 HD
BRANCH  19  22
HETATM   22  C2  UNL     1      -4.055  48.687 -27.184  1.00  0.00     0.064 C 
HETATM   23  C1  UNL     1      -4.730  48.266 -28.261  1.00  0.00     0.017 C 
ENDBRANCH  19  22
ENDBRANCH  12  18
ENDBRANCH   9  11
ENDBRANCH   1   9
BRANCH   8  24
HETATM   24  C22 UNL     1      -5.461  50.807 -23.564  1.00  0.00     0.422 C 
HETATM   25  F1  UNL     1      -6.686  50.609 -23.004  1.00  0.00    -0.166 F 
HETATM   26  F2  UNL     1      -5.335  49.857 -24.528  1.00  0.00    -0.166 F 
HETATM   27  F3  UNL     1      -5.548  52.001 -24.223  1.00  0.00    -0.166 F 
ENDBRANCH   8  24
BRANCH   4  28
HETATM   28  N4  UNL     1      -1.372  50.562 -19.759  1.00  0.00    -0.191 N 
HETATM   29  H12 UNL     1      -1.474  49.672 -19.296  1.00  0.00     0.184 HD
BRANCH  28  30
HETATM   30  C13 UNL     1      -0.402  51.444 -19.259  1.00  0.00     0.060 A 
HETATM   31  C14 UNL     1       0.107  52.510 -20.008  1.00  0.00     0.086 A 
HETATM   32  C15 UNL     1       1.084  53.329 -19.462  1.00  0.00     0.143 A 
HETATM   33  N5  UNL     1       1.597  53.168 -18.228  1.00  0.00    -0.346 N 
HETATM   34  C17 UNL     1       1.111  52.133 -17.518  1.00  0.00     0.099 A 
ATOM     35  H5  UNL     1       2.311  53.793 -17.854  1.00  0.00     0.167 HD
HETATM   36  C18 UNL     1       0.128  51.250 -17.968  1.00  0.00    -0.019 A 
HETATM   37  C19 UNL     1      -0.305  50.123 -17.074  1.00  0.00     0.052 C 
BRANCH  32  38
HETATM   38  O2  UNL     1       1.540  54.355 -20.268  1.00  0.00    -0.341 OA
HETATM   39  C16 UNL     1       1.522  54.031 -21.654  1.00  0.00     0.211 C 
ENDBRANCH  32  38
ENDBRANCH  28  30
ENDBRANCH   4  28
TORSDOF 8
ENDMDL
MODEL 2
REMARK minimizedAffinity -7.62430048
REMARK CNNscore 0.37991178
REMARK CNNaffinity 6.90764284
REMARK  8 active torsions:
REMARK  status: ('A' for Active; 'I' for Inactive)
REMARK    1  A    between atoms: C2_2  and  C3_3 
REMARK       I    between atoms: C3_3  and  N1_5 
REMARK    2  A    between atoms: N1_5  and  C4_6 
REMARK    3  A    between atoms: C10_12  and  N2_13 
REMARK    4  A    between atoms: N2_13  and  C11_14 
REMARK    5  A    between atoms: C12_17  and  N4_18 
REMARK    6  A    between atoms: N4_18  and  C13_19 
REMARK    7  A    between atoms: C15_21  and  O2_22 
REMARK    8  A    between atoms: C21_32  and  C22_33 
ROOT
HETATM    1  C11 UNL     1       0.922  51.505 -15.662  1.00  0.00     0.138 A 
HETATM    2  N3  UNL     1       0.304  51.956 -16.770  1.00  0.00    -0.176 N 
ATOM      3  H3  UNL     1      -0.694  51.789 -16.900  1.00  0.00     0.186 HD
HETATM    4  C12 UNL     1       0.996  52.622 -17.697  1.00  0.00     0.684 A 
HETATM    5  N6  UNL     1       2.305  52.869 -17.578  1.00  0.00    -0.201 N 
ATOM      6  H6  UNL     1       2.816  53.389 -18.291  1.00  0.00     0.183 HD
HETATM    7  C20 UNL     1       2.918  52.400 -16.476  1.00  0.00     0.126 A 
HETATM    8  C21 UNL     1       2.274  51.706 -15.477  1.00  0.00     0.108 A 
ENDROOT
BRANCH   1   9
HETATM    9  N2  UNL     1       0.167  50.780 -14.720  1.00  0.00    -0.339 N 
HETATM   10  H11 UNL     1       0.606  49.935 -14.370  1.00  0.00     0.167 HD
BRANCH   9  11
HETATM   11  C10 UNL     1      -0.849  51.285 -13.869  1.00  0.00     0.060 A 
HETATM   12  C4  UNL     1      -2.210  50.951 -14.065  1.00  0.00     0.062 A 
HETATM   13  C5  UNL     1      -3.180  51.515 -13.225  1.00  0.00     0.038 A 
HETATM   14  C6  UNL     1      -2.825  52.374 -12.174  1.00  0.00    -0.060 A 
HETATM   15  C7  UNL     1      -3.877  52.915 -11.250  1.00  0.00     0.048 C 
HETATM   16  C8  UNL     1      -1.478  52.649 -11.947  1.00  0.00     0.009 A 
HETATM   17  C9  UNL     1      -0.504  52.111 -12.787  1.00  0.00     0.032 A 
BRANCH  12  18
HETATM   18  N1  UNL     1      -2.538  49.987 -15.052  1.00  0.00    -0.322 N 
HETATM   19  C3  UNL     1      -2.889  50.222 -16.361  1.00  0.00     0.244 C 
HETATM   20  O1  UNL     1      -2.798  51.278 -16.976  1.00  0.00    -0.268 OA
HETATM   21  H4  UNL     1      -2.554  49.029 -14.740  1.00  0.00     0.169 HD
BRANCH  19  22
HETATM   22  C2  UNL     1      -3.337  49.008 -17.101  1.00  0.00     0.064 C 
HETATM   23  C1  UNL     1      -2.551  48.196 -17.819  1.00  0.00     0.017 C 
ENDBRANCH  19  22
ENDBRANCH  12  18
ENDBRANCH   9  11
ENDBRANCH   1   9
BRANCH   8  24
HETATM   24  C22 UNL     1       3.010  51.195 -14.299  1.00  0.00     0.422 C 
HETATM   25  F1  UNL     1       4.350  51.077 -14.509  1.00  0.00    -0.166 F 
HETATM   26  F2  UNL     1       2.587  49.967 -13.896  1.00  0.00    -0.166 F 
HETATM   27  F3  UNL     1       2.881  52.011 -13.210  1.00  0.00    -0.166 F 
ENDBRANCH   8  24
BRANCH   4  28
HETATM   28  N4  UNL     1       0.402  53.103 -18.861  1.00  0.00    -0.191 N 
HETATM   29  H12 UNL     1       0.066  54.037 -18.685  1.00  0.00     0.184 HD
BRANCH  28  30
HETATM   30  C13 UNL     1       0.111  52.535 -20.110  1.00  0.00     0.060 A 
HETATM   31  C14 UNL     1      -0.670  51.384 -20.253  1.00  0.00     0.086 A 
HETATM   32  C15 UNL     1      -0.897  50.859 -21.516  1.00  0.00     0.143 A 
HETATM   33  N5  UNL     1      -0.405  51.391 -22.651  1.00  0.00    -0.346 N 
HETATM   34  C17 UNL     1       0.356  52.492 -22.505  1.00  0.00     0.099 A 
ATOM     35  H5  UNL     1      -0.596  50.983 -23.566  1.00  0.00     0.167 HD
HETATM   36  C18 UNL     1       0.647  53.102 -21.284  1.00  0.00    -0.019 A 
HETATM   37  C19 UNL     1       1.531  54.318 -21.268  1.00  0.00     0.052 C 
BRANCH  32  38
HETATM   38  O2  UNL     1      -1.673  49.717 -21.573  1.00  0.00    -0.341 OA
HETATM   39  C16 UNL     1      -1.007  48.561 -21.077  1.00  0.00     0.211 C 
ENDBRANCH  32  38
ENDBRANCH  28  30
ENDBRANCH   4  28
TORSDOF 8
ENDMDL
MODEL 3
REMARK minimizedAffinity -7.82225752
REMARK CNNscore 0.272250473
REMARK CNNaffinity 6.94024467
REMARK  8 active torsions:
REMARK  status: ('A' for Active; 'I' for Inactive)
REMARK    1  A    between atoms: C2_2  and  C3_3 
REMARK       I    between atoms: C3_3  and  N1_5 
REMARK    2  A    between atoms: N1_5  and  C4_6 
REMARK    3  A    between atoms: C10_12  and  N2_13 
REMARK    4  A    between atoms: N2_13  and  C11_14 
REMARK    5  A    between atoms: C12_17  and  N4_18 
REMARK    6  A    between atoms: N4_18  and  C13_19 
REMARK    7  A    between atoms: C15_21  and  O2_22 
REMARK    8  A    between atoms: C21_32  and  C22_33 
ROOT
HETATM    1  C11 UNL     1      -0.364  51.608 -21.621  1.00  0.00     0.138 A 
HETATM    2  N3  UNL     1      -0.844  50.364 -21.803  1.00  0.00    -0.176 N 
ATOM      3  H3  UNL     1      -1.197  50.082 -22.717  1.00  0.00     0.186 HD
HETATM    4  C12 UNL     1      -0.859  49.499 -20.785  1.00  0.00     0.684 A 
HETATM    5  N6  UNL     1      -0.410  49.815 -19.566  1.00  0.00    -0.201 N 
ATOM      6  H6  UNL     1      -0.419  49.138 -18.803  1.00  0.00     0.183 HD
HETATM    7  C20 UNL     1       0.053  51.065 -19.390  1.00  0.00     0.126 A 
HETATM    8  C21 UNL     1       0.101  52.013 -20.388  1.00  0.00     0.108 A 
ENDROOT
BRANCH   1   9
HETATM    9  N2  UNL     1      -0.392  52.503 -22.709  1.00  0.00    -0.339 N 
HETATM   10  H11 UNL     1      -0.300  53.483 -22.465  1.00  0.00     0.167 HD
BRANCH   9  11
HETATM   11  C10 UNL     1      -0.055  52.220 -24.057  1.00  0.00     0.060 A 
HETATM   12  C4  UNL     1      -0.993  51.648 -24.948  1.00  0.00     0.062 A 
HETATM   13  C5  UNL     1      -0.596  51.343 -26.257  1.00  0.00     0.038 A 
HETATM   14  C6  UNL     1       0.701  51.627 -26.710  1.00  0.00    -0.060 A 
HETATM   15  C7  UNL     1       1.084  51.349 -28.135  1.00  0.00     0.048 C 
HETATM   16  C8  UNL     1       1.601  52.249 -25.848  1.00  0.00     0.009 A 
HETATM   17  C9  UNL     1       1.226  52.539 -24.537  1.00  0.00     0.032 A 
BRANCH  12  18
HETATM   18  N1  UNL     1      -2.332  51.481 -24.510  1.00  0.00    -0.322 N 
HETATM   19  C3  UNL     1      -3.448  52.134 -24.977  1.00  0.00     0.244 C 
HETATM   20  O1  UNL     1      -3.534  52.835 -25.979  1.00  0.00    -0.268 OA
HETATM   21  H4  UNL     1      -2.465  50.840 -23.744  1.00  0.00     0.169 HD
BRANCH  19  22
HETATM   22  C2  UNL     1      -4.689  51.859 -24.198  1.00  0.00     0.064 C 
HETATM   23  C1  UNL     1      -4.753  51.671 -22.874  1.00  0.00     0.017 C 
ENDBRANCH  19  22
ENDBRANCH  12  18
ENDBRANCH   9  11
ENDBRANCH   1   9
BRANCH   8  24
HETATM   24  C22 UNL     1       0.601  53.381 -20.125  1.00  0.00     0.422 C 
HETATM   25  F1  UNL     1      -0.317  54.185 -19.520  1.00  0.00    -0.166 F 
HETATM   26  F2  UNL     1       0.983  54.037 -21.253  1.00  0.00    -0.166 F 
HETATM   27  F3  UNL     1       1.692  53.387 -19.301  1.00  0.00    -0.166 F 
ENDBRANCH   8  24
BRANCH   4  28
HETATM   28  N4  UNL     1      -1.351  48.204 -20.922  1.00  0.00    -0.191 N 
HETATM   29  H12 UNL     1      -0.633  47.632 -21.337  1.00  0.00     0.184 HD
BRANCH  28  30
HETATM   30  C13 UNL     1      -2.605  47.612 -20.703  1.00  0.00     0.060 A 
HETATM   31  C14 UNL     1      -2.937  46.964 -19.510  1.00  0.00     0.086 A 
HETATM   32  C15 UNL     1      -4.186  46.378 -19.370  1.00  0.00     0.143 A 
HETATM   33  N5  UNL     1      -5.131  46.384 -20.328  1.00  0.00    -0.346 N 
HETATM   34  C17 UNL     1      -4.801  46.999 -21.479  1.00  0.00     0.099 A 
ATOM     35  H5  UNL     1      -6.043  45.948 -20.191  1.00  0.00     0.167 HD
HETATM   36  C18 UNL     1      -3.575  47.622 -21.726  1.00  0.00    -0.019 A 
HETATM   37  C19 UNL     1      -3.334  48.252 -23.068  1.00  0.00     0.052 C 
BRANCH  32  38
HETATM   38  O2  UNL     1      -4.434  45.751 -18.163  1.00  0.00    -0.341 OA
HETATM   39  C16 UNL     1      -4.852  44.399 -18.309  1.00  0.00     0.211 C 
ENDBRANCH  32  38
ENDBRANCH  28  30
ENDBRANCH   4  28
TORSDOF 8
ENDMDL
MODEL 4
REMARK minimizedAffinity -8.47155666
REMARK CNNscore 0.252799273
REMARK CNNaffinity 7.06176519
REMARK  8 active torsions:
REMARK  status: ('A' for Active; 'I' for Inactive)
REMARK    1  A    between atoms: C2_2  and  C3_3 
REMARK       I    between atoms: C3_3  and  N1_5 
REMARK    2  A    between atoms: N1_5  and  C4_6 
REMARK    3  A    between atoms: C10_12  and  N2_13 
REMARK    4  A    between atoms: N2_13  and  C11_14 
REMARK    5  A    between atoms: C12_17  and  N4_18 
REMARK    6  A    between atoms: N4_18  and  C13_19 
REMARK    7  A    between atoms: C15_21  and  O2_22 
REMARK    8  A    between atoms: C21_32  and  C22_33 
ROOT
HETATM    1  C11 UNL     1      -0.168  51.800 -21.555  1.00  0.00     0.138 A 
HETATM    2  N3  UNL     1       0.151  51.880 -20.249  1.00  0.00    -0.176 N 
ATOM      3  H3  UNL     1      -0.202  51.183 -19.594  1.00  0.00     0.186 HD
HETATM    4  C12 UNL     1       0.930  52.873 -19.812  1.00  0.00     0.684 A 
HETATM    5  N6  UNL     1       1.421  53.814 -20.625  1.00  0.00    -0.201 N 
ATOM      6  H6  UNL     1       2.023  54.559 -20.276  1.00  0.00     0.183 HD
HETATM    7  C20 UNL     1       1.083  53.735 -21.925  1.00  0.00     0.126 A 
HETATM    8  C21 UNL     1       0.286  52.744 -22.452  1.00  0.00     0.108 A 
ENDROOT
BRANCH   1   9
HETATM    9  N2  UNL     1      -1.016  50.758 -21.975  1.00  0.00    -0.339 N 
HETATM   10  H11 UNL     1      -0.547  49.902 -22.249  1.00  0.00     0.167 HD
BRANCH   9  11
HETATM   11  C10 UNL     1      -2.378  50.570 -21.624  1.00  0.00     0.060 A 
HETATM   12  C4  UNL     1      -3.302  49.998 -22.530  1.00  0.00     0.062 A 
HETATM   13  C5  UNL     1      -4.646  49.879 -22.152  1.00  0.00     0.038 A 
HETATM   14  C6  UNL     1      -5.085  50.282 -20.882  1.00  0.00    -0.060 A 
HETATM   15  C7  UNL     1      -6.517  50.086 -20.477  1.00  0.00     0.048 C 
HETATM   16  C8  UNL     1      -4.159  50.786 -19.971  1.00  0.00     0.009 A 
HETATM   17  C9  UNL     1      -2.822  50.929 -20.340  1.00  0.00     0.032 A 
BRANCH  12  18
HETATM   18  N1  UNL     1      -2.818  49.485 -23.761  1.00  0.00    -0.322 N 
HETATM   19  C3  UNL     1      -3.049  49.986 -25.020  1.00  0.00     0.244 C 
HETATM   20  O1  UNL     1      -3.546  51.069 -25.309  1.00  0.00    -0.268 OA
HETATM   21  H4  UNL     1      -2.282  48.635 -23.699  1.00  0.00     0.169 HD
BRANCH  19  22
HETATM   22  C2  UNL     1      -2.539  49.125 -26.124  1.00  0.00     0.064 C 
HETATM   23  C1  UNL     1      -3.291  48.509 -27.045  1.00  0.00     0.017 C 
ENDBRANCH  19  22
ENDBRANCH  12  18
ENDBRANCH   9  11
ENDBRANCH   1   9
BRANCH   8  24
HETATM   24  C22 UNL     1      -0.068  52.725 -23.889  1.00  0.00     0.422 C 
HETATM   25  F1  UNL     1       0.178  51.529 -24.491  1.00  0.00    -0.166 F 
HETATM   26  F2  UNL     1       0.607  53.654 -24.617  1.00  0.00    -0.166 F 
HETATM   27  F3  UNL     1      -1.395  52.975 -24.101  1.00  0.00    -0.166 F 
ENDBRANCH   8  24
BRANCH   4  28
HETATM   28  N4  UNL     1       1.283  53.001 -18.471  1.00  0.00    -0.191 N 
HETATM   29  H12 UNL     1       1.839  53.835 -18.366  1.00  0.00     0.184 HD
BRANCH  28  30
HETATM   30  C13 UNL     1       1.110  52.191 -17.338  1.00  0.00     0.060 A 
HETATM   31  C14 UNL     1      -0.042  51.429 -17.122  1.00  0.00     0.086 A 
HETATM   32  C15 UNL     1      -0.159  50.670 -15.968  1.00  0.00     0.143 A 
HETATM   33  N5  UNL     1       0.783  50.611 -15.009  1.00  0.00    -0.346 N 
HETATM   34  C17 UNL     1       1.885  51.356 -15.217  1.00  0.00     0.099 A 
ATOM     35  H5  UNL     1       0.669  50.037 -14.173  1.00  0.00     0.167 HD
HETATM   36  C18 UNL     1       2.106  52.154 -16.342  1.00  0.00    -0.019 A 
HETATM   37  C19 UNL     1       3.376  52.951 -16.432  1.00  0.00     0.052 C 
BRANCH  32  38
HETATM   38  O2  UNL     1      -1.331  49.952 -15.825  1.00  0.00    -0.341 OA
HETATM   39  C16 UNL     1      -2.497  50.720 -16.098  1.00  0.00     0.211 C 
ENDBRANCH  32  38
ENDBRANCH  28  30
ENDBRANCH   4  28
TORSDOF 8
ENDMDL
MODEL 5
REMARK minimizedAffinity -7.71959305
REMARK CNNscore 0.235728323
REMARK CNNaffinity 6.90863848
REMARK  8 active torsions:
REMARK  status: ('A' for Active; 'I' for Inactive)
REMARK    1  A    between atoms: C2_2  and  C3_3 
REMARK       I    between atoms: C3_3  and  N1_5 
REMARK    2  A    between atoms: N1_5  and  C4_6 
REMARK    3  A    between atoms: C10_12  and  N2_13 
REMARK    4  A    between atoms: N2_13  and  C11_14 
REMARK    5  A    between atoms: C12_17  and  N4_18 
REMARK    6  A    between atoms: N4_18  and  C13_19 
REMARK    7  A    between atoms: C15_21  and  O2_22 
REMARK    8  A    between atoms: C21_32  and  C22_33 
ROOT
HETATM    1  C11 UNL     1      -0.667  51.437 -21.719  1.00  0.00     0.138 A 
HETATM    2  N3  UNL     1      -1.452  50.351 -21.846  1.00  0.00    -0.176 N 
ATOM      3  H3  UNL     1      -1.975  50.198 -22.708  1.00  0.00     0.186 HD
HETATM    4  C12 UNL     1      -1.545  49.474 -20.844  1.00  0.00     0.684 A 
HETATM    5  N6  UNL     1      -0.882  49.624 -19.692  1.00  0.00    -0.201 N 
ATOM      6  H6  UNL     1      -0.957  48.939 -18.941  1.00  0.00     0.183 HD
HETATM    7  C20 UNL     1      -0.113  50.721 -19.568  1.00  0.00     0.126 A 
HETATM    8  C21 UNL     1       0.035  51.669 -20.555  1.00  0.00     0.108 A 
ENDROOT
BRANCH   1   9
HETATM    9  N2  UNL     1      -0.616  52.357 -22.785  1.00  0.00    -0.339 N 
HETATM   10  H11 UNL     1      -0.541  53.331 -22.513  1.00  0.00     0.167 HD
BRANCH   9  11
HETATM   11  C10 UNL     1      -0.183  52.103 -24.112  1.00  0.00     0.060 A 
HETATM   12  C4  UNL     1      -1.033  51.488 -25.061  1.00  0.00     0.062 A 
HETATM   13  C5  UNL     1      -0.541  51.217 -26.345  1.00  0.00     0.038 A 
HETATM   14  C6  UNL     1       0.764  51.575 -26.717  1.00  0.00    -0.060 A 
HETATM   15  C7  UNL     1       1.247  51.330 -28.117  1.00  0.00     0.048 C 
HETATM   16  C8  UNL     1       1.575  52.238 -25.798  1.00  0.00     0.009 A 
HETATM   17  C9  UNL     1       1.106  52.496 -24.511  1.00  0.00     0.032 A 
BRANCH  12  18
HETATM   18  N1  UNL     1      -2.384  51.245 -24.706  1.00  0.00    -0.322 N 
HETATM   19  C3  UNL     1      -3.484  51.994 -25.054  1.00  0.00     0.244 C 
HETATM   20  O1  UNL     1      -3.538  52.892 -25.887  1.00  0.00    -0.268 OA
HETATM   21  H4  UNL     1      -2.542  50.458 -24.098  1.00  0.00     0.169 HD
BRANCH  19  22
HETATM   22  C2  UNL     1      -4.748  51.570 -24.387  1.00  0.00     0.064 C 
HETATM   23  C1  UNL     1      -5.000  51.644 -23.074  1.00  0.00     0.017 C 
ENDBRANCH  19  22
ENDBRANCH  12  18
ENDBRANCH   9  11
ENDBRANCH   1   9
BRANCH   8  24
HETATM   24  C22 UNL     1       0.879  52.868 -20.348  1.00  0.00     0.422 C 
HETATM   25  F1  UNL     1       0.179  54.036 -20.394  1.00  0.00    -0.166 F 
HETATM   26  F2  UNL     1       1.868  52.990 -21.273  1.00  0.00    -0.166 F 
HETATM   27  F3  UNL     1       1.501  52.862 -19.131  1.00  0.00    -0.166 F 
ENDBRANCH   8  24
BRANCH   4  28
HETATM   28  N4  UNL     1      -2.348  48.339 -20.926  1.00  0.00    -0.191 N 
HETATM   29  H12 UNL     1      -1.768  47.527 -20.780  1.00  0.00     0.184 HD
BRANCH  28  30
HETATM   30  C13 UNL     1      -3.695  48.123 -21.253  1.00  0.00     0.060 A 
HETATM   31  C14 UNL     1      -4.159  48.102 -22.572  1.00  0.00     0.086 A 
HETATM   32  C15 UNL     1      -5.508  47.909 -22.824  1.00  0.00     0.143 A 
HETATM   33  N5  UNL     1      -6.436  47.738 -21.864  1.00  0.00    -0.346 N 
HETATM   34  C17 UNL     1      -5.985  47.772 -20.595  1.00  0.00     0.099 A 
ATOM     35  H5  UNL     1      -7.421  47.592 -22.083  1.00  0.00     0.167 HD
HETATM   36  C18 UNL     1      -4.650  47.957 -20.230  1.00  0.00    -0.019 A 
HETATM   37  C19 UNL     1      -4.292  47.995 -18.771  1.00  0.00     0.052 C 
BRANCH  32  38
HETATM   38  O2  UNL     1      -5.887  47.908 -24.153  1.00  0.00    -0.341 OA
HETATM   39  C16 UNL     1      -7.158  47.306 -24.374  1.00  0.00     0.211 C 
ENDBRANCH  32  38
ENDBRANCH  28  30
ENDBRANCH   4  28
TORSDOF 8
ENDMDL
MODEL 6
REMARK minimizedAffinity -8.04838848
REMARK CNNscore 0.20572859
REMARK CNNaffinity 6.88118505
REMARK  8 active torsions:
REMARK  status: ('A' for Active; 'I' for Inactive)
REMARK    1  A    between atoms: C2_2  and  C3_3 
REMARK       I    between atoms: C3_3  and  N1_5 
REMARK    2  A    between atoms: N1_5  and  C4_6 
REMARK    3  A    between atoms: C10_12  and  N2_13 
REMARK    4  A    between atoms: N2_13  and  C11_14 
REMARK    5  A    between atoms: C12_17  and  N4_18 
REMARK    6  A    between atoms: N4_18  and  C13_19 
REMARK    7  A    between atoms: C15_21  and  O2_22 
REMARK    8  A    between atoms: C21_32  and  C22_33 
ROOT
HETATM    1  C11 UNL     1      -1.332  51.084 -20.143  1.00  0.00     0.138 A 
HETATM    2  N3  UNL     1      -1.301  51.877 -21.230  1.00  0.00    -0.176 N 
ATOM      3  H3  UNL     1      -1.223  52.888 -21.122  1.00  0.00     0.186 HD
HETATM    4  C12 UNL     1      -1.371  51.340 -22.451  1.00  0.00     0.684 A 
HETATM    5  N6  UNL     1      -1.475  50.022 -22.652  1.00  0.00    -0.201 N 
ATOM      6  H6  UNL     1      -1.516  49.628 -23.591  1.00  0.00     0.183 HD
HETATM    7  C20 UNL     1      -1.521  49.239 -21.559  1.00  0.00     0.126 A 
HETATM    8  C21 UNL     1      -1.454  49.717 -20.270  1.00  0.00     0.108 A 
ENDROOT
BRANCH   1   9
HETATM    9  N2  UNL     1      -1.286  51.688 -18.871  1.00  0.00    -0.339 N 
HETATM   10  H11 UNL     1      -2.173  51.733 -18.381  1.00  0.00     0.167 HD
BRANCH   9  11
HETATM   11  C10 UNL     1      -0.160  51.793 -18.016  1.00  0.00     0.060 A 
HETATM   12  C4  UNL     1       0.923  52.650 -18.323  1.00  0.00     0.062 A 
HETATM   13  C5  UNL     1       2.034  52.682 -17.469  1.00  0.00     0.038 A 
HETATM   14  C6  UNL     1       2.077  51.909 -16.299  1.00  0.00    -0.060 A 
HETATM   15  C7  UNL     1       3.250  52.007 -15.368  1.00  0.00     0.048 C 
HETATM   16  C8  UNL     1       0.980  51.115 -15.968  1.00  0.00     0.009 A 
HETATM   17  C9  UNL     1      -0.123  51.058 -16.819  1.00  0.00     0.032 A 
BRANCH  12  18
HETATM   18  N1  UNL     1       0.810  53.514 -19.443  1.00  0.00    -0.322 N 
HETATM   19  C3  UNL     1       1.380  53.347 -20.683  1.00  0.00     0.244 C 
HETATM   20  O1  UNL     1       1.926  52.341 -21.121  1.00  0.00    -0.268 OA
HETATM   21  H4  UNL     1       0.287  54.361 -19.290  1.00  0.00     0.169 HD
BRANCH  19  22
HETATM   22  C2  UNL     1       1.210  54.514 -21.596  1.00  0.00     0.064 C 
HETATM   23  C1  UNL     1       1.313  54.482 -22.930  1.00  0.00     0.017 C 
ENDBRANCH  19  22
ENDBRANCH  12  18
ENDBRANCH   9  11
ENDBRANCH   1   9
BRANCH   8  24
HETATM   24  C22 UNL     1      -1.535  48.804 -19.107  1.00  0.00     0.422 C 
HETATM   25  F1  UNL     1      -0.367  48.708 -18.413  1.00  0.00    -0.166 F 
HETATM   26  F2  UNL     1      -1.869  47.531 -19.449  1.00  0.00    -0.166 F 
HETATM   27  F3  UNL     1      -2.470  49.205 -18.195  1.00  0.00    -0.166 F 
ENDBRANCH   8  24
BRANCH   4  28
HETATM   28  N4  UNL     1      -1.349  52.119 -23.605  1.00  0.00    -0.191 N 
HETATM   29  H12 UNL     1      -1.314  53.089 -23.334  1.00  0.00     0.184 HD
BRANCH  28  30
HETATM   30  C13 UNL     1      -1.463  51.832 -24.974  1.00  0.00     0.060 A 
HETATM   31  C14 UNL     1      -0.354  51.578 -25.788  1.00  0.00     0.086 A 
HETATM   32  C15 UNL     1      -0.536  51.326 -27.139  1.00  0.00     0.143 A 
HETATM   33  N5  UNL     1      -1.738  51.310 -27.745  1.00  0.00    -0.346 N 
HETATM   34  C17 UNL     1      -2.800  51.567 -26.959  1.00  0.00     0.099 A 
ATOM     35  H5  UNL     1      -1.838  51.115 -28.742  1.00  0.00     0.167 HD
HETATM   36  C18 UNL     1      -2.730  51.831 -25.589  1.00  0.00    -0.019 A 
HETATM   37  C19 UNL     1      -3.998  52.123 -24.838  1.00  0.00     0.052 C 
BRANCH  32  38
HETATM   38  O2  UNL     1       0.609  51.092 -27.876  1.00  0.00    -0.341 OA
HETATM   39  C16 UNL     1       1.372  52.269 -28.116  1.00  0.00     0.211 C 
ENDBRANCH  32  38
ENDBRANCH  28  30
ENDBRANCH   4  28
TORSDOF 8
ENDMDL
MODEL 7
REMARK minimizedAffinity -8.23587418
REMARK CNNscore 0.194188729
REMARK CNNaffinity 7.08428621
REMARK  8 active torsions:
REMARK  status: ('A' for Active; 'I' for Inactive)
REMARK    1  A    between atoms: C2_2  and  C3_3 
REMARK       I    between atoms: C3_3  and  N1_5 
REMARK    2  A    between atoms: N1_5  and  C4_6 
REMARK    3  A    between atoms: C10_12  and  N2_13 
REMARK    4  A    between atoms: N2_13  and  C11_14 
REMARK    5  A    between atoms: C12_17  and  N4_18 
REMARK    6  A    between atoms: N4_18  and  C13_19 
REMARK    7  A    between atoms: C15_21  and  O2_22 
REMARK    8  A    between atoms: C21_32  and  C22_33 
ROOT
HETATM    1  C11 UNL     1      -0.759  51.870 -22.034  1.00  0.00     0.138 A 
HETATM    2  N3  UNL     1      -0.766  52.041 -20.699  1.00  0.00    -0.176 N 
ATOM      3  H3  UNL     1      -1.426  51.521 -20.122  1.00  0.00     0.186 HD
HETATM    4  C12 UNL     1       0.092  52.892 -20.130  1.00  0.00     0.684 A 
HETATM    5  N6  UNL     1       0.978  53.601 -20.839  1.00  0.00    -0.201 N 
ATOM      6  H6  UNL     1       1.633  54.238 -20.387  1.00  0.00     0.183 HD
HETATM    7  C20 UNL     1       0.967  53.435 -22.173  1.00  0.00     0.126 A 
HETATM    8  C21 UNL     1       0.115  52.578 -22.832  1.00  0.00     0.108 A 
ENDROOT
BRANCH   1   9
HETATM    9  N2  UNL     1      -1.698  50.987 -22.602  1.00  0.00    -0.339 N 
HETATM   10  H11 UNL     1      -1.307  50.264 -23.197  1.00  0.00     0.167 HD
BRANCH   9  11
HETATM   11  C10 UNL     1      -2.988  50.674 -22.102  1.00  0.00     0.060 A 
HETATM   12  C4  UNL     1      -3.858  49.804 -22.798  1.00  0.00     0.062 A 
HETATM   13  C5  UNL     1      -5.141  49.565 -22.286  1.00  0.00     0.038 A 
HETATM   14  C6  UNL     1      -5.563  50.144 -21.080  1.00  0.00    -0.060 A 
HETATM   15  C7  UNL     1      -6.919  49.823 -20.519  1.00  0.00     0.048 C 
HETATM   16  C8  UNL     1      -4.679  50.949 -20.366  1.00  0.00     0.009 A 
HETATM   17  C9  UNL     1      -3.407  51.212 -20.874  1.00  0.00     0.032 A 
BRANCH  12  18
HETATM   18  N1  UNL     1      -3.372  49.133 -23.950  1.00  0.00    -0.322 N 
HETATM   19  C3  UNL     1      -3.168  49.667 -25.200  1.00  0.00     0.244 C 
HETATM   20  O1  UNL     1      -3.179  50.852 -25.513  1.00  0.00    -0.268 OA
HETATM   21  H4  UNL     1      -3.199  48.147 -23.840  1.00  0.00     0.169 HD
BRANCH  19  22
HETATM   22  C2  UNL     1      -2.806  48.663 -26.242  1.00  0.00     0.064 C 
HETATM   23  C1  UNL     1      -3.512  48.396 -27.347  1.00  0.00     0.017 C 
ENDBRANCH  19  22
ENDBRANCH  12  18
ENDBRANCH   9  11
ENDBRANCH   1   9
BRANCH   8  24
HETATM   24  C22 UNL     1       0.136  52.457 -24.308  1.00  0.00     0.422 C 
HETATM   25  F1  UNL     1      -0.880  53.128 -24.919  1.00  0.00    -0.166 F 
HETATM   26  F2  UNL     1       0.046  51.172 -24.740  1.00  0.00    -0.166 F 
HETATM   27  F3  UNL     1       1.285  52.957 -24.854  1.00  0.00    -0.166 F 
ENDBRANCH   8  24
BRANCH   4  28
HETATM   28  N4  UNL     1       0.118  53.108 -18.755  1.00  0.00    -0.191 N 
HETATM   29  H12 UNL     1      -0.254  54.026 -18.569  1.00  0.00     0.184 HD
BRANCH  28  30
HETATM   30  C13 UNL     1       0.627  52.382 -17.667  1.00  0.00     0.060 A 
HETATM   31  C14 UNL     1       1.833  52.709 -17.038  1.00  0.00     0.086 A 
HETATM   32  C15 UNL     1       2.291  51.934 -15.984  1.00  0.00     0.143 A 
HETATM   33  N5  UNL     1       1.643  50.854 -15.508  1.00  0.00    -0.346 N 
HETATM   34  C17 UNL     1       0.489  50.538 -16.125  1.00  0.00     0.099 A 
ATOM     35  H5  UNL     1       2.005  50.308 -14.726  1.00  0.00     0.167 HD
HETATM   36  C18 UNL     1      -0.063  51.250 -17.192  1.00  0.00    -0.019 A 
HETATM   37  C19 UNL     1      -1.351  50.769 -17.800  1.00  0.00     0.052 C 
BRANCH  32  38
HETATM   38  O2  UNL     1       3.493  52.317 -15.422  1.00  0.00    -0.341 OA
HETATM   39  C16 UNL     1       4.574  52.310 -16.347  1.00  0.00     0.211 C 
ENDBRANCH  32  38
ENDBRANCH  28  30
ENDBRANCH   4  28
TORSDOF 8
ENDMDL
MODEL 8
REMARK minimizedAffinity -8.00881672
REMARK CNNscore 0.172298834
REMARK CNNaffinity 6.02201891
REMARK  8 active torsions:
REMARK  status: ('A' for Active; 'I' for Inactive)
REMARK    1  A    between atoms: C2_2  and  C3_3 
REMARK       I    between atoms: C3_3  and  N1_5 
REMARK    2  A    between atoms: N1_5  and  C4_6 
REMARK    3  A    between atoms: C10_12  and  N2_13 
REMARK    4  A    between atoms: N2_13  and  C11_14 
REMARK    5  A    between atoms: C12_17  and  N4_18 
REMARK    6  A    between atoms: N4_18  and  C13_19 
REMARK    7  A    between atoms: C15_21  and  O2_22 
REMARK    8  A    between atoms: C21_32  and  C22_33 
ROOT
HETATM    1  C11 UNL     1      -0.366  51.042 -20.881  1.00  0.00     0.138 A 
HETATM    2  N3  UNL     1      -0.960  50.141 -21.685  1.00  0.00    -0.176 N 
ATOM      3  H3  UNL     1      -1.133  49.193 -21.350  1.00  0.00     0.186 HD
HETATM    4  C12 UNL     1      -1.324  50.487 -22.922  1.00  0.00     0.684 A 
HETATM    5  N6  UNL     1      -1.121  51.714 -23.414  1.00  0.00    -0.201 N 
ATOM      6  H6  UNL     1      -1.415  51.965 -24.358  1.00  0.00     0.183 HD
HETATM    7  C20 UNL     1      -0.512  52.603 -22.609  1.00  0.00     0.126 A 
HETATM    8  C21 UNL     1      -0.109  52.322 -21.323  1.00  0.00     0.108 A 
ENDROOT
BRANCH   1   9
HETATM    9  N2  UNL     1       0.031  50.632 -19.593  1.00  0.00    -0.339 N 
HETATM   10  H11 UNL     1       1.031  50.634 -19.427  1.00  0.00     0.167 HD
BRANCH   9  11
HETATM   11  C10 UNL     1      -0.741  50.685 -18.404  1.00  0.00     0.060 A 
HETATM   12  C4  UNL     1      -0.181  51.112 -17.178  1.00  0.00     0.062 A 
HETATM   13  C5  UNL     1      -0.974  51.101 -16.022  1.00  0.00     0.038 A 
HETATM   14  C6  UNL     1      -2.320  50.708 -16.065  1.00  0.00    -0.060 A 
HETATM   15  C7  UNL     1      -3.166  50.765 -14.826  1.00  0.00     0.048 C 
HETATM   16  C8  UNL     1      -2.884  50.350 -17.287  1.00  0.00     0.009 A 
HETATM   17  C9  UNL     1      -2.102  50.337 -18.442  1.00  0.00     0.032 A 
BRANCH  12  18
HETATM   18  N1  UNL     1       1.144  51.621 -17.176  1.00  0.00    -0.322 N 
HETATM   19  C3  UNL     1       1.811  52.202 -16.124  1.00  0.00     0.244 C 
HETATM   20  O1  UNL     1       1.470  52.219 -14.946  1.00  0.00    -0.268 OA
HETATM   21  H4  UNL     1       1.627  51.585 -18.059  1.00  0.00     0.169 HD
BRANCH  19  22
HETATM   22  C2  UNL     1       3.134  52.785 -16.486  1.00  0.00     0.064 C 
HETATM   23  C1  UNL     1       4.326  52.314 -16.100  1.00  0.00     0.017 C 
ENDBRANCH  19  22
ENDBRANCH  12  18
ENDBRANCH   9  11
ENDBRANCH   1   9
BRANCH   8  24
HETATM   24  C22 UNL     1       0.578  53.338 -20.494  1.00  0.00     0.422 C 
HETATM   25  F1  UNL     1       1.773  52.912 -19.999  1.00  0.00    -0.166 F 
HETATM   26  F2  UNL     1      -0.152  53.732 -19.417  1.00  0.00    -0.166 F 
HETATM   27  F3  UNL     1       0.858  54.478 -21.194  1.00  0.00    -0.166 F 
ENDBRANCH   8  24
BRANCH   4  28
HETATM   28  N4  UNL     1      -1.936  49.590 -23.793  1.00  0.00    -0.191 N 
HETATM   29  H12 UNL     1      -1.237  49.232 -24.425  1.00  0.00     0.184 HD
BRANCH  28  30
HETATM   30  C13 UNL     1      -3.266  49.197 -24.008  1.00  0.00     0.060 A 
HETATM   31  C14 UNL     1      -4.229  49.204 -22.995  1.00  0.00     0.086 A 
HETATM   32  C15 UNL     1      -5.520  48.779 -23.270  1.00  0.00     0.143 A 
HETATM   33  N5  UNL     1      -5.927  48.344 -24.477  1.00  0.00    -0.346 N 
HETATM   34  C17 UNL     1      -4.992  48.328 -25.445  1.00  0.00     0.099 A 
ATOM     35  H5  UNL     1      -6.887  48.043 -24.648  1.00  0.00     0.167 HD
HETATM   36  C18 UNL     1      -3.666  48.735 -25.278  1.00  0.00    -0.019 A 
HETATM   37  C19 UNL     1      -2.723  48.643 -26.444  1.00  0.00     0.052 C 
BRANCH  32  38
HETATM   38  O2  UNL     1      -6.411  48.809 -22.214  1.00  0.00    -0.341 OA
HETATM   39  C16 UNL     1      -7.424  49.797 -22.363  1.00  0.00     0.211 C 
ENDBRANCH  32  38
ENDBRANCH  28  30
ENDBRANCH   4  28
TORSDOF 8
ENDMDL
MODEL 9
REMARK minimizedAffinity -8.00888538
REMARK CNNscore 0.170588061
REMARK CNNaffinity 5.89842176
REMARK  8 active torsions:
REMARK  status: ('A' for Active; 'I' for Inactive)
REMARK    1  A    between atoms: C2_2  and  C3_3 
REMARK       I    between atoms: C3_3  and  N1_5 
REMARK    2  A    between atoms: N1_5  and  C4_6 
REMARK    3  A    between atoms: C10_12  and  N2_13 
REMARK    4  A    between atoms: N2_13  and  C11_14 
REMARK    5  A    between atoms: C12_17  and  N4_18 
REMARK    6  A    between atoms: N4_18  and  C13_19 
REMARK    7  A    between atoms: C15_21  and  O2_22 
REMARK    8  A    between atoms: C21_32  and  C22_33 
ROOT
HETATM    1  C11 UNL     1      -2.695  49.129 -21.565  1.00  0.00     0.138 A 
HETATM    2  N3  UNL     1      -1.895  50.188 -21.792  1.00  0.00    -0.176 N 
ATOM      3  H3  UNL     1      -2.171  50.900 -22.467  1.00  0.00     0.186 HD
HETATM    4  C12 UNL     1      -0.739  50.305 -21.133  1.00  0.00     0.684 A 
HETATM    5  N6  UNL     1      -0.327  49.401 -20.237  1.00  0.00    -0.201 N 
ATOM      6  H6  UNL     1       0.553  49.513 -19.735  1.00  0.00     0.183 HD
HETATM    7  C20 UNL     1      -1.125  48.339 -20.029  1.00  0.00     0.126 A 
HETATM    8  C21 UNL     1      -2.330  48.148 -20.668  1.00  0.00     0.108 A 
ENDROOT
BRANCH   1   9
HETATM    9  N2  UNL     1      -3.892  49.023 -22.300  1.00  0.00    -0.339 N 
HETATM   10  H11 UNL     1      -4.700  49.467 -21.878  1.00  0.00     0.167 HD
BRANCH   9  11
HETATM   11  C10 UNL     1      -4.020  48.822 -23.698  1.00  0.00     0.060 A 
HETATM   12  C4  UNL     1      -5.275  48.552 -24.293  1.00  0.00     0.062 A 
HETATM   13  C5  UNL     1      -5.341  48.314 -25.673  1.00  0.00     0.038 A 
HETATM   14  C6  UNL     1      -4.194  48.373 -26.478  1.00  0.00    -0.060 A 
HETATM   15  C7  UNL     1      -4.300  48.176 -27.963  1.00  0.00     0.048 C 
HETATM   16  C8  UNL     1      -2.971  48.702 -25.897  1.00  0.00     0.009 A 
HETATM   17  C9  UNL     1      -2.887  48.921 -24.522  1.00  0.00     0.032 A 
BRANCH  12  18
HETATM   18  N1  UNL     1      -6.439  48.618 -23.484  1.00  0.00    -0.322 N 
HETATM   19  C3  UNL     1      -7.012  47.594 -22.767  1.00  0.00     0.244 C 
HETATM   20  O1  UNL     1      -6.531  46.492 -22.530  1.00  0.00    -0.268 OA
HETATM   21  H4  UNL     1      -6.915  49.505 -23.474  1.00  0.00     0.169 HD
BRANCH  19  22
HETATM   22  C2  UNL     1      -8.325  47.941 -22.151  1.00  0.00     0.064 C 
HETATM   23  C1  UNL     1      -9.235  47.064 -21.709  1.00  0.00     0.017 C 
ENDBRANCH  19  22
ENDBRANCH  12  18
ENDBRANCH   9  11
ENDBRANCH   1   9
BRANCH   8  24
HETATM   24  C22 UNL     1      -3.152  46.944 -20.411  1.00  0.00     0.422 C 
HETATM   25  F1  UNL     1      -2.762  46.248 -19.307  1.00  0.00    -0.166 F 
HETATM   26  F2  UNL     1      -3.130  46.053 -21.439  1.00  0.00    -0.166 F 
HETATM   27  F3  UNL     1      -4.469  47.247 -20.206  1.00  0.00    -0.166 F 
ENDBRANCH   8  24
BRANCH   4  28
HETATM   28  N4  UNL     1       0.124  51.378 -21.338  1.00  0.00    -0.191 N 
HETATM   29  H12 UNL     1       0.603  51.572 -20.472  1.00  0.00     0.184 HD
BRANCH  28  30
HETATM   30  C13 UNL     1       0.358  52.245 -22.417  1.00  0.00     0.060 A 
HETATM   31  C14 UNL     1       0.032  51.916 -23.736  1.00  0.00     0.086 A 
HETATM   32  C15 UNL     1       0.315  52.809 -24.758  1.00  0.00     0.143 A 
HETATM   33  N5  UNL     1       0.901  54.006 -24.569  1.00  0.00    -0.346 N 
HETATM   34  C17 UNL     1       1.224  54.312 -23.299  1.00  0.00     0.099 A 
ATOM     35  H5  UNL     1       1.090  54.643 -25.343  1.00  0.00     0.167 HD
HETATM   36  C18 UNL     1       0.984  53.489 -22.196  1.00  0.00    -0.019 A 
HETATM   37  C19 UNL     1       1.418  53.950 -20.834  1.00  0.00     0.052 C 
BRANCH  32  38
HETATM   38  O2  UNL     1      -0.032  52.407 -26.033  1.00  0.00    -0.341 OA
HETATM   39  C16 UNL     1      -0.102  53.483 -26.962  1.00  0.00     0.211 C 
ENDBRANCH  32  38
ENDBRANCH  28  30
ENDBRANCH   4  28
TORSDOF 8
ENDMDL
