MODEL 1
REMARK minimizedAffinity -7.94876051
REMARK CNNscore 0.562872946
REMARK CNNaffinity 6.18600464
REMARK  7 active torsions:
REMARK  status: ('A' for Active; 'I' for Inactive)
REMARK       I    between atoms: C1_2  and  N1_3 
REMARK    1  A    between atoms: C1_2  and  C8_12 
REMARK    2  A    between atoms: N1_3  and  C2_4 
REMARK    3  A    between atoms: C5_7  and  O2_8 
REMARK    4  A    between atoms: N2_15  and  C11_16 
REMARK    5  A    between atoms: C11_16  and  C12_17 
REMARK       I    between atoms: C12_17  and  N3_19 
REMARK    6  A    between atoms: N4_22  and  C15_23 
REMARK    7  A    between atoms: C18_26  and  C19_27 
ROOT
HETATM    1  C11 UNL     1      -6.941  47.063 -27.828  1.00  0.00     0.374 C 
ENDROOT
BRANCH   1   2
HETATM    2  N2  UNL     1      -5.966  48.110 -27.476  1.00  0.00     0.098 N 
HETATM    3  C10 UNL     1      -4.745  48.027 -28.269  1.00  0.00     0.274 C 
HETATM    4  C9  UNL     1      -3.779  48.877 -27.466  1.00  0.00     0.046 C 
HETATM    5  C8  UNL     1      -4.079  48.453 -26.032  1.00  0.00     0.108 C 
HETATM    6  C27 UNL     1      -5.575  48.113 -26.054  1.00  0.00     0.287 C 
BRANCH   5   7
HETATM    7  C1  UNL     1      -3.682  49.493 -24.990  1.00  0.00     0.228 C 
HETATM    8  O1  UNL     1      -3.226  50.586 -25.299  1.00  0.00    -0.273 OA
HETATM    9  N1  UNL     1      -3.962  49.066 -23.697  1.00  0.00    -0.327 N 
HETATM   10  H1  UNL     1      -4.369  48.142 -23.605  1.00  0.00     0.169 HD
BRANCH   9  11
HETATM   11  C2  UNL     1      -3.746  49.768 -22.493  1.00  0.00     0.036 A 
HETATM   12  C3  UNL     1      -4.744  50.458 -21.800  1.00  0.00     0.032 A 
HETATM   13  C4  UNL     1      -4.451  51.137 -20.611  1.00  0.00     0.040 A 
HETATM   14  C5  UNL     1      -3.157  51.124 -20.111  1.00  0.00     0.087 A 
HETATM   15  C6  UNL     1      -2.152  50.439 -20.791  1.00  0.00     0.069 A 
HETATM   16 CL1  UNL     1      -0.536  50.422 -20.180  1.00  0.00    -0.081 Cl
HETATM   17  C7  UNL     1      -2.442  49.766 -21.979  1.00  0.00     0.056 A 
BRANCH  14  18
HETATM   18  O2  UNL     1      -2.920  51.799 -18.947  1.00  0.00    -0.359 OA
HETATM   19  H4  UNL     1      -1.979  51.672 -18.725  1.00  0.00     0.217 HD
ENDBRANCH  14  18
ENDBRANCH   9  11
ENDBRANCH   5   7
ENDBRANCH   1   2
BRANCH   1  20
HETATM   20  C12 UNL     1      -8.116  47.579 -28.688  1.00  0.00     0.248 C 
HETATM   21  O3  UNL     1      -7.959  48.295 -29.679  1.00  0.00    -0.271 OA
HETATM   22  N3  UNL     1      -9.390  47.190 -28.283  1.00  0.00    -0.348 N 
HETATM   23  C13 UNL     1      -9.673  46.275 -27.174  1.00  0.00     0.145 C 
HETATM   24  C26 UNL     1     -10.552  47.697 -29.013  1.00  0.00     0.145 C 
HETATM   25  C14 UNL     1     -11.058  45.604 -27.267  1.00  0.00     0.143 C 
HETATM   26  N4  UNL     1     -12.131  46.598 -27.408  1.00  0.00    -0.378 N 
HETATM   27  C25 UNL     1     -11.806  47.843 -28.132  1.00  0.00     0.143 C 
BRANCH  26  28
HETATM   28  C15 UNL     1     -13.429  46.339 -26.989  1.00  0.00     0.030 A 
HETATM   29  C16 UNL     1     -14.361  45.686 -27.808  1.00  0.00     0.030 A 
HETATM   30  C17 UNL     1     -15.670  45.411 -27.381  1.00  0.00     0.014 A 
HETATM   31  C18 UNL     1     -16.095  45.784 -26.106  1.00  0.00    -0.025 A 
HETATM   32  C23 UNL     1     -15.189  46.443 -25.276  1.00  0.00     0.014 A 
HETATM   33  C24 UNL     1     -13.883  46.709 -25.713  1.00  0.00     0.030 A 
BRANCH  31  34
HETATM   34  C19 UNL     1     -17.458  45.495 -25.670  1.00  0.00    -0.019 A 
HETATM   35  C20 UNL     1     -18.167  44.258 -25.807  1.00  0.00     0.020 A 
HETATM   36  C21 UNL     1     -19.437  44.310 -25.276  1.00  0.00     0.050 A 
HETATM   37  S1  UNL     1     -19.782  45.838 -24.598  1.00  0.00    -0.113 SA
HETATM   38  C22 UNL     1     -18.234  46.434 -25.017  1.00  0.00     0.061 A 
ENDBRANCH  31  34
ENDBRANCH  26  28
ENDBRANCH   1  20
TORSDOF 7
ENDMDL
MODEL 2
REMARK minimizedAffinity -8.76569843
REMARK CNNscore 0.545208752
REMARK CNNaffinity 6.20279264
REMARK  7 active torsions:
REMARK  status: ('A' for Active; 'I' for Inactive)
REMARK       I    between atoms: C1_2  and  N1_3 
REMARK    1  A    between atoms: C1_2  and  C8_12 
REMARK    2  A    between atoms: N1_3  and  C2_4 
REMARK    3  A    between atoms: C5_7  and  O2_8 
REMARK    4  A    between atoms: N2_15  and  C11_16 
REMARK    5  A    between atoms: C11_16  and  C12_17 
REMARK       I    between atoms: C12_17  and  N3_19 
REMARK    6  A    between atoms: N4_22  and  C15_23 
REMARK    7  A    between atoms: C18_26  and  C19_27 
ROOT
HETATM    1  C11 UNL     1      -7.490  47.191 -27.689  1.00  0.00     0.374 C 
ENDROOT
BRANCH   1   2
HETATM    2  N2  UNL     1      -6.331  48.097 -27.627  1.00  0.00     0.098 N 
HETATM    3  C10 UNL     1      -5.351  47.827 -28.673  1.00  0.00     0.274 C 
HETATM    4  C9  UNL     1      -4.120  48.548 -28.161  1.00  0.00     0.046 C 
HETATM    5  C8  UNL     1      -4.129  48.200 -26.676  1.00  0.00     0.108 C 
HETATM    6  C27 UNL     1      -5.618  48.074 -26.335  1.00  0.00     0.287 C 
BRANCH   5   7
HETATM    7  C1  UNL     1      -3.363  49.194 -25.809  1.00  0.00     0.228 C 
HETATM    8  O1  UNL     1      -3.546  49.285 -24.602  1.00  0.00    -0.273 OA
HETATM    9  N1  UNL     1      -2.422  49.906 -26.544  1.00  0.00    -0.327 N 
HETATM   10  H1  UNL     1      -2.369  49.696 -27.535  1.00  0.00     0.169 HD
BRANCH   9  11
HETATM   11  C2  UNL     1      -1.527  50.891 -26.074  1.00  0.00     0.036 A 
HETATM   12  C3  UNL     1      -1.915  52.008 -25.329  1.00  0.00     0.032 A 
HETATM   13  C4  UNL     1      -0.968  52.946 -24.902  1.00  0.00     0.040 A 
HETATM   14  C5  UNL     1       0.371  52.767 -25.216  1.00  0.00     0.087 A 
HETATM   15  C6  UNL     1       0.772  51.657 -25.958  1.00  0.00     0.069 A 
HETATM   16 CL1  UNL     1       2.436  51.428 -26.362  1.00  0.00    -0.081 Cl
HETATM   17  C7  UNL     1      -0.172  50.724 -26.389  1.00  0.00     0.056 A 
BRANCH  14  18
HETATM   18  O2  UNL     1       1.258  53.708 -24.776  1.00  0.00    -0.359 OA
HETATM   19  H4  UNL     1       2.147  53.424 -25.059  1.00  0.00     0.217 HD
ENDBRANCH  14  18
ENDBRANCH   9  11
ENDBRANCH   5   7
ENDBRANCH   1   2
BRANCH   1  20
HETATM   20  C12 UNL     1      -8.709  47.801 -28.416  1.00  0.00     0.248 C 
HETATM   21  O3  UNL     1      -8.605  48.614 -29.336  1.00  0.00    -0.271 OA
HETATM   22  N3  UNL     1      -9.961  47.380 -27.974  1.00  0.00    -0.348 N 
HETATM   23  C13 UNL     1     -10.186  46.357 -26.949  1.00  0.00     0.145 C 
HETATM   24  C26 UNL     1     -11.160  47.967 -28.574  1.00  0.00     0.145 C 
HETATM   25  C14 UNL     1     -11.582  45.708 -27.023  1.00  0.00     0.143 C 
HETATM   26  N4  UNL     1     -12.650  46.718 -26.993  1.00  0.00    -0.378 N 
HETATM   27  C25 UNL     1     -12.354  48.029 -27.605  1.00  0.00     0.143 C 
BRANCH  26  28
HETATM   28  C15 UNL     1     -13.922  46.425 -26.522  1.00  0.00     0.030 A 
HETATM   29  C16 UNL     1     -14.785  45.550 -27.198  1.00  0.00     0.030 A 
HETATM   30  C17 UNL     1     -16.067  45.242 -26.716  1.00  0.00     0.014 A 
HETATM   31  C18 UNL     1     -16.535  45.805 -25.529  1.00  0.00    -0.025 A 
HETATM   32  C23 UNL     1     -15.698  46.686 -24.843  1.00  0.00     0.014 A 
HETATM   33  C24 UNL     1     -14.418  46.983 -25.333  1.00  0.00     0.030 A 
BRANCH  31  34
HETATM   34  C19 UNL     1     -17.870  45.480 -25.035  1.00  0.00    -0.019 A 
HETATM   35  C20 UNL     1     -18.949  46.390 -24.792  1.00  0.00     0.020 A 
HETATM   36  C21 UNL     1     -20.086  45.760 -24.341  1.00  0.00     0.050 A 
HETATM   37  S1  UNL     1     -19.874  44.070 -24.218  1.00  0.00    -0.113 SA
HETATM   38  C22 UNL     1     -18.256  44.181 -24.766  1.00  0.00     0.061 A 
ENDBRANCH  31  34
ENDBRANCH  26  28
ENDBRANCH   1  20
TORSDOF 7
ENDMDL
MODEL 3
REMARK minimizedAffinity -9.39706612
REMARK CNNscore 0.537429333
REMARK CNNaffinity 6.86112022
REMARK  7 active torsions:
REMARK  status: ('A' for Active; 'I' for Inactive)
REMARK       I    between atoms: C1_2  and  N1_3 
REMARK    1  A    between atoms: C1_2  and  C8_12 
REMARK    2  A    between atoms: N1_3  and  C2_4 
REMARK    3  A    between atoms: C5_7  and  O2_8 
REMARK    4  A    between atoms: N2_15  and  C11_16 
REMARK    5  A    between atoms: C11_16  and  C12_17 
REMARK       I    between atoms: C12_17  and  N3_19 
REMARK    6  A    between atoms: N4_22  and  C15_23 
REMARK    7  A    between atoms: C18_26  and  C19_27 
ROOT
HETATM    1  C11 UNL     1      -3.813  48.455 -27.479  1.00  0.00     0.374 C 
ENDROOT
BRANCH   1   2
HETATM    2  N2  UNL     1      -3.573  49.830 -27.011  1.00  0.00     0.098 N 
HETATM    3  C10 UNL     1      -3.106  50.711 -28.076  1.00  0.00     0.274 C 
HETATM    4  C9  UNL     1      -2.538  51.884 -27.301  1.00  0.00     0.046 C 
HETATM    5  C8  UNL     1      -1.791  51.197 -26.163  1.00  0.00     0.108 C 
HETATM    6  C27 UNL     1      -2.608  49.927 -25.898  1.00  0.00     0.287 C 
BRANCH   5   7
HETATM    7  C1  UNL     1      -1.588  52.085 -24.940  1.00  0.00     0.228 C 
HETATM    8  O1  UNL     1      -2.419  52.913 -24.589  1.00  0.00    -0.273 OA
HETATM    9  N1  UNL     1      -0.407  51.786 -24.271  1.00  0.00    -0.327 N 
HETATM   10  H1  UNL     1       0.164  51.050 -24.670  1.00  0.00     0.169 HD
BRANCH   9  11
HETATM   11  C2  UNL     1       0.094  52.388 -23.097  1.00  0.00     0.036 A 
HETATM   12  C3  UNL     1       0.858  53.558 -23.083  1.00  0.00     0.032 A 
HETATM   13  C4  UNL     1       1.325  54.092 -21.877  1.00  0.00     0.040 A 
HETATM   14  C5  UNL     1       1.026  53.458 -20.680  1.00  0.00     0.087 A 
HETATM   15  C6  UNL     1       0.265  52.291 -20.679  1.00  0.00     0.069 A 
HETATM   16 CL1  UNL     1      -0.107  51.489 -19.195  1.00  0.00    -0.081 Cl
HETATM   17  C7  UNL     1      -0.197  51.754 -21.881  1.00  0.00     0.056 A 
BRANCH  14  18
HETATM   18  O2  UNL     1       1.503  54.019 -19.529  1.00  0.00    -0.359 OA
HETATM   19  H4  UNL     1       1.187  53.469 -18.787  1.00  0.00     0.217 HD
ENDBRANCH  14  18
ENDBRANCH   9  11
ENDBRANCH   5   7
ENDBRANCH   1   2
BRANCH   1  20
HETATM   20  C12 UNL     1      -4.924  48.353 -28.547  1.00  0.00     0.248 C 
HETATM   21  O3  UNL     1      -4.722  48.549 -29.747  1.00  0.00    -0.271 OA
HETATM   22  N3  UNL     1      -6.194  48.022 -28.082  1.00  0.00    -0.348 N 
HETATM   23  C13 UNL     1      -6.516  47.688 -26.692  1.00  0.00     0.145 C 
HETATM   24  C26 UNL     1      -7.307  47.974 -29.031  1.00  0.00     0.145 C 
HETATM   25  C14 UNL     1      -7.811  46.866 -26.540  1.00  0.00     0.143 C 
HETATM   26  N4  UNL     1      -8.950  47.528 -27.192  1.00  0.00    -0.378 N 
HETATM   27  C25 UNL     1      -8.662  48.334 -28.396  1.00  0.00     0.143 C 
BRANCH  26  28
HETATM   28  C15 UNL     1     -10.258  47.315 -26.777  1.00  0.00     0.030 A 
HETATM   29  C16 UNL     1     -10.562  46.774 -25.519  1.00  0.00     0.030 A 
HETATM   30  C17 UNL     1     -11.884  46.571 -25.092  1.00  0.00     0.014 A 
HETATM   31  C18 UNL     1     -12.957  46.905 -25.917  1.00  0.00    -0.025 A 
HETATM   32  C23 UNL     1     -12.680  47.436 -27.177  1.00  0.00     0.014 A 
HETATM   33  C24 UNL     1     -11.355  47.637 -27.591  1.00  0.00     0.030 A 
BRANCH  31  34
HETATM   34  C19 UNL     1     -14.329  46.689 -25.466  1.00  0.00    -0.019 A 
HETATM   35  C20 UNL     1     -14.970  47.280 -24.330  1.00  0.00     0.020 A 
HETATM   36  C21 UNL     1     -16.279  46.878 -24.187  1.00  0.00     0.050 A 
HETATM   37  S1  UNL     1     -16.754  45.800 -25.424  1.00  0.00    -0.113 SA
HETATM   38  C22 UNL     1     -15.205  45.867 -26.149  1.00  0.00     0.061 A 
ENDBRANCH  31  34
ENDBRANCH  26  28
ENDBRANCH   1  20
TORSDOF 7
ENDMDL
MODEL 4
REMARK minimizedAffinity -8.32888699
REMARK CNNscore 0.488945782
REMARK CNNaffinity 6.19190979
REMARK  7 active torsions:
REMARK  status: ('A' for Active; 'I' for Inactive)
REMARK       I    between atoms: C1_2  and  N1_3 
REMARK    1  A    between atoms: C1_2  and  C8_12 
REMARK    2  A    between atoms: N1_3  and  C2_4 
REMARK    3  A    between atoms: C5_7  and  O2_8 
REMARK    4  A    between atoms: N2_15  and  C11_16 
REMARK    5  A    between atoms: C11_16  and  C12_17 
REMARK       I    between atoms: C12_17  and  N3_19 
REMARK    6  A    between atoms: N4_22  and  C15_23 
REMARK    7  A    between atoms: C18_26  and  C19_27 
ROOT
HETATM    1  C11 UNL     1      -7.514  47.286 -27.158  1.00  0.00     0.374 C 
ENDROOT
BRANCH   1   2
HETATM    2  N2  UNL     1      -6.325  48.154 -27.163  1.00  0.00     0.098 N 
HETATM    3  C10 UNL     1      -5.426  47.867 -28.274  1.00  0.00     0.274 C 
HETATM    4  C9  UNL     1      -4.141  48.544 -27.836  1.00  0.00     0.046 C 
HETATM    5  C8  UNL     1      -4.064  48.177 -26.358  1.00  0.00     0.108 C 
HETATM    6  C27 UNL     1      -5.531  48.093 -25.921  1.00  0.00     0.287 C 
BRANCH   5   7
HETATM    7  C1  UNL     1      -3.212  49.137 -25.534  1.00  0.00     0.228 C 
HETATM    8  O1  UNL     1      -3.191  49.105 -24.310  1.00  0.00    -0.273 OA
HETATM    9  N1  UNL     1      -2.446  49.973 -26.338  1.00  0.00    -0.327 N 
HETATM   10  H1  UNL     1      -2.552  49.858 -27.339  1.00  0.00     0.169 HD
BRANCH   9  11
HETATM   11  C2  UNL     1      -1.534  50.967 -25.924  1.00  0.00     0.036 A 
HETATM   12  C3  UNL     1      -1.894  52.105 -25.196  1.00  0.00     0.032 A 
HETATM   13  C4  UNL     1      -0.932  53.051 -24.826  1.00  0.00     0.040 A 
HETATM   14  C5  UNL     1       0.395  52.860 -25.182  1.00  0.00     0.087 A 
HETATM   15  C6  UNL     1       0.769  51.731 -25.907  1.00  0.00     0.069 A 
HETATM   16 CL1  UNL     1       2.417  51.487 -26.361  1.00  0.00    -0.081 Cl
HETATM   17  C7  UNL     1      -0.190  50.789 -26.281  1.00  0.00     0.056 A 
BRANCH  14  18
HETATM   18  O2  UNL     1       1.298  53.811 -24.797  1.00  0.00    -0.359 OA
HETATM   19  H4  UNL     1       2.176  53.517 -25.102  1.00  0.00     0.217 HD
ENDBRANCH  14  18
ENDBRANCH   9  11
ENDBRANCH   5   7
ENDBRANCH   1   2
BRANCH   1  20
HETATM   20  C12 UNL     1      -8.662  47.808 -28.050  1.00  0.00     0.248 C 
HETATM   21  O3  UNL     1      -8.607  48.879 -28.657  1.00  0.00    -0.271 OA
HETATM   22  N3  UNL     1      -9.788  46.994 -28.141  1.00  0.00    -0.348 N 
HETATM   23  C13 UNL     1      -9.915  45.668 -27.529  1.00  0.00     0.145 C 
HETATM   24  C26 UNL     1     -10.939  47.459 -28.916  1.00  0.00     0.145 C 
HETATM   25  C14 UNL     1     -10.986  44.782 -28.194  1.00  0.00     0.143 C 
HETATM   26  N4  UNL     1     -12.290  45.458 -28.245  1.00  0.00    -0.378 N 
HETATM   27  C25 UNL     1     -12.283  46.928 -28.384  1.00  0.00     0.143 C 
BRANCH  26  28
HETATM   28  C15 UNL     1     -13.482  44.747 -28.283  1.00  0.00     0.030 A 
HETATM   29  C16 UNL     1     -13.525  43.353 -28.131  1.00  0.00     0.030 A 
HETATM   30  C17 UNL     1     -14.731  42.635 -28.155  1.00  0.00     0.014 A 
HETATM   31  C18 UNL     1     -15.947  43.293 -28.334  1.00  0.00    -0.025 A 
HETATM   32  C23 UNL     1     -15.930  44.678 -28.496  1.00  0.00     0.014 A 
HETATM   33  C24 UNL     1     -14.719  45.385 -28.467  1.00  0.00     0.030 A 
BRANCH  31  34
HETATM   34  C19 UNL     1     -17.197  42.538 -28.359  1.00  0.00    -0.019 A 
HETATM   35  C20 UNL     1     -17.817  41.852 -27.265  1.00  0.00     0.020 A 
HETATM   36  C21 UNL     1     -19.002  41.247 -27.618  1.00  0.00     0.050 A 
HETATM   37  S1  UNL     1     -19.388  41.509 -29.261  1.00  0.00    -0.113 SA
HETATM   38  C22 UNL     1     -17.965  42.430 -29.503  1.00  0.00     0.061 A 
ENDBRANCH  31  34
ENDBRANCH  26  28
ENDBRANCH   1  20
TORSDOF 7
ENDMDL
MODEL 5
REMARK minimizedAffinity -8.62715149
REMARK CNNscore 0.469837934
REMARK CNNaffinity 6.73732758
REMARK  7 active torsions:
REMARK  status: ('A' for Active; 'I' for Inactive)
REMARK       I    between atoms: C1_2  and  N1_3 
REMARK    1  A    between atoms: C1_2  and  C8_12 
REMARK    2  A    between atoms: N1_3  and  C2_4 
REMARK    3  A    between atoms: C5_7  and  O2_8 
REMARK    4  A    between atoms: N2_15  and  C11_16 
REMARK    5  A    between atoms: C11_16  and  C12_17 
REMARK       I    between atoms: C12_17  and  N3_19 
REMARK    6  A    between atoms: N4_22  and  C15_23 
REMARK    7  A    between atoms: C18_26  and  C19_27 
ROOT
HETATM    1  C11 UNL     1       1.597  50.772 -13.492  1.00  0.00     0.374 C 
ENDROOT
BRANCH   1   2
HETATM    2  N2  UNL     1       1.843  51.031 -14.921  1.00  0.00     0.098 N 
HETATM    3  C10 UNL     1       2.953  51.950 -15.142  1.00  0.00     0.274 C 
HETATM    4  C9  UNL     1       2.738  52.381 -16.580  1.00  0.00     0.046 C 
HETATM    5  C8  UNL     1       1.229  52.593 -16.638  1.00  0.00     0.108 C 
HETATM    6  C27 UNL     1       0.673  51.564 -15.646  1.00  0.00     0.287 C 
BRANCH   5   7
HETATM    7  C1  UNL     1       0.650  52.491 -18.045  1.00  0.00     0.228 C 
HETATM    8  O1  UNL     1      -0.426  51.954 -18.271  1.00  0.00    -0.273 OA
HETATM    9  N1  UNL     1       1.454  53.127 -18.984  1.00  0.00    -0.327 N 
HETATM   10  H1  UNL     1       2.304  53.554 -18.635  1.00  0.00     0.169 HD
BRANCH   9  11
HETATM   11  C2  UNL     1       1.226  53.249 -20.371  1.00  0.00     0.036 A 
HETATM   12  C3  UNL     1       1.709  54.301 -21.154  1.00  0.00     0.032 A 
HETATM   13  C4  UNL     1       1.436  54.356 -22.526  1.00  0.00     0.040 A 
HETATM   14  C5  UNL     1       0.681  53.355 -23.119  1.00  0.00     0.087 A 
HETATM   15  C6  UNL     1       0.193  52.299 -22.351  1.00  0.00     0.069 A 
HETATM   16 CL1  UNL     1      -0.755  51.052 -23.078  1.00  0.00    -0.081 Cl
HETATM   17  C7  UNL     1       0.460  52.246 -20.982  1.00  0.00     0.056 A 
BRANCH  14  18
HETATM   18  O2  UNL     1       0.442  53.451 -24.461  1.00  0.00    -0.359 OA
HETATM   19  H4  UNL     1      -0.076  52.666 -24.720  1.00  0.00     0.217 HD
ENDBRANCH  14  18
ENDBRANCH   9  11
ENDBRANCH   5   7
ENDBRANCH   1   2
BRANCH   1  20
HETATM   20  C12 UNL     1       0.999  51.983 -12.742  1.00  0.00     0.248 C 
HETATM   21  O3  UNL     1      -0.129  52.423 -12.968  1.00  0.00    -0.271 OA
HETATM   22  N3  UNL     1       1.813  52.569 -11.775  1.00  0.00    -0.348 N 
HETATM   23  C13 UNL     1       3.130  52.068 -11.374  1.00  0.00     0.145 C 
HETATM   24  C26 UNL     1       1.335  53.760 -11.072  1.00  0.00     0.145 C 
HETATM   25  C14 UNL     1       3.570  52.541  -9.975  1.00  0.00     0.143 C 
HETATM   26  N4  UNL     1       3.512  54.005  -9.858  1.00  0.00    -0.378 N 
HETATM   27  C25 UNL     1       2.470  54.703 -10.637  1.00  0.00     0.143 C 
BRANCH  26  28
HETATM   28  C15 UNL     1       4.317  54.701  -8.965  1.00  0.00     0.030 A 
HETATM   29  C16 UNL     1       5.582  54.233  -8.580  1.00  0.00     0.030 A 
HETATM   30  C17 UNL     1       6.403  54.942  -7.689  1.00  0.00     0.014 A 
HETATM   31  C18 UNL     1       5.981  56.155  -7.146  1.00  0.00    -0.025 A 
HETATM   32  C23 UNL     1       4.723  56.637  -7.506  1.00  0.00     0.014 A 
HETATM   33  C24 UNL     1       3.914  55.921  -8.401  1.00  0.00     0.030 A 
BRANCH  31  34
HETATM   34  C19 UNL     1       6.841  56.885  -6.218  1.00  0.00    -0.019 A 
HETATM   35  C20 UNL     1       6.589  58.166  -5.630  1.00  0.00     0.020 A 
HETATM   36  C21 UNL     1       7.595  58.571  -4.782  1.00  0.00     0.050 A 
HETATM   37  S1  UNL     1       8.844  57.411  -4.675  1.00  0.00    -0.113 SA
HETATM   38  C22 UNL     1       8.040  56.367  -5.767  1.00  0.00     0.061 A 
ENDBRANCH  31  34
ENDBRANCH  26  28
ENDBRANCH   1  20
TORSDOF 7
ENDMDL
MODEL 6
REMARK minimizedAffinity -7.81677437
REMARK CNNscore 0.315055311
REMARK CNNaffinity 5.61985731
REMARK  7 active torsions:
REMARK  status: ('A' for Active; 'I' for Inactive)
REMARK       I    between atoms: C1_2  and  N1_3 
REMARK    1  A    between atoms: C1_2  and  C8_12 
REMARK    2  A    between atoms: N1_3  and  C2_4 
REMARK    3  A    between atoms: C5_7  and  O2_8 
REMARK    4  A    between atoms: N2_15  and  C11_16 
REMARK    5  A    between atoms: C11_16  and  C12_17 
REMARK       I    between atoms: C12_17  and  N3_19 
REMARK    6  A    between atoms: N4_22  and  C15_23 
REMARK    7  A    between atoms: C18_26  and  C19_27 
ROOT
HETATM    1  C11 UNL     1      -8.064  48.683 -18.038  1.00  0.00     0.374 C 
ENDROOT
BRANCH   1   2
HETATM    2  N2  UNL     1      -9.524  48.595 -17.864  1.00  0.00     0.098 N 
HETATM    3  C10 UNL     1      -9.912  47.570 -16.902  1.00  0.00     0.274 C 
HETATM    4  C9  UNL     1     -11.385  47.377 -17.209  1.00  0.00     0.046 C 
HETATM    5  C8  UNL     1     -11.407  47.386 -18.734  1.00  0.00     0.108 C 
HETATM    6  C27 UNL     1     -10.264  48.334 -19.115  1.00  0.00     0.287 C 
BRANCH   5   7
HETATM    7  C1  UNL     1     -12.762  47.762 -19.324  1.00  0.00     0.228 C 
HETATM    8  O1  UNL     1     -12.982  48.865 -19.806  1.00  0.00    -0.273 OA
HETATM    9  N1  UNL     1     -13.654  46.696 -19.297  1.00  0.00    -0.327 N 
HETATM   10  H1  UNL     1     -13.313  45.832 -18.890  1.00  0.00     0.169 HD
BRANCH   9  11
HETATM   11  C2  UNL     1     -14.983  46.672 -19.770  1.00  0.00     0.036 A 
HETATM   12  C3  UNL     1     -16.108  46.793 -18.949  1.00  0.00     0.032 A 
HETATM   13  C4  UNL     1     -17.397  46.755 -19.492  1.00  0.00     0.040 A 
HETATM   14  C5  UNL     1     -17.565  46.599 -20.860  1.00  0.00     0.087 A 
HETATM   15  C6  UNL     1     -16.452  46.477 -21.691  1.00  0.00     0.069 A 
HETATM   16 CL1  UNL     1     -16.650  46.275 -23.395  1.00  0.00    -0.081 Cl
HETATM   17  C7  UNL     1     -15.167  46.510 -21.150  1.00  0.00     0.056 A 
BRANCH  14  18
HETATM   18  O2  UNL     1     -18.842  46.569 -21.344  1.00  0.00    -0.359 OA
HETATM   19  H4  UNL     1     -18.783  46.478 -22.313  1.00  0.00     0.217 HD
ENDBRANCH  14  18
ENDBRANCH   9  11
ENDBRANCH   5   7
ENDBRANCH   1   2
BRANCH   1  20
HETATM   20  C12 UNL     1      -7.505  47.681 -19.072  1.00  0.00     0.248 C 
HETATM   21  O3  UNL     1      -7.780  46.479 -19.059  1.00  0.00    -0.271 OA
HETATM   22  N3  UNL     1      -6.657  48.208 -20.042  1.00  0.00    -0.348 N 
HETATM   23  C13 UNL     1      -6.340  49.631 -20.193  1.00  0.00     0.145 C 
HETATM   24  C26 UNL     1      -6.040  47.303 -21.013  1.00  0.00     0.145 C 
HETATM   25  C14 UNL     1      -5.841  50.005 -21.603  1.00  0.00     0.143 C 
HETATM   26  N4  UNL     1      -4.702  49.172 -22.011  1.00  0.00    -0.378 N 
HETATM   27  C25 UNL     1      -4.663  47.786 -21.502  1.00  0.00     0.143 C 
BRANCH  26  28
HETATM   28  C15 UNL     1      -3.762  49.616 -22.932  1.00  0.00     0.030 A 
HETATM   29  C16 UNL     1      -2.817  50.603 -22.616  1.00  0.00     0.030 A 
HETATM   30  C17 UNL     1      -1.857  51.044 -23.541  1.00  0.00     0.014 A 
HETATM   31  C18 UNL     1      -1.810  50.507 -24.827  1.00  0.00    -0.025 A 
HETATM   32  C23 UNL     1      -2.745  49.530 -25.168  1.00  0.00     0.014 A 
HETATM   33  C24 UNL     1      -3.697  49.096 -24.234  1.00  0.00     0.030 A 
BRANCH  31  34
HETATM   34  C19 UNL     1      -0.809  50.971 -25.783  1.00  0.00    -0.019 A 
HETATM   35  C20 UNL     1      -0.942  51.048 -27.207  1.00  0.00     0.020 A 
HETATM   36  C21 UNL     1       0.185  51.547 -27.821  1.00  0.00     0.050 A 
HETATM   37  S1  UNL     1       1.405  51.940 -26.693  1.00  0.00    -0.113 SA
HETATM   38  C22 UNL     1       0.427  51.439 -25.381  1.00  0.00     0.061 A 
ENDBRANCH  31  34
ENDBRANCH  26  28
ENDBRANCH   1  20
TORSDOF 7
ENDMDL
MODEL 7
REMARK minimizedAffinity -8.4749651
REMARK CNNscore 0.28325966
REMARK CNNaffinity 5.63302279
REMARK  7 active torsions:
REMARK  status: ('A' for Active; 'I' for Inactive)
REMARK       I    between atoms: C1_2  and  N1_3 
REMARK    1  A    between atoms: C1_2  and  C8_12 
REMARK    2  A    between atoms: N1_3  and  C2_4 
REMARK    3  A    between atoms: C5_7  and  O2_8 
REMARK    4  A    between atoms: N2_15  and  C11_16 
REMARK    5  A    between atoms: C11_16  and  C12_17 
REMARK       I    between atoms: C12_17  and  N3_19 
REMARK    6  A    between atoms: N4_22  and  C15_23 
REMARK    7  A    between atoms: C18_26  and  C19_27 
ROOT
HETATM    1  C11 UNL     1      -9.727  45.638 -30.182  1.00  0.00     0.374 C 
ENDROOT
BRANCH   1   2
HETATM    2  N2  UNL     1     -11.073  46.178 -29.924  1.00  0.00     0.098 N 
HETATM    3  C10 UNL     1     -11.044  47.569 -29.486  1.00  0.00     0.274 C 
HETATM    4  C9  UNL     1     -12.427  47.751 -28.892  1.00  0.00     0.046 C 
HETATM    5  C8  UNL     1     -12.624  46.455 -28.113  1.00  0.00     0.108 C 
HETATM    6  C27 UNL     1     -11.846  45.413 -28.926  1.00  0.00     0.287 C 
BRANCH   5   7
HETATM    7  C1  UNL     1     -14.088  46.103 -27.872  1.00  0.00     0.228 C 
HETATM    8  O1  UNL     1     -14.791  45.599 -28.739  1.00  0.00    -0.273 OA
HETATM    9  N1  UNL     1     -14.476  46.363 -26.562  1.00  0.00    -0.327 N 
HETATM   10  H1  UNL     1     -13.768  46.754 -25.951  1.00  0.00     0.169 HD
BRANCH   9  11
HETATM   11  C2  UNL     1     -15.743  46.146 -25.980  1.00  0.00     0.036 A 
HETATM   12  C3  UNL     1     -16.152  46.705 -24.766  1.00  0.00     0.032 A 
HETATM   13  C4  UNL     1     -17.425  46.438 -24.249  1.00  0.00     0.040 A 
HETATM   14  C5  UNL     1     -18.294  45.613 -24.948  1.00  0.00     0.087 A 
HETATM   15  C6  UNL     1     -17.900  45.050 -26.160  1.00  0.00     0.069 A 
HETATM   16 CL1  UNL     1     -18.972  44.016 -27.034  1.00  0.00    -0.081 Cl
HETATM   17  C7  UNL     1     -16.629  45.310 -26.674  1.00  0.00     0.056 A 
BRANCH  14  18
HETATM   18  O2  UNL     1     -19.526  45.384 -24.404  1.00  0.00    -0.359 OA
HETATM   19  H4  UNL     1     -20.014  44.811 -25.024  1.00  0.00     0.217 HD
ENDBRANCH  14  18
ENDBRANCH   9  11
ENDBRANCH   5   7
ENDBRANCH   1   2
BRANCH   1  20
HETATM   20  C12 UNL     1      -8.665  46.730 -30.441  1.00  0.00     0.248 C 
HETATM   21  O3  UNL     1      -8.507  47.265 -31.540  1.00  0.00    -0.271 OA
HETATM   22  N3  UNL     1      -7.875  47.089 -29.352  1.00  0.00    -0.348 N 
HETATM   23  C13 UNL     1      -8.043  46.575 -27.991  1.00  0.00     0.145 C 
HETATM   24  C26 UNL     1      -6.806  48.070 -29.544  1.00  0.00     0.145 C 
HETATM   25  C14 UNL     1      -7.435  47.487 -26.908  1.00  0.00     0.143 C 
HETATM   26  N4  UNL     1      -6.022  47.784 -27.182  1.00  0.00    -0.378 N 
HETATM   27  C25 UNL     1      -5.611  47.856 -28.599  1.00  0.00     0.143 C 
BRANCH  26  28
HETATM   28  C15 UNL     1      -5.130  48.102 -26.167  1.00  0.00     0.030 A 
HETATM   29  C16 UNL     1      -3.789  48.424 -26.426  1.00  0.00     0.030 A 
HETATM   30  C17 UNL     1      -2.889  48.760 -25.402  1.00  0.00     0.014 A 
HETATM   31  C18 UNL     1      -3.304  48.785 -24.071  1.00  0.00    -0.025 A 
HETATM   32  C23 UNL     1      -4.631  48.460 -23.787  1.00  0.00     0.014 A 
HETATM   33  C24 UNL     1      -5.521  48.130 -24.819  1.00  0.00     0.030 A 
BRANCH  31  34
HETATM   34  C19 UNL     1      -2.361  49.134 -23.012  1.00  0.00    -0.019 A 
HETATM   35  C20 UNL     1      -1.641  50.363 -22.864  1.00  0.00     0.020 A 
HETATM   36  C21 UNL     1      -0.840  50.381 -21.744  1.00  0.00     0.050 A 
HETATM   37  S1  UNL     1      -0.957  48.928 -20.854  1.00  0.00    -0.113 SA
HETATM   38  C22 UNL     1      -2.077  48.272 -21.969  1.00  0.00     0.061 A 
ENDBRANCH  31  34
ENDBRANCH  26  28
ENDBRANCH   1  20
TORSDOF 7
ENDMDL
MODEL 8
REMARK minimizedAffinity -8.59159756
REMARK CNNscore 0.266853541
REMARK CNNaffinity 5.2830224
REMARK  7 active torsions:
REMARK  status: ('A' for Active; 'I' for Inactive)
REMARK       I    between atoms: C1_2  and  N1_3 
REMARK    1  A    between atoms: C1_2  and  C8_12 
REMARK    2  A    between atoms: N1_3  and  C2_4 
REMARK    3  A    between atoms: C5_7  and  O2_8 
REMARK    4  A    between atoms: N2_15  and  C11_16 
REMARK    5  A    between atoms: C11_16  and  C12_17 
REMARK       I    between atoms: C12_17  and  N3_19 
REMARK    6  A    between atoms: N4_22  and  C15_23 
REMARK    7  A    between atoms: C18_26  and  C19_27 
ROOT
HETATM    1  C11 UNL     1      -9.109  44.714 -29.180  1.00  0.00     0.374 C 
ENDROOT
BRANCH   1   2
HETATM    2  N2  UNL     1     -10.504  44.946 -28.770  1.00  0.00     0.098 N 
HETATM    3  C10 UNL     1     -11.431  44.912 -29.895  1.00  0.00     0.274 C 
HETATM    4  C9  UNL     1     -12.666  45.577 -29.318  1.00  0.00     0.046 C 
HETATM    5  C8  UNL     1     -12.075  46.745 -28.536  1.00  0.00     0.108 C 
HETATM    6  C27 UNL     1     -10.718  46.219 -28.055  1.00  0.00     0.287 C 
BRANCH   5   7
HETATM    7  C1  UNL     1     -12.984  47.259 -27.423  1.00  0.00     0.228 C 
HETATM    8  O1  UNL     1     -13.006  48.436 -27.089  1.00  0.00    -0.273 OA
HETATM    9  N1  UNL     1     -13.796  46.253 -26.911  1.00  0.00    -0.327 N 
HETATM   10  H1  UNL     1     -13.680  45.330 -27.314  1.00  0.00     0.169 HD
BRANCH   9  11
HETATM   11  C2  UNL     1     -14.765  46.365 -25.892  1.00  0.00     0.036 A 
HETATM   12  C3  UNL     1     -14.522  46.938 -24.640  1.00  0.00     0.032 A 
HETATM   13  C4  UNL     1     -15.535  47.007 -23.677  1.00  0.00     0.040 A 
HETATM   14  C5  UNL     1     -16.796  46.507 -23.965  1.00  0.00     0.087 A 
HETATM   15  C6  UNL     1     -17.053  45.933 -25.209  1.00  0.00     0.069 A 
HETATM   16 CL1  UNL     1     -18.618  45.300 -25.575  1.00  0.00    -0.081 Cl
HETATM   17  C7  UNL     1     -16.043  45.858 -26.168  1.00  0.00     0.056 A 
BRANCH  14  18
HETATM   18  O2  UNL     1     -17.752  46.599 -22.994  1.00  0.00    -0.359 OA
HETATM   19  H4  UNL     1     -18.576  46.227 -23.361  1.00  0.00     0.217 HD
ENDBRANCH  14  18
ENDBRANCH   9  11
ENDBRANCH   5   7
ENDBRANCH   1   2
BRANCH   1  20
HETATM   20  C12 UNL     1      -8.489  45.900 -29.953  1.00  0.00     0.248 C 
HETATM   21  O3  UNL     1      -8.832  46.208 -31.096  1.00  0.00    -0.271 OA
HETATM   22  N3  UNL     1      -7.504  46.621 -29.284  1.00  0.00    -0.348 N 
HETATM   23  C13 UNL     1      -7.090  46.387 -27.898  1.00  0.00     0.145 C 
HETATM   24  C26 UNL     1      -6.828  47.716 -29.982  1.00  0.00     0.145 C 
HETATM   25  C14 UNL     1      -6.409  47.605 -27.244  1.00  0.00     0.143 C 
HETATM   26  N4  UNL     1      -5.278  48.088 -28.050  1.00  0.00    -0.378 N 
HETATM   27  C25 UNL     1      -5.378  47.930 -29.515  1.00  0.00     0.143 C 
BRANCH  26  28
HETATM   28  C15 UNL     1      -4.213  48.773 -27.481  1.00  0.00     0.030 A 
HETATM   29  C16 UNL     1      -3.580  49.843 -28.131  1.00  0.00     0.030 A 
HETATM   30  C17 UNL     1      -2.512  50.545 -27.551  1.00  0.00     0.014 A 
HETATM   31  C18 UNL     1      -2.035  50.197 -26.288  1.00  0.00    -0.025 A 
HETATM   32  C23 UNL     1      -2.642  49.131 -25.624  1.00  0.00     0.014 A 
HETATM   33  C24 UNL     1      -3.710  48.439 -26.213  1.00  0.00     0.030 A 
BRANCH  31  34
HETATM   34  C19 UNL     1      -0.922  50.932 -25.693  1.00  0.00    -0.019 A 
HETATM   35  C20 UNL     1       0.306  51.307 -26.326  1.00  0.00     0.020 A 
HETATM   36  C21 UNL     1       1.144  52.010 -25.491  1.00  0.00     0.050 A 
HETATM   37  S1  UNL     1       0.458  52.238 -23.943  1.00  0.00    -0.113 SA
HETATM   38  C22 UNL     1      -0.961  51.391 -24.390  1.00  0.00     0.061 A 
ENDBRANCH  31  34
ENDBRANCH  26  28
ENDBRANCH   1  20
TORSDOF 7
ENDMDL
MODEL 9
REMARK minimizedAffinity -7.85768461
REMARK CNNscore 0.256376147
REMARK CNNaffinity 6.05907106
REMARK  7 active torsions:
REMARK  status: ('A' for Active; 'I' for Inactive)
REMARK       I    between atoms: C1_2  and  N1_3 
REMARK    1  A    between atoms: C1_2  and  C8_12 
REMARK    2  A    between atoms: N1_3  and  C2_4 
REMARK    3  A    between atoms: C5_7  and  O2_8 
REMARK    4  A    between atoms: N2_15  and  C11_16 
REMARK    5  A    between atoms: C11_16  and  C12_17 
REMARK       I    between atoms: C12_17  and  N3_19 
REMARK    6  A    between atoms: N4_22  and  C15_23 
REMARK    7  A    between atoms: C18_26  and  C19_27 
ROOT
HETATM    1  C11 UNL     1      -7.773  48.653 -23.924  1.00  0.00     0.374 C 
ENDROOT
BRANCH   1   2
HETATM    2  N2  UNL     1      -6.466  49.264 -24.216  1.00  0.00     0.098 N 
HETATM    3  C10 UNL     1      -5.470  48.283 -24.632  1.00  0.00     0.274 C 
HETATM    4  C9  UNL     1      -4.170  49.044 -24.455  1.00  0.00     0.046 C 
HETATM    5  C8  UNL     1      -4.385  49.759 -23.125  1.00  0.00     0.108 C 
HETATM    6  C27 UNL     1      -5.894  50.028 -23.090  1.00  0.00     0.287 C 
BRANCH   5   7
HETATM    7  C1  UNL     1      -3.517  51.001 -22.950  1.00  0.00     0.228 C 
HETATM    8  O1  UNL     1      -3.930  52.126 -23.197  1.00  0.00    -0.273 OA
HETATM    9  N1  UNL     1      -2.266  50.691 -22.430  1.00  0.00    -0.327 N 
HETATM   10  H1  UNL     1      -2.082  49.710 -22.249  1.00  0.00     0.169 HD
BRANCH   9  11
HETATM   11  C2  UNL     1      -1.216  51.582 -22.123  1.00  0.00     0.036 A 
HETATM   12  C3  UNL     1      -0.440  52.237 -23.082  1.00  0.00     0.032 A 
HETATM   13  C4  UNL     1       0.590  53.103 -22.699  1.00  0.00     0.040 A 
HETATM   14  C5  UNL     1       0.844  53.320 -21.352  1.00  0.00     0.087 A 
HETATM   15  C6  UNL     1       0.077  52.675 -20.384  1.00  0.00     0.069 A 
HETATM   16 CL1  UNL     1       0.389  52.932 -18.705  1.00  0.00    -0.081 Cl
HETATM   17  C7  UNL     1      -0.946  51.806 -20.765  1.00  0.00     0.056 A 
BRANCH  14  18
HETATM   18  O2  UNL     1       1.858  54.176 -21.028  1.00  0.00    -0.359 OA
HETATM   19  H4  UNL     1       1.887  54.234 -20.054  1.00  0.00     0.217 HD
ENDBRANCH  14  18
ENDBRANCH   9  11
ENDBRANCH   5   7
ENDBRANCH   1   2
BRANCH   1  20
HETATM   20  C12 UNL     1      -7.910  47.208 -24.453  1.00  0.00     0.248 C 
HETATM   21  O3  UNL     1      -7.626  46.216 -23.778  1.00  0.00    -0.271 OA
HETATM   22  N3  UNL     1      -8.379  47.073 -25.757  1.00  0.00    -0.348 N 
HETATM   23  C13 UNL     1      -8.823  48.182 -26.606  1.00  0.00     0.145 C 
HETATM   24  C26 UNL     1      -8.470  45.736 -26.344  1.00  0.00     0.145 C 
HETATM   25  C14 UNL     1      -9.763  47.747 -27.747  1.00  0.00     0.143 C 
HETATM   26  N4  UNL     1      -9.168  46.676 -28.559  1.00  0.00    -0.378 N 
HETATM   27  C25 UNL     1      -8.270  45.728 -27.869  1.00  0.00     0.143 C 
BRANCH  26  28
HETATM   28  C15 UNL     1      -9.520  46.482 -29.887  1.00  0.00     0.030 A 
HETATM   29  C16 UNL     1      -8.753  45.691 -30.755  1.00  0.00     0.030 A 
HETATM   30  C17 UNL     1      -9.116  45.483 -32.095  1.00  0.00     0.014 A 
HETATM   31  C18 UNL     1     -10.270  46.064 -32.618  1.00  0.00    -0.025 A 
HETATM   32  C23 UNL     1     -11.046  46.862 -31.777  1.00  0.00     0.014 A 
HETATM   33  C24 UNL     1     -10.674  47.060 -30.439  1.00  0.00     0.030 A 
BRANCH  31  34
HETATM   34  C19 UNL     1     -10.639  45.843 -34.014  1.00  0.00    -0.019 A 
HETATM   35  C20 UNL     1     -11.903  45.393 -34.514  1.00  0.00     0.020 A 
HETATM   36  C21 UNL     1     -11.931  45.301 -35.887  1.00  0.00     0.050 A 
HETATM   37  S1  UNL     1     -10.445  45.768 -36.588  1.00  0.00    -0.113 SA
HETATM   38  C22 UNL     1      -9.762  46.090 -35.052  1.00  0.00     0.061 A 
ENDBRANCH  31  34
ENDBRANCH  26  28
ENDBRANCH   1  20
TORSDOF 7
ENDMDL
