MODEL 1
REMARK minimizedAffinity -10.2528534
REMARK  5 active torsions:
REMARK  status: ('A' for Active; 'I' for Inactive)
REMARK    1  A    between atoms: C2_2  and  N1_3 
REMARK    2  A    between atoms: C2_2  and  C18_30 
REMARK       I    between atoms: N1_3  and  C3_4 
REMARK       I    between atoms: C3_4  and  N2_6 
REMARK    3  A    between atoms: N2_6  and  C4_7 
REMARK    4  A    between atoms: C7_13  and  C8_14 
REMARK    5  A    between atoms: C11_17  and  N5_18 
ROOT
HETATM    1  C4  UNL     1       0.799  52.108 -16.679  1.00  0.00     0.111 A 
HETATM    2  C5  UNL     1       0.221  50.889 -17.006  1.00  0.00     0.080 A 
HETATM    3  C6  UNL     1      -0.080  50.717 -18.356  1.00  0.00     0.065 A 
HETATM    4  N3  UNL     1      -0.636  49.674 -19.039  1.00  0.00    -0.299 N 
HETATM    5  N4  UNL     1      -0.750  49.881 -20.359  1.00  0.00    -0.299 N 
ATOM      6  H4  UNL     1      -1.110  49.237 -21.063  1.00  0.00     0.187 HD
HETATM    7  C7  UNL     1      -0.283  51.128 -20.546  1.00  0.00     0.072 A 
HETATM    8  C16 UNL     1       0.173  51.690 -19.314  1.00  0.00     0.036 A 
HETATM    9  C17 UNL     1       0.775  52.878 -18.898  1.00  0.00     0.105 A 
HETATM   10  N8  UNL     1       1.076  53.073 -17.586  1.00  0.00    -0.351 N 
ATOM     11  H8  UNL     1       1.510  53.945 -17.287  1.00  0.00     0.166 HD
HETATM   12  H8  UNL     1      -0.952  48.787 -18.662  1.00  0.00     0.187 HD
ENDROOT
BRANCH   1  13
HETATM   13  N2  UNL     1       1.171  52.462 -15.381  1.00  0.00    -0.295 N 
HETATM   14  C3  UNL     1       0.669  51.998 -14.195  1.00  0.00     0.322 C 
HETATM   15  N1  UNL     1       1.326  52.569 -13.124  1.00  0.00    -0.335 N 
HETATM   16  O1  UNL     1      -0.242  51.193 -14.057  1.00  0.00    -0.247 OA
HETATM   17  H5  UNL     1       2.296  52.789 -13.299  1.00  0.00     0.165 HD
HETATM   18  H6  UNL     1       1.805  53.245 -15.361  1.00  0.00     0.172 HD
BRANCH  15  19
HETATM   19  C2  UNL     1       1.005  52.177 -11.760  1.00  0.00     0.115 C 
HETATM   20  C1  UNL     1       0.930  50.654 -11.606  1.00  0.00     0.037 C 
BRANCH  19  21
HETATM   21  C18 UNL     1      -0.296  52.838 -11.332  1.00  0.00    -0.036 A 
HETATM   22  C19 UNL     1      -0.330  54.178 -10.903  1.00  0.00     0.012 A 
HETATM   23  C20 UNL     1      -1.531  54.766 -10.503  1.00  0.00     0.043 A 
HETATM   24  C21 UNL     1      -2.701  54.017 -10.525  1.00  0.00     0.116 A 
HETATM   25  F1  UNL     1      -3.853  54.581 -10.139  1.00  0.00    -0.206 F 
HETATM   26  C22 UNL     1      -2.693  52.690 -10.939  1.00  0.00     0.043 A 
HETATM   27  C23 UNL     1      -1.493  52.100 -11.340  1.00  0.00     0.012 A 
ENDBRANCH  19  21
ENDBRANCH  15  19
ENDBRANCH   1  13
BRANCH   7  28
HETATM   28  C8  UNL     1      -0.271  51.727 -21.881  1.00  0.00    -0.007 A 
HETATM   29  C9  UNL     1       0.703  52.663 -22.247  1.00  0.00     0.016 A 
HETATM   30  C10 UNL     1       0.703  53.225 -23.529  1.00  0.00     0.032 A 
HETATM   31  C11 UNL     1      -0.279  52.863 -24.463  1.00  0.00     0.054 A 
HETATM   32  C14 UNL     1      -1.264  51.937 -24.098  1.00  0.00     0.032 A 
HETATM   33  C15 UNL     1      -1.258  51.379 -22.815  1.00  0.00     0.016 A 
BRANCH  31  34
HETATM   34  N5  UNL     1      -0.262  53.444 -25.757  1.00  0.00    -0.250 N 
HETATM   35  C12 UNL     1      -0.549  52.863 -26.971  1.00  0.00     0.132 A 
HETATM   36  C13 UNL     1      -0.376  53.868 -27.891  1.00  0.00     0.123 A 
HETATM   37  N6  UNL     1       0.002  55.008 -27.253  1.00  0.00    -0.294 N 
HETATM   38  N7  UNL     1       0.070  54.745 -25.954  1.00  0.00    -0.016 NA
ATOM     39  H6  UNL     1       0.200  55.906 -27.694  1.00  0.00     0.183 HD
ENDBRANCH  31  34
ENDBRANCH   7  28
TORSDOF 5
ENDMDL
MODEL 2
REMARK minimizedAffinity -10.2184296
REMARK  5 active torsions:
REMARK  status: ('A' for Active; 'I' for Inactive)
REMARK    1  A    between atoms: C2_2  and  N1_3 
REMARK    2  A    between atoms: C2_2  and  C18_30 
REMARK       I    between atoms: N1_3  and  C3_4 
REMARK       I    between atoms: C3_4  and  N2_6 
REMARK    3  A    between atoms: N2_6  and  C4_7 
REMARK    4  A    between atoms: C7_13  and  C8_14 
REMARK    5  A    between atoms: C11_17  and  N5_18 
ROOT
HETATM    1  C4  UNL     1       1.060  51.978 -15.877  1.00  0.00     0.111 A 
HETATM    2  C5  UNL     1       0.380  50.800 -16.151  1.00  0.00     0.080 A 
HETATM    3  C6  UNL     1       0.036  50.609 -17.488  1.00  0.00     0.065 A 
HETATM    4  N3  UNL     1      -0.616  49.592 -18.125  1.00  0.00    -0.299 N 
HETATM    5  N4  UNL     1      -0.742  49.765 -19.449  1.00  0.00    -0.299 N 
ATOM      6  H4  UNL     1      -1.168  49.130 -20.124  1.00  0.00     0.187 HD
HETATM    7  C7  UNL     1      -0.182  50.964 -19.687  1.00  0.00     0.072 A 
HETATM    8  C16 UNL     1       0.345  51.527 -18.483  1.00  0.00     0.036 A 
HETATM    9  C17 UNL     1       1.048  52.676 -18.120  1.00  0.00     0.105 A 
HETATM   10  N8  UNL     1       1.393  52.888 -16.822  1.00  0.00    -0.351 N 
ATOM     11  H8  UNL     1       1.902  53.732 -16.560  1.00  0.00     0.166 HD
HETATM   12  H8  UNL     1      -0.994  48.747 -17.712  1.00  0.00     0.187 HD
ENDROOT
BRANCH   1  13
HETATM   13  N2  UNL     1       1.488  52.343 -14.600  1.00  0.00    -0.295 N 
HETATM   14  C3  UNL     1       0.730  52.577 -13.483  1.00  0.00     0.322 C 
HETATM   15  N1  UNL     1       1.530  52.883 -12.400  1.00  0.00    -0.335 N 
HETATM   16  O1  UNL     1      -0.490  52.539 -13.412  1.00  0.00    -0.247 OA
HETATM   17  H5  UNL     1       2.432  52.429 -12.407  1.00  0.00     0.165 HD
HETATM   18  H6  UNL     1       2.469  52.568 -14.570  1.00  0.00     0.172 HD
BRANCH  15  19
HETATM   19  C2  UNL     1       0.947  53.107 -11.085  1.00  0.00     0.115 C 
HETATM   20  C1  UNL     1      -0.558  53.382 -11.167  1.00  0.00     0.037 C 
BRANCH  19  21
HETATM   21  C18 UNL     1       1.678  54.246 -10.392  1.00  0.00    -0.036 A 
HETATM   22  C19 UNL     1       2.917  54.717 -10.865  1.00  0.00     0.012 A 
HETATM   23  C20 UNL     1       3.580  55.755 -10.208  1.00  0.00     0.043 A 
HETATM   24  C21 UNL     1       3.011  56.324  -9.076  1.00  0.00     0.116 A 
HETATM   25  F1  UNL     1       3.648  57.319  -8.446  1.00  0.00    -0.206 F 
HETATM   26  C22 UNL     1       1.791  55.873  -8.585  1.00  0.00     0.043 A 
HETATM   27  C23 UNL     1       1.126  54.834  -9.240  1.00  0.00     0.012 A 
ENDBRANCH  19  21
ENDBRANCH  15  19
ENDBRANCH   1  13
BRANCH   7  28
HETATM   28  C8  UNL     1      -0.152  51.517 -21.042  1.00  0.00    -0.007 A 
HETATM   29  C9  UNL     1      -0.889  50.935 -22.079  1.00  0.00     0.016 A 
HETATM   30  C10 UNL     1      -0.854  51.478 -23.369  1.00  0.00     0.032 A 
HETATM   31  C11 UNL     1      -0.071  52.610 -23.641  1.00  0.00     0.054 A 
HETATM   32  C14 UNL     1       0.679  53.189 -22.610  1.00  0.00     0.032 A 
HETATM   33  C15 UNL     1       0.638  52.641 -21.323  1.00  0.00     0.016 A 
BRANCH  31  34
HETATM   34  N5  UNL     1      -0.048  53.145 -24.955  1.00  0.00    -0.250 N 
HETATM   35  C12 UNL     1      -0.253  52.503 -26.155  1.00  0.00     0.132 A 
HETATM   36  C13 UNL     1      -0.115  53.485 -27.105  1.00  0.00     0.123 A 
HETATM   37  N6  UNL     1       0.164  54.670 -26.498  1.00  0.00    -0.294 N 
HETATM   38  N7  UNL     1       0.204  54.458 -25.189  1.00  0.00    -0.016 NA
ATOM     39  H6  UNL     1       0.316  55.563 -26.966  1.00  0.00     0.183 HD
ENDBRANCH  31  34
ENDBRANCH   7  28
TORSDOF 5
ENDMDL
MODEL 3
REMARK minimizedAffinity -10.0004654
REMARK  5 active torsions:
REMARK  status: ('A' for Active; 'I' for Inactive)
REMARK    1  A    between atoms: C2_2  and  N1_3 
REMARK    2  A    between atoms: C2_2  and  C18_30 
REMARK       I    between atoms: N1_3  and  C3_4 
REMARK       I    between atoms: C3_4  and  N2_6 
REMARK    3  A    between atoms: N2_6  and  C4_7 
REMARK    4  A    between atoms: C7_13  and  C8_14 
REMARK    5  A    between atoms: C11_17  and  N5_18 
ROOT
HETATM    1  C4  UNL     1       1.061  52.111 -16.400  1.00  0.00     0.111 A 
HETATM    2  C5  UNL     1       0.348  50.956 -16.694  1.00  0.00     0.080 A 
HETATM    3  C6  UNL     1      -0.023  50.810 -18.029  1.00  0.00     0.065 A 
HETATM    4  N3  UNL     1      -0.709  49.826 -18.681  1.00  0.00    -0.299 N 
HETATM    5  N4  UNL     1      -0.855  50.038 -19.998  1.00  0.00    -0.299 N 
ATOM      6  H4  UNL     1      -1.307  49.431 -20.681  1.00  0.00     0.187 HD
HETATM    7  C7  UNL     1      -0.270  51.229 -20.214  1.00  0.00     0.072 A 
HETATM    8  C16 UNL     1       0.290  51.747 -19.005  1.00  0.00     0.036 A 
HETATM    9  C17 UNL     1       1.026  52.869 -18.623  1.00  0.00     0.105 A 
HETATM   10  N8  UNL     1       1.398  53.038 -17.326  1.00  0.00    -0.351 N 
ATOM     11  H8  UNL     1       1.931  53.863 -17.052  1.00  0.00     0.166 HD
HETATM   12  H8  UNL     1      -1.099  48.978 -18.284  1.00  0.00     0.187 HD
ENDROOT
BRANCH   1  13
HETATM   13  N2  UNL     1       1.519  52.431 -15.122  1.00  0.00    -0.295 N 
HETATM   14  C3  UNL     1       1.072  51.962 -13.916  1.00  0.00     0.322 C 
HETATM   15  N1  UNL     1       1.809  52.494 -12.876  1.00  0.00    -0.335 N 
HETATM   16  O1  UNL     1       0.146  51.183 -13.737  1.00  0.00    -0.247 OA
HETATM   17  H5  UNL     1       2.773  52.687 -13.105  1.00  0.00     0.165 HD
HETATM   18  H6  UNL     1       2.177  53.193 -15.127  1.00  0.00     0.172 HD
BRANCH  15  19
HETATM   19  C2  UNL     1       1.555  52.088 -11.501  1.00  0.00     0.115 C 
HETATM   20  C1  UNL     1       0.705  50.815 -11.429  1.00  0.00     0.037 C 
BRANCH  19  21
HETATM   21  C18 UNL     1       0.899  53.232 -10.745  1.00  0.00    -0.036 A 
HETATM   22  C19 UNL     1      -0.258  53.866 -11.235  1.00  0.00     0.012 A 
HETATM   23  C20 UNL     1      -0.840  54.924 -10.534  1.00  0.00     0.043 A 
HETATM   24  C21 UNL     1      -0.267  55.354  -9.345  1.00  0.00     0.116 A 
HETATM   25  F1  UNL     1      -0.825  56.370  -8.673  1.00  0.00    -0.206 F 
HETATM   26  C22 UNL     1       0.878  54.749  -8.842  1.00  0.00     0.043 A 
HETATM   27  C23 UNL     1       1.463  53.691  -9.542  1.00  0.00     0.012 A 
ENDBRANCH  19  21
ENDBRANCH  15  19
ENDBRANCH   1  13
BRANCH   7  28
HETATM   28  C8  UNL     1      -0.251  51.818 -21.553  1.00  0.00    -0.007 A 
HETATM   29  C9  UNL     1      -1.209  51.470 -22.512  1.00  0.00     0.016 A 
HETATM   30  C10 UNL     1      -1.180  52.045 -23.788  1.00  0.00     0.032 A 
HETATM   31  C11 UNL     1      -0.183  52.973 -24.126  1.00  0.00     0.054 A 
HETATM   32  C14 UNL     1       0.786  53.315 -23.175  1.00  0.00     0.032 A 
HETATM   33  C15 UNL     1       0.749  52.737 -21.900  1.00  0.00     0.016 A 
BRANCH  31  34
HETATM   34  N5  UNL     1      -0.171  53.544 -25.425  1.00  0.00    -0.250 N 
HETATM   35  C12 UNL     1      -0.424  52.944 -26.637  1.00  0.00     0.132 A 
HETATM   36  C13 UNL     1      -0.274  53.947 -27.563  1.00  0.00     0.123 A 
HETATM   37  N6  UNL     1       0.060  55.104 -26.929  1.00  0.00    -0.294 N 
HETATM   38  N7  UNL     1       0.121  54.854 -25.629  1.00  0.00    -0.016 NA
ATOM     39  H6  UNL     1       0.233  56.004 -27.376  1.00  0.00     0.183 HD
ENDBRANCH  31  34
ENDBRANCH   7  28
TORSDOF 5
ENDMDL
MODEL 4
REMARK minimizedAffinity -9.94915676
REMARK  5 active torsions:
REMARK  status: ('A' for Active; 'I' for Inactive)
REMARK    1  A    between atoms: C2_2  and  N1_3 
REMARK    2  A    between atoms: C2_2  and  C18_30 
REMARK       I    between atoms: N1_3  and  C3_4 
REMARK       I    between atoms: C3_4  and  N2_6 
REMARK    3  A    between atoms: N2_6  and  C4_7 
REMARK    4  A    between atoms: C7_13  and  C8_14 
REMARK    5  A    between atoms: C11_17  and  N5_18 
ROOT
HETATM    1  C4  UNL     1      -2.384  51.145 -26.616  1.00  0.00     0.111 A 
HETATM    2  C5  UNL     1      -1.406  52.074 -26.940  1.00  0.00     0.080 A 
HETATM    3  C6  UNL     1      -0.636  52.526 -25.869  1.00  0.00     0.065 A 
HETATM    4  N3  UNL     1       0.398  53.414 -25.802  1.00  0.00    -0.299 N 
HETATM    5  N4  UNL     1       0.905  53.575 -24.570  1.00  0.00    -0.299 N 
ATOM      6  H4  UNL     1       1.689  54.163 -24.290  1.00  0.00     0.187 HD
HETATM    7  C7  UNL     1       0.146  52.786 -23.789  1.00  0.00     0.072 A 
HETATM    8  C16 UNL     1      -0.827  52.085 -24.566  1.00  0.00     0.036 A 
HETATM    9  C17 UNL     1      -1.821  51.133 -24.335  1.00  0.00     0.105 A 
HETATM   10  N8  UNL     1      -2.588  50.679 -25.362  1.00  0.00    -0.351 N 
ATOM     11  H8  UNL     1      -3.318  49.988 -25.187  1.00  0.00     0.166 HD
HETATM   12  H8  UNL     1       0.812  53.939 -26.564  1.00  0.00     0.187 HD
ENDROOT
BRANCH   1  13
HETATM   13  N2  UNL     1      -3.251  50.578 -27.551  1.00  0.00    -0.295 N 
HETATM   14  C3  UNL     1      -3.687  49.282 -27.631  1.00  0.00     0.322 C 
HETATM   15  N1  UNL     1      -4.568  49.122 -28.682  1.00  0.00    -0.335 N 
HETATM   16  O1  UNL     1      -3.361  48.359 -26.897  1.00  0.00    -0.247 OA
HETATM   17  H5  UNL     1      -5.127  49.938 -28.885  1.00  0.00     0.165 HD
HETATM   18  H6  UNL     1      -3.462  51.203 -28.312  1.00  0.00     0.172 HD
BRANCH  15  19
HETATM   19  C2  UNL     1      -5.213  47.840 -28.923  1.00  0.00     0.115 C 
HETATM   20  C1  UNL     1      -5.258  47.494 -30.415  1.00  0.00     0.037 C 
BRANCH  19  21
HETATM   21  C18 UNL     1      -6.609  47.851 -28.318  1.00  0.00    -0.036 A 
HETATM   22  C19 UNL     1      -6.835  47.450 -26.989  1.00  0.00     0.012 A 
HETATM   23  C20 UNL     1      -8.124  47.455 -26.454  1.00  0.00     0.043 A 
HETATM   24  C21 UNL     1      -9.192  47.856 -27.246  1.00  0.00     0.116 A 
HETATM   25  F1  UNL     1     -10.429  47.859 -26.733  1.00  0.00    -0.206 F 
HETATM   26  C22 UNL     1      -8.997  48.251 -28.564  1.00  0.00     0.043 A 
HETATM   27  C23 UNL     1      -7.708  48.247 -29.101  1.00  0.00     0.012 A 
ENDBRANCH  19  21
ENDBRANCH  15  19
ENDBRANCH   1  13
BRANCH   7  28
HETATM   28  C8  UNL     1       0.384  52.715 -22.347  1.00  0.00    -0.007 A 
HETATM   29  C9  UNL     1       1.143  53.689 -21.688  1.00  0.00     0.016 A 
HETATM   30  C10 UNL     1       1.359  53.610 -20.307  1.00  0.00     0.032 A 
HETATM   31  C11 UNL     1       0.824  52.546 -19.566  1.00  0.00     0.054 A 
HETATM   32  C14 UNL     1       0.075  51.561 -20.221  1.00  0.00     0.032 A 
HETATM   33  C15 UNL     1      -0.138  51.648 -21.602  1.00  0.00     0.016 A 
BRANCH  31  34
HETATM   34  N5  UNL     1       1.054  52.483 -18.167  1.00  0.00    -0.250 N 
HETATM   35  C12 UNL     1       0.367  51.774 -17.207  1.00  0.00     0.132 A 
HETATM   36  C13 UNL     1       1.005  52.073 -16.028  1.00  0.00     0.123 A 
HETATM   37  N6  UNL     1       2.033  52.930 -16.271  1.00  0.00    -0.294 N 
HETATM   38  N7  UNL     1       2.059  53.176 -17.574  1.00  0.00    -0.016 NA
ATOM     39  H6  UNL     1       2.670  53.315 -15.575  1.00  0.00     0.183 HD
ENDBRANCH  31  34
ENDBRANCH   7  28
TORSDOF 5
ENDMDL
MODEL 5
REMARK minimizedAffinity -9.92905712
REMARK  5 active torsions:
REMARK  status: ('A' for Active; 'I' for Inactive)
REMARK    1  A    between atoms: C2_2  and  N1_3 
REMARK    2  A    between atoms: C2_2  and  C18_30 
REMARK       I    between atoms: N1_3  and  C3_4 
REMARK       I    between atoms: C3_4  and  N2_6 
REMARK    3  A    between atoms: N2_6  and  C4_7 
REMARK    4  A    between atoms: C7_13  and  C8_14 
REMARK    5  A    between atoms: C11_17  and  N5_18 
ROOT
HETATM    1  C4  UNL     1       1.035  52.135 -15.693  1.00  0.00     0.111 A 
HETATM    2  C5  UNL     1       0.337  50.962 -15.944  1.00  0.00     0.080 A 
HETATM    3  C6  UNL     1       0.017  50.735 -17.282  1.00  0.00     0.065 A 
HETATM    4  N3  UNL     1      -0.642  49.711 -17.900  1.00  0.00    -0.299 N 
HETATM    5  N4  UNL     1      -0.738  49.844 -19.231  1.00  0.00    -0.299 N 
ATOM      6  H4  UNL     1      -1.163  49.196 -19.894  1.00  0.00     0.187 HD
HETATM    7  C7  UNL     1      -0.148  51.023 -19.495  1.00  0.00     0.072 A 
HETATM    8  C16 UNL     1       0.365  51.614 -18.299  1.00  0.00     0.036 A 
HETATM    9  C17 UNL     1       1.084  52.760 -17.957  1.00  0.00     0.105 A 
HETATM   10  N8  UNL     1       1.406  53.007 -16.659  1.00  0.00    -0.351 N 
ATOM     11  H8  UNL     1       1.927  53.849 -16.414  1.00  0.00     0.166 HD
HETATM   12  H8  UNL     1      -1.046  48.887 -17.468  1.00  0.00     0.187 HD
ENDROOT
BRANCH   1  13
HETATM   13  N2  UNL     1       1.444  52.532 -14.420  1.00  0.00    -0.295 N 
HETATM   14  C3  UNL     1       1.947  51.759 -13.408  1.00  0.00     0.322 C 
HETATM   15  N1  UNL     1       2.268  52.531 -12.310  1.00  0.00    -0.335 N 
HETATM   16  O1  UNL     1       2.101  50.545 -13.428  1.00  0.00    -0.247 OA
HETATM   17  H5  UNL     1       2.573  53.467 -12.533  1.00  0.00     0.165 HD
HETATM   18  H6  UNL     1       1.212  53.492 -14.221  1.00  0.00     0.172 HD
BRANCH  15  19
HETATM   19  C2  UNL     1       2.881  51.932 -11.133  1.00  0.00     0.115 C 
HETATM   20  C1  UNL     1       1.838  51.547 -10.079  1.00  0.00     0.037 C 
BRANCH  19  21
HETATM   21  C18 UNL     1       3.919  52.885 -10.559  1.00  0.00    -0.036 A 
HETATM   22  C19 UNL     1       4.974  52.419  -9.754  1.00  0.00     0.012 A 
HETATM   23  C20 UNL     1       5.911  53.310  -9.225  1.00  0.00     0.043 A 
HETATM   24  C21 UNL     1       5.793  54.667  -9.495  1.00  0.00     0.116 A 
HETATM   25  F1  UNL     1       6.691  55.521  -8.986  1.00  0.00    -0.206 F 
HETATM   26  C22 UNL     1       4.756  55.153 -10.282  1.00  0.00     0.043 A 
HETATM   27  C23 UNL     1       3.818  54.265 -10.812  1.00  0.00     0.012 A 
ENDBRANCH  19  21
ENDBRANCH  15  19
ENDBRANCH   1  13
BRANCH   7  28
HETATM   28  C8  UNL     1      -0.079  51.532 -20.866  1.00  0.00    -0.007 A 
HETATM   29  C9  UNL     1       0.829  52.535 -21.222  1.00  0.00     0.016 A 
HETATM   30  C10 UNL     1       0.886  53.009 -22.538  1.00  0.00     0.032 A 
HETATM   31  C11 UNL     1       0.026  52.490 -23.517  1.00  0.00     0.054 A 
HETATM   32  C14 UNL     1      -0.894  51.495 -23.163  1.00  0.00     0.032 A 
HETATM   33  C15 UNL     1      -0.944  51.025 -21.846  1.00  0.00     0.016 A 
BRANCH  31  34
HETATM   34  N5  UNL     1       0.098  52.984 -24.845  1.00  0.00    -0.250 N 
HETATM   35  C12 UNL     1       0.176  52.282 -26.026  1.00  0.00     0.132 A 
HETATM   36  C13 UNL     1       0.224  53.245 -27.004  1.00  0.00     0.123 A 
HETATM   37  N6  UNL     1       0.180  54.478 -26.429  1.00  0.00    -0.294 N 
HETATM   38  N7  UNL     1       0.103  54.313 -25.116  1.00  0.00    -0.016 NA
ATOM     39  H6  UNL     1       0.202  55.371 -26.922  1.00  0.00     0.183 HD
ENDBRANCH  31  34
ENDBRANCH   7  28
TORSDOF 5
ENDMDL
MODEL 6
REMARK minimizedAffinity -9.67892551
REMARK  5 active torsions:
REMARK  status: ('A' for Active; 'I' for Inactive)
REMARK    1  A    between atoms: C2_2  and  N1_3 
REMARK    2  A    between atoms: C2_2  and  C18_30 
REMARK       I    between atoms: N1_3  and  C3_4 
REMARK       I    between atoms: C3_4  and  N2_6 
REMARK    3  A    between atoms: N2_6  and  C4_7 
REMARK    4  A    between atoms: C7_13  and  C8_14 
REMARK    5  A    between atoms: C11_17  and  N5_18 
ROOT
HETATM    1  C4  UNL     1      -2.712  50.124 -17.040  1.00  0.00     0.111 A 
HETATM    2  C5  UNL     1      -2.188  48.942 -17.545  1.00  0.00     0.080 A 
HETATM    3  C6  UNL     1      -1.693  49.019 -18.846  1.00  0.00     0.065 A 
HETATM    4  N3  UNL     1      -1.110  48.087 -19.656  1.00  0.00    -0.299 N 
HETATM    5  N4  UNL     1      -0.742  48.556 -20.857  1.00  0.00    -0.299 N 
ATOM      6  H4  UNL     1      -0.271  48.050 -21.607  1.00  0.00     0.187 HD
HETATM    7  C7  UNL     1      -1.132  49.843 -20.850  1.00  0.00     0.072 A 
HETATM    8  C16 UNL     1      -1.719  50.189 -19.593  1.00  0.00     0.036 A 
HETATM    9  C17 UNL     1      -2.246  51.336 -18.998  1.00  0.00     0.105 A 
HETATM   10  N8  UNL     1      -2.739  51.287 -17.731  1.00  0.00    -0.351 N 
ATOM     11  H8  UNL     1      -3.129  52.126 -17.303  1.00  0.00     0.166 HD
HETATM   12  H8  UNL     1      -0.928  47.112 -19.443  1.00  0.00     0.187 HD
ENDROOT
BRANCH   1  13
HETATM   13  N2  UNL     1      -3.251  50.244 -15.759  1.00  0.00    -0.295 N 
HETATM   14  C3  UNL     1      -2.629  50.059 -14.553  1.00  0.00     0.322 C 
HETATM   15  N1  UNL     1      -3.496  50.306 -13.508  1.00  0.00    -0.335 N 
HETATM   16  O1  UNL     1      -1.467  49.716 -14.380  1.00  0.00    -0.247 OA
HETATM   17  H5  UNL     1      -4.192  51.011 -13.701  1.00  0.00     0.165 HD
HETATM   18  H6  UNL     1      -4.251  50.363 -15.770  1.00  0.00     0.172 HD
BRANCH  15  19
HETATM   19  C2  UNL     1      -3.037  50.236 -12.128  1.00  0.00     0.115 C 
HETATM   20  C1  UNL     1      -4.029  49.487 -11.233  1.00  0.00     0.037 C 
BRANCH  19  21
HETATM   21  C18 UNL     1      -2.775  51.640 -11.607  1.00  0.00    -0.036 A 
HETATM   22  C19 UNL     1      -1.466  52.111 -11.393  1.00  0.00     0.012 A 
HETATM   23  C20 UNL     1      -1.245  53.399 -10.902  1.00  0.00     0.043 A 
HETATM   24  C21 UNL     1      -2.330  54.219 -10.619  1.00  0.00     0.116 A 
HETATM   25  F1  UNL     1      -2.117  55.454 -10.146  1.00  0.00    -0.206 F 
HETATM   26  C22 UNL     1      -3.632  53.776 -10.815  1.00  0.00     0.043 A 
HETATM   27  C23 UNL     1      -3.856  52.488 -11.306  1.00  0.00     0.012 A 
ENDBRANCH  19  21
ENDBRANCH  15  19
ENDBRANCH   1  13
BRANCH   7  28
HETATM   28  C8  UNL     1      -0.920  50.693 -22.023  1.00  0.00    -0.007 A 
HETATM   29  C9  UNL     1      -1.550  50.416 -23.242  1.00  0.00     0.016 A 
HETATM   30  C10 UNL     1      -1.340  51.241 -24.353  1.00  0.00     0.032 A 
HETATM   31  C11 UNL     1      -0.488  52.351 -24.262  1.00  0.00     0.054 A 
HETATM   32  C14 UNL     1       0.155  52.625 -23.049  1.00  0.00     0.032 A 
HETATM   33  C15 UNL     1      -0.061  51.797 -21.941  1.00  0.00     0.016 A 
BRANCH  31  34
HETATM   34  N5  UNL     1      -0.288  53.175 -25.401  1.00  0.00    -0.250 N 
HETATM   35  C12 UNL     1      -0.412  52.854 -26.733  1.00  0.00     0.132 A 
HETATM   36  C13 UNL     1      -0.104  54.013 -27.403  1.00  0.00     0.123 A 
HETATM   37  N6  UNL     1       0.195  54.991 -26.505  1.00  0.00    -0.294 N 
HETATM   38  N7  UNL     1       0.082  54.476 -25.288  1.00  0.00    -0.016 NA
ATOM     39  H6  UNL     1       0.461  55.950 -26.728  1.00  0.00     0.183 HD
ENDBRANCH  31  34
ENDBRANCH   7  28
TORSDOF 5
ENDMDL
MODEL 7
REMARK minimizedAffinity -9.67337704
REMARK  5 active torsions:
REMARK  status: ('A' for Active; 'I' for Inactive)
REMARK    1  A    between atoms: C2_2  and  N1_3 
REMARK    2  A    between atoms: C2_2  and  C18_30 
REMARK       I    between atoms: N1_3  and  C3_4 
REMARK       I    between atoms: C3_4  and  N2_6 
REMARK    3  A    between atoms: N2_6  and  C4_7 
REMARK    4  A    between atoms: C7_13  and  C8_14 
REMARK    5  A    between atoms: C11_17  and  N5_18 
ROOT
HETATM    1  C4  UNL     1       0.792  52.938 -19.422  1.00  0.00     0.111 A 
HETATM    2  C5  UNL     1       1.436  53.758 -20.337  1.00  0.00     0.080 A 
HETATM    3  C6  UNL     1       1.054  53.582 -21.667  1.00  0.00     0.065 A 
HETATM    4  N3  UNL     1       1.454  54.198 -22.818  1.00  0.00    -0.299 N 
HETATM    5  N4  UNL     1       0.830  53.758 -23.921  1.00  0.00    -0.299 N 
ATOM      6  H4  UNL     1       0.949  54.087 -24.879  1.00  0.00     0.187 HD
HETATM    7  C7  UNL     1       0.011  52.787 -23.480  1.00  0.00     0.072 A 
HETATM    8  C16 UNL     1       0.100  52.653 -22.059  1.00  0.00     0.036 A 
HETATM    9  C17 UNL     1      -0.511  51.883 -21.069  1.00  0.00     0.105 A 
HETATM   10  N8  UNL     1      -0.155  52.033 -19.765  1.00  0.00    -0.351 N 
ATOM     11  H8  UNL     1      -0.600  51.464 -19.046  1.00  0.00     0.166 HD
HETATM   12  H8  UNL     1       2.146  54.932 -22.917  1.00  0.00     0.187 HD
ENDROOT
BRANCH   1  13
HETATM   13  N2  UNL     1       1.039  52.969 -18.049  1.00  0.00    -0.295 N 
HETATM   14  C3  UNL     1       0.856  51.971 -17.130  1.00  0.00     0.322 C 
HETATM   15  N1  UNL     1       1.251  52.382 -15.872  1.00  0.00    -0.335 N 
HETATM   16  O1  UNL     1       0.402  50.856 -17.347  1.00  0.00    -0.247 OA
HETATM   17  H5  UNL     1       2.014  53.043 -15.870  1.00  0.00     0.165 HD
HETATM   18  H6  UNL     1       1.263  53.893 -17.718  1.00  0.00     0.172 HD
BRANCH  15  19
HETATM   19  C2  UNL     1       1.209  51.464 -14.743  1.00  0.00     0.115 C 
HETATM   20  C1  UNL     1       1.059  50.008 -15.195  1.00  0.00     0.037 C 
BRANCH  19  21
HETATM   21  C18 UNL     1       0.084  51.867 -13.801  1.00  0.00    -0.036 A 
HETATM   22  C19 UNL     1       0.336  52.618 -12.638  1.00  0.00     0.012 A 
HETATM   23  C20 UNL     1      -0.707  52.967 -11.779  1.00  0.00     0.043 A 
HETATM   24  C21 UNL     1      -2.003  52.565 -12.075  1.00  0.00     0.116 A 
HETATM   25  F1  UNL     1      -3.003  52.900 -11.249  1.00  0.00    -0.206 F 
HETATM   26  C22 UNL     1      -2.277  51.818 -13.214  1.00  0.00     0.043 A 
HETATM   27  C23 UNL     1      -1.236  51.466 -14.076  1.00  0.00     0.012 A 
ENDBRANCH  19  21
ENDBRANCH  15  19
ENDBRANCH   1  13
BRANCH   7  28
HETATM   28  C8  UNL     1      -0.831  52.040 -24.414  1.00  0.00    -0.007 A 
HETATM   29  C9  UNL     1      -2.227  52.125 -24.360  1.00  0.00     0.016 A 
HETATM   30  C10 UNL     1      -3.019  51.408 -25.263  1.00  0.00     0.032 A 
HETATM   31  C11 UNL     1      -2.424  50.585 -26.232  1.00  0.00     0.054 A 
HETATM   32  C14 UNL     1      -1.029  50.485 -26.282  1.00  0.00     0.032 A 
HETATM   33  C15 UNL     1      -0.243  51.207 -25.376  1.00  0.00     0.016 A 
BRANCH  31  34
HETATM   34  N5  UNL     1      -3.245  49.865 -27.139  1.00  0.00    -0.250 N 
HETATM   35  C12 UNL     1      -3.947  48.700 -26.932  1.00  0.00     0.132 A 
HETATM   36  C13 UNL     1      -4.564  48.446 -28.133  1.00  0.00     0.123 A 
HETATM   37  N6  UNL     1      -4.241  49.421 -29.025  1.00  0.00    -0.294 N 
HETATM   38  N7  UNL     1      -3.439  50.282 -28.415  1.00  0.00    -0.016 NA
ATOM     39  H6  UNL     1      -4.560  49.478 -29.992  1.00  0.00     0.183 HD
ENDBRANCH  31  34
ENDBRANCH   7  28
TORSDOF 5
ENDMDL
MODEL 8
REMARK minimizedAffinity -9.55441666
REMARK  5 active torsions:
REMARK  status: ('A' for Active; 'I' for Inactive)
REMARK    1  A    between atoms: C2_2  and  N1_3 
REMARK    2  A    between atoms: C2_2  and  C18_30 
REMARK       I    between atoms: N1_3  and  C3_4 
REMARK       I    between atoms: C3_4  and  N2_6 
REMARK    3  A    between atoms: N2_6  and  C4_7 
REMARK    4  A    between atoms: C7_13  and  C8_14 
REMARK    5  A    between atoms: C11_17  and  N5_18 
ROOT
HETATM    1  C4  UNL     1      -4.102  48.882 -27.512  1.00  0.00     0.111 A 
HETATM    2  C5  UNL     1      -3.409  49.893 -28.162  1.00  0.00     0.080 A 
HETATM    3  C6  UNL     1      -2.584  50.667 -27.347  1.00  0.00     0.065 A 
HETATM    4  N3  UNL     1      -1.762  51.722 -27.622  1.00  0.00    -0.299 N 
HETATM    5  N4  UNL     1      -1.104  52.198 -26.555  1.00  0.00    -0.299 N 
ATOM      6  H4  UNL     1      -0.425  52.959 -26.529  1.00  0.00     0.187 HD
HETATM    7  C7  UNL     1      -1.539  51.447 -25.528  1.00  0.00     0.072 A 
HETATM    8  C16 UNL     1      -2.458  50.451 -25.981  1.00  0.00     0.036 A 
HETATM    9  C17 UNL     1      -3.178  49.398 -25.415  1.00  0.00     0.105 A 
HETATM   10  N8  UNL     1      -3.993  48.630 -26.187  1.00  0.00    -0.351 N 
ATOM     11  H8  UNL     1      -4.521  47.866 -25.768  1.00  0.00     0.166 HD
HETATM   12  H8  UNL     1      -1.601  52.160 -28.522  1.00  0.00     0.187 HD
ENDROOT
BRANCH   1  13
HETATM   13  N2  UNL     1      -4.973  48.004 -28.159  1.00  0.00    -0.295 N 
HETATM   14  C3  UNL     1      -5.316  47.969 -29.484  1.00  0.00     0.322 C 
HETATM   15  N1  UNL     1      -6.184  46.926 -29.742  1.00  0.00    -0.335 N 
HETATM   16  O1  UNL     1      -4.936  48.741 -30.354  1.00  0.00    -0.247 OA
HETATM   17  H5  UNL     1      -6.048  46.117 -29.154  1.00  0.00     0.165 HD
HETATM   18  H6  UNL     1      -5.481  47.419 -27.516  1.00  0.00     0.172 HD
BRANCH  15  19
HETATM   19  C2  UNL     1      -6.635  46.652 -31.098  1.00  0.00     0.115 C 
HETATM   20  C1  UNL     1      -8.163  46.686 -31.210  1.00  0.00     0.037 C 
BRANCH  19  21
HETATM   21  C18 UNL     1      -6.079  45.313 -31.559  1.00  0.00    -0.036 A 
HETATM   22  C19 UNL     1      -4.883  45.232 -32.295  1.00  0.00     0.012 A 
HETATM   23  C20 UNL     1      -4.394  43.995 -32.721  1.00  0.00     0.043 A 
HETATM   24  C21 UNL     1      -5.099  42.838 -32.417  1.00  0.00     0.116 A 
HETATM   25  F1  UNL     1      -4.630  41.653 -32.827  1.00  0.00    -0.206 F 
HETATM   26  C22 UNL     1      -6.286  42.893 -31.696  1.00  0.00     0.043 A 
HETATM   27  C23 UNL     1      -6.778  44.128 -31.269  1.00  0.00     0.012 A 
ENDBRANCH  19  21
ENDBRANCH  15  19
ENDBRANCH   1  13
BRANCH   7  28
HETATM   28  C8  UNL     1      -1.055  51.692 -24.169  1.00  0.00    -0.007 A 
HETATM   29  C9  UNL     1       0.018  52.556 -23.926  1.00  0.00     0.016 A 
HETATM   30  C10 UNL     1       0.467  52.783 -22.619  1.00  0.00     0.032 A 
HETATM   31  C11 UNL     1      -0.149  52.138 -21.536  1.00  0.00     0.054 A 
HETATM   32  C14 UNL     1      -1.214  51.262 -21.774  1.00  0.00     0.032 A 
HETATM   33  C15 UNL     1      -1.658  51.041 -23.083  1.00  0.00     0.016 A 
BRANCH  31  34
HETATM   34  N5  UNL     1       0.321  52.381 -20.219  1.00  0.00    -0.250 N 
HETATM   35  C12 UNL     1      -0.093  51.815 -19.034  1.00  0.00     0.132 A 
HETATM   36  C13 UNL     1       0.690  52.406 -18.072  1.00  0.00     0.123 A 
HETATM   37  N6  UNL     1       1.539  53.293 -18.658  1.00  0.00    -0.294 N 
HETATM   38  N7  UNL     1       1.311  53.274 -19.964  1.00  0.00    -0.016 NA
ATOM     39  H6  UNL     1       2.228  53.871 -18.177  1.00  0.00     0.183 HD
ENDBRANCH  31  34
ENDBRANCH   7  28
TORSDOF 5
ENDMDL
MODEL 9
REMARK minimizedAffinity -9.52227974
REMARK  5 active torsions:
REMARK  status: ('A' for Active; 'I' for Inactive)
REMARK    1  A    between atoms: C2_2  and  N1_3 
REMARK    2  A    between atoms: C2_2  and  C18_30 
REMARK       I    between atoms: N1_3  and  C3_4 
REMARK       I    between atoms: C3_4  and  N2_6 
REMARK    3  A    between atoms: N2_6  and  C4_7 
REMARK    4  A    between atoms: C7_13  and  C8_14 
REMARK    5  A    between atoms: C11_17  and  N5_18 
ROOT
HETATM    1  C4  UNL     1       0.979  52.052 -16.575  1.00  0.00     0.111 A 
HETATM    2  C5  UNL     1       0.265  50.902 -16.881  1.00  0.00     0.080 A 
HETATM    3  C6  UNL     1      -0.107  50.770 -18.218  1.00  0.00     0.065 A 
HETATM    4  N3  UNL     1      -0.795  49.794 -18.880  1.00  0.00    -0.299 N 
HETATM    5  N4  UNL     1      -0.939  50.019 -20.194  1.00  0.00    -0.299 N 
ATOM      6  H4  UNL     1      -1.393  49.420 -20.884  1.00  0.00     0.187 HD
HETATM    7  C7  UNL     1      -0.352  51.212 -20.398  1.00  0.00     0.072 A 
HETATM    8  C16 UNL     1       0.209  51.716 -19.184  1.00  0.00     0.036 A 
HETATM    9  C17 UNL     1       0.948  52.833 -18.791  1.00  0.00     0.105 A 
HETATM   10  N8  UNL     1       1.320  52.988 -17.492  1.00  0.00    -0.351 N 
ATOM     11  H8  UNL     1       1.854  53.809 -17.209  1.00  0.00     0.166 HD
HETATM   12  H8  UNL     1      -1.187  48.944 -18.491  1.00  0.00     0.187 HD
ENDROOT
BRANCH   1  13
HETATM   13  N2  UNL     1       1.438  52.359 -15.294  1.00  0.00    -0.295 N 
HETATM   14  C3  UNL     1       0.765  52.269 -14.105  1.00  0.00     0.322 C 
HETATM   15  N1  UNL     1       1.577  52.632 -13.050  1.00  0.00    -0.335 N 
HETATM   16  O1  UNL     1      -0.400  51.926 -13.954  1.00  0.00    -0.247 OA
HETATM   17  H5  UNL     1       2.554  52.416 -13.182  1.00  0.00     0.165 HD
HETATM   18  H6  UNL     1       2.338  52.811 -15.303  1.00  0.00     0.172 HD
BRANCH  15  19
HETATM   19  C2  UNL     1       1.095  52.552 -11.678  1.00  0.00     0.115 C 
HETATM   20  C1  UNL     1       0.248  53.771 -11.299  1.00  0.00     0.037 C 
BRANCH  19  21
HETATM   21  C18 UNL     1       2.274  52.385 -10.732  1.00  0.00    -0.036 A 
HETATM   22  C19 UNL     1       2.419  51.231  -9.939  1.00  0.00     0.012 A 
HETATM   23  C20 UNL     1       3.501  51.101  -9.067  1.00  0.00     0.043 A 
HETATM   24  C21 UNL     1       4.439  52.121  -8.982  1.00  0.00     0.116 A 
HETATM   25  F1  UNL     1       5.476  51.996  -8.144  1.00  0.00    -0.206 F 
HETATM   26  C22 UNL     1       4.316  53.272  -9.750  1.00  0.00     0.043 A 
HETATM   27  C23 UNL     1       3.234  53.406 -10.623  1.00  0.00     0.012 A 
ENDBRANCH  19  21
ENDBRANCH  15  19
ENDBRANCH   1  13
BRANCH   7  28
HETATM   28  C8  UNL     1      -0.331  51.814 -21.731  1.00  0.00    -0.007 A 
HETATM   29  C9  UNL     1      -1.425  51.698 -22.597  1.00  0.00     0.016 A 
HETATM   30  C10 UNL     1      -1.392  52.283 -23.868  1.00  0.00     0.032 A 
HETATM   31  C11 UNL     1      -0.256  52.987 -24.295  1.00  0.00     0.054 A 
HETATM   32  C14 UNL     1       0.846  53.095 -23.439  1.00  0.00     0.032 A 
HETATM   33  C15 UNL     1       0.805  52.508 -22.169  1.00  0.00     0.016 A 
BRANCH  31  34
HETATM   34  N5  UNL     1      -0.242  53.572 -25.588  1.00  0.00    -0.250 N 
HETATM   35  C12 UNL     1      -0.510  52.989 -26.805  1.00  0.00     0.132 A 
HETATM   36  C13 UNL     1      -0.350  54.000 -27.721  1.00  0.00     0.123 A 
HETATM   37  N6  UNL     1       0.003  55.145 -27.077  1.00  0.00    -0.294 N 
HETATM   38  N7  UNL     1       0.067  54.880 -25.779  1.00  0.00    -0.016 NA
ATOM     39  H6  UNL     1       0.187  56.048 -27.514  1.00  0.00     0.183 HD
ENDBRANCH  31  34
ENDBRANCH   7  28
TORSDOF 5
ENDMDL
