MODEL 1
REMARK minimizedAffinity -7.53447294
REMARK CNNscore 0.23691079
REMARK CNNaffinity 6.9835453
REMARK  9 active torsions:
REMARK  status: ('A' for Active; 'I' for Inactive)
REMARK    1  A    between atoms: O1_2  and  C2_3 
REMARK    2  A    between atoms: C2_3  and  C3_4 
REMARK    3  A    between atoms: C3_4  and  O3_6 
REMARK    4  A    between atoms: O3_6  and  C4_7 
REMARK    5  A    between atoms: C4_7  and  C5_8 
REMARK    6  A    between atoms: C5_8  and  N1_9 
REMARK    7  A    between atoms: C5_8  and  C19_31 
REMARK       I    between atoms: N1_9  and  C6_10 
REMARK       I    between atoms: C6_10  and  N2_12 
REMARK    8  A    between atoms: C11_19  and  N4_20 
REMARK    9  A    between atoms: N4_20  and  C12_21 
ROOT
HETATM    1  N1  UNL     1      -4.025  50.531 -20.014  1.00  0.00    -0.332 N 
HETATM    2  C6  UNL     1      -3.029  50.789 -19.108  1.00  0.00     0.319 C 
HETATM    3  O4  UNL     1      -3.050  50.342 -17.966  1.00  0.00    -0.247 OA
HETATM    4  N2  UNL     1      -1.999  51.582 -19.598  1.00  0.00    -0.328 N 
HETATM    5  C7  UNL     1      -0.886  51.840 -18.688  1.00  0.00     0.132 C 
HETATM    6  C8  UNL     1      -0.149  53.132 -19.043  1.00  0.00     0.062 C 
HETATM    7  C9  UNL     1       0.190  53.183 -20.497  1.00  0.00    -0.017 A 
HETATM    8  C10 UNL     1       1.194  53.978 -21.002  1.00  0.00     0.099 A 
HETATM    9  N3  UNL     1       1.499  54.050 -22.311  1.00  0.00    -0.342 N 
ATOM     10  H3  UNL     1       2.258  54.641 -22.649  1.00  0.00     0.167 HD
HETATM   11  C11 UNL     1       0.764  53.312 -23.148  1.00  0.00     0.157 A 
HETATM   12  N5  UNL     1      -0.240  52.519 -22.756  1.00  0.00    -0.334 N 
ATOM     13  H5  UNL     1      -0.772  51.971 -23.431  1.00  0.00     0.168 HD
HETATM   14  C17 UNL     1      -0.526  52.469 -21.436  1.00  0.00     0.037 A 
HETATM   15  C18 UNL     1      -1.666  51.568 -21.028  1.00  0.00     0.185 C 
HETATM   16  H9  UNL     1      -4.253  51.340 -20.576  1.00  0.00     0.165 HD
ENDROOT
BRANCH   1  17
HETATM   17  C5  UNL     1      -5.176  49.715 -19.632  1.00  0.00     0.143 C 
BRANCH  17  18
HETATM   18  C4  UNL     1      -4.767  48.351 -19.023  1.00  0.00     0.209 C 
BRANCH  18  19
HETATM   19  O3  UNL     1      -4.485  47.401 -20.071  1.00  0.00    -0.317 OA
BRANCH  19  20
HETATM   20  C3  UNL     1      -3.309  46.719 -19.977  1.00  0.00     0.282 C 
HETATM   21  O2  UNL     1      -2.892  46.160 -18.971  1.00  0.00    -0.263 OA
BRANCH  20  22
HETATM   22  C2  UNL     1      -2.526  46.795 -21.286  1.00  0.00     0.277 C 
BRANCH  22  23
HETATM   23  O1  UNL     1      -1.851  48.010 -21.574  1.00  0.00    -0.386 OA
HETATM   24  C1  UNL     1      -0.722  48.219 -20.737  1.00  0.00     0.202 C 
ENDBRANCH  22  23
ENDBRANCH  20  22
ENDBRANCH  19  20
ENDBRANCH  18  19
ENDBRANCH  17  18
BRANCH  17  25
HETATM   25  C19 UNL     1      -6.086  49.531 -20.842  1.00  0.00    -0.032 A 
HETATM   26  C20 UNL     1      -5.840  50.253 -22.022  1.00  0.00     0.012 A 
HETATM   27  C21 UNL     1      -6.677  50.106 -23.128  1.00  0.00     0.044 A 
HETATM   28  C22 UNL     1      -7.760  49.234 -23.064  1.00  0.00     0.138 A 
HETATM   29  F1  UNL     1      -8.546  49.109 -24.141  1.00  0.00    -0.204 F 
HETATM   30  C23 UNL     1      -8.019  48.508 -21.906  1.00  0.00     0.073 A 
HETATM   31 CL1  UNL     1      -9.353  47.423 -21.828  1.00  0.00    -0.081 Cl
HETATM   32  C24 UNL     1      -7.187  48.654 -20.797  1.00  0.00     0.036 A 
ENDBRANCH  17  25
ENDBRANCH   1  17
BRANCH  11  33
HETATM   33  N4  UNL     1       1.116  53.402 -24.481  1.00  0.00    -0.259 NA
HETATM   34  H15 UNL     1       2.133  53.372 -24.498  1.00  0.00     0.131 HD
BRANCH  33  35
HETATM   35  C12 UNL     1       0.452  52.566 -25.481  1.00  0.00     0.067 C 
HETATM   36  C13 UNL     1       1.445  51.744 -26.317  1.00  0.00     0.046 C 
HETATM   37  C14 UNL     1       0.945  51.565 -27.745  1.00  0.00     0.169 C 
HETATM   38  O5  UNL     1      -0.452  51.283 -27.731  1.00  0.00    -0.391 OA
HETATM   39  C15 UNL     1      -1.250  52.398 -27.323  1.00  0.00     0.169 C 
HETATM   40  C16 UNL     1      -0.551  53.337 -26.341  1.00  0.00     0.046 C 
ENDBRANCH  33  35
ENDBRANCH  11  33
TORSDOF 9
ENDMDL
MODEL 2
REMARK minimizedAffinity -7.56090784
REMARK CNNscore 0.203346968
REMARK CNNaffinity 6.92267084
REMARK  9 active torsions:
REMARK  status: ('A' for Active; 'I' for Inactive)
REMARK    1  A    between atoms: O1_2  and  C2_3 
REMARK    2  A    between atoms: C2_3  and  C3_4 
REMARK    3  A    between atoms: C3_4  and  O3_6 
REMARK    4  A    between atoms: O3_6  and  C4_7 
REMARK    5  A    between atoms: C4_7  and  C5_8 
REMARK    6  A    between atoms: C5_8  and  N1_9 
REMARK    7  A    between atoms: C5_8  and  C19_31 
REMARK       I    between atoms: N1_9  and  C6_10 
REMARK       I    between atoms: C6_10  and  N2_12 
REMARK    8  A    between atoms: C11_19  and  N4_20 
REMARK    9  A    between atoms: N4_20  and  C12_21 
ROOT
HETATM    1  N1  UNL     1      -4.221  50.545 -20.538  1.00  0.00    -0.332 N 
HETATM    2  C6  UNL     1      -3.267  50.682 -19.563  1.00  0.00     0.319 C 
HETATM    3  O4  UNL     1      -3.361  50.131 -18.471  1.00  0.00    -0.247 OA
HETATM    4  N2  UNL     1      -2.190  51.482 -19.924  1.00  0.00    -0.328 N 
HETATM    5  C7  UNL     1      -1.118  51.615 -18.940  1.00  0.00     0.132 C 
HETATM    6  C8  UNL     1      -0.326  52.907 -19.132  1.00  0.00     0.062 C 
HETATM    7  C9  UNL     1       0.090  53.084 -20.556  1.00  0.00    -0.017 A 
HETATM    8  C10 UNL     1       1.142  53.887 -20.932  1.00  0.00     0.099 A 
HETATM    9  N3  UNL     1       1.517  54.071 -22.212  1.00  0.00    -0.342 N 
ATOM     10  H3  UNL     1       2.311  54.665 -22.454  1.00  0.00     0.167 HD
HETATM   11  C11 UNL     1       0.806  53.441 -23.152  1.00  0.00     0.157 A 
HETATM   12  N5  UNL     1      -0.241  52.650 -22.886  1.00  0.00    -0.334 N 
ATOM     13  H5  UNL     1      -0.753  52.187 -23.636  1.00  0.00     0.168 HD
HETATM   14  C17 UNL     1      -0.596  52.486 -21.593  1.00  0.00     0.037 A 
HETATM   15  C18 UNL     1      -1.783  51.591 -21.330  1.00  0.00     0.185 C 
HETATM   16  H9  UNL     1      -4.395  51.411 -21.030  1.00  0.00     0.165 HD
ENDROOT
BRANCH   1  17
HETATM   17  C5  UNL     1      -5.415  49.737 -20.293  1.00  0.00     0.143 C 
BRANCH  17  18
HETATM   18  C4  UNL     1      -5.126  48.492 -19.418  1.00  0.00     0.209 C 
BRANCH  18  19
HETATM   19  O3  UNL     1      -6.076  48.411 -18.336  1.00  0.00    -0.317 OA
BRANCH  19  20
HETATM   20  C3  UNL     1      -6.926  47.346 -18.348  1.00  0.00     0.282 C 
HETATM   21  O2  UNL     1      -6.949  46.467 -19.199  1.00  0.00    -0.263 OA
BRANCH  20  22
HETATM   22  C2  UNL     1      -7.912  47.419 -17.185  1.00  0.00     0.277 C 
BRANCH  22  23
HETATM   23  O1  UNL     1      -9.285  47.588 -17.501  1.00  0.00    -0.386 OA
HETATM   24  C1  UNL     1      -9.509  48.667 -18.398  1.00  0.00     0.202 C 
ENDBRANCH  22  23
ENDBRANCH  20  22
ENDBRANCH  19  20
ENDBRANCH  18  19
ENDBRANCH  17  18
BRANCH  17  25
HETATM   25  C19 UNL     1      -6.038  49.343 -21.628  1.00  0.00    -0.032 A 
HETATM   26  C20 UNL     1      -7.434  49.231 -21.745  1.00  0.00     0.012 A 
HETATM   27  C21 UNL     1      -8.014  48.853 -22.957  1.00  0.00     0.044 A 
HETATM   28  C22 UNL     1      -7.204  48.591 -24.058  1.00  0.00     0.138 A 
HETATM   29  F1  UNL     1      -7.785  48.233 -25.210  1.00  0.00    -0.204 F 
HETATM   30  C23 UNL     1      -5.819  48.699 -23.963  1.00  0.00     0.073 A 
HETATM   31 CL1  UNL     1      -4.817  48.383 -25.325  1.00  0.00    -0.081 Cl
HETATM   32  C24 UNL     1      -5.236  49.073 -22.753  1.00  0.00     0.036 A 
ENDBRANCH  17  25
ENDBRANCH   1  17
BRANCH  11  33
HETATM   33  N4  UNL     1       1.230  53.644 -24.450  1.00  0.00    -0.259 NA
HETATM   34  H15 UNL     1       2.246  53.641 -24.410  1.00  0.00     0.131 HD
BRANCH  33  35
HETATM   35  C12 UNL     1       0.648  52.873 -25.548  1.00  0.00     0.067 C 
HETATM   36  C13 UNL     1       1.637  51.861 -26.149  1.00  0.00     0.046 C 
HETATM   37  C14 UNL     1       1.407  51.690 -27.645  1.00  0.00     0.169 C 
HETATM   38  O5  UNL     1       0.008  51.633 -27.911  1.00  0.00    -0.391 OA
HETATM   39  C15 UNL     1      -0.660  52.880 -27.695  1.00  0.00     0.169 C 
HETATM   40  C16 UNL     1      -0.024  53.746 -26.610  1.00  0.00     0.046 C 
ENDBRANCH  33  35
ENDBRANCH  11  33
TORSDOF 9
ENDMDL
MODEL 3
REMARK minimizedAffinity -8.24117851
REMARK CNNscore 0.183385625
REMARK CNNaffinity 6.10460138
REMARK  9 active torsions:
REMARK  status: ('A' for Active; 'I' for Inactive)
REMARK    1  A    between atoms: O1_2  and  C2_3 
REMARK    2  A    between atoms: C2_3  and  C3_4 
REMARK    3  A    between atoms: C3_4  and  O3_6 
REMARK    4  A    between atoms: O3_6  and  C4_7 
REMARK    5  A    between atoms: C4_7  and  C5_8 
REMARK    6  A    between atoms: C5_8  and  N1_9 
REMARK    7  A    between atoms: C5_8  and  C19_31 
REMARK       I    between atoms: N1_9  and  C6_10 
REMARK       I    between atoms: C6_10  and  N2_12 
REMARK    8  A    between atoms: C11_19  and  N4_20 
REMARK    9  A    between atoms: N4_20  and  C12_21 
ROOT
HETATM    1  N1  UNL     1      -2.480  50.103 -23.964  1.00  0.00    -0.332 N 
HETATM    2  C6  UNL     1      -3.256  49.725 -22.899  1.00  0.00     0.319 C 
HETATM    3  O4  UNL     1      -3.010  50.077 -21.750  1.00  0.00    -0.247 OA
HETATM    4  N2  UNL     1      -4.343  48.928 -23.236  1.00  0.00    -0.328 N 
HETATM    5  C7  UNL     1      -5.234  48.545 -22.143  1.00  0.00     0.132 C 
HETATM    6  C8  UNL     1      -5.991  47.254 -22.453  1.00  0.00     0.062 C 
HETATM    7  C9  UNL     1      -6.626  47.306 -23.805  1.00  0.00    -0.017 A 
HETATM    8  C10 UNL     1      -7.689  46.510 -24.161  1.00  0.00     0.099 A 
HETATM    9  N3  UNL     1      -8.259  46.531 -25.380  1.00  0.00    -0.342 N 
ATOM     10  H3  UNL     1      -9.055  45.934 -25.607  1.00  0.00     0.167 HD
HETATM   11  C11 UNL     1      -7.737  47.369 -26.282  1.00  0.00     0.157 A 
HETATM   12  N5  UNL     1      -6.696  48.172 -26.035  1.00  0.00    -0.334 N 
ATOM     13  H5  UNL     1      -6.332  48.798 -26.753  1.00  0.00     0.168 HD
HETATM   14  C17 UNL     1      -6.142  48.127 -24.803  1.00  0.00     0.037 A 
HETATM   15  C18 UNL     1      -4.967  49.043 -24.559  1.00  0.00     0.185 C 
HETATM   16  H9  UNL     1      -2.351  49.354 -24.631  1.00  0.00     0.165 HD
ENDROOT
BRANCH   1  17
HETATM   17  C5  UNL     1      -1.297  50.937 -23.756  1.00  0.00     0.143 C 
BRANCH  17  18
HETATM   18  C4  UNL     1      -1.539  52.073 -22.730  1.00  0.00     0.209 C 
BRANCH  18  19
HETATM   19  O3  UNL     1      -0.281  52.600 -22.263  1.00  0.00    -0.317 OA
BRANCH  19  20
HETATM   20  C3  UNL     1       0.042  52.352 -20.963  1.00  0.00     0.282 C 
HETATM   21  O2  UNL     1       0.056  51.248 -20.435  1.00  0.00    -0.263 OA
BRANCH  20  22
HETATM   22  C2  UNL     1       0.324  53.650 -20.211  1.00  0.00     0.277 C 
BRANCH  22  23
HETATM   23  O1  UNL     1       1.602  54.242 -20.387  1.00  0.00    -0.386 OA
HETATM   24  C1  UNL     1       1.847  54.619 -21.735  1.00  0.00     0.202 C 
ENDBRANCH  22  23
ENDBRANCH  20  22
ENDBRANCH  19  20
ENDBRANCH  18  19
ENDBRANCH  17  18
BRANCH  17  25
HETATM   25  C19 UNL     1      -0.831  51.492 -25.097  1.00  0.00    -0.032 A 
HETATM   26  C20 UNL     1      -1.749  52.122 -25.954  1.00  0.00     0.012 A 
HETATM   27  C21 UNL     1      -1.337  52.617 -27.191  1.00  0.00     0.044 A 
HETATM   28  C22 UNL     1      -0.005  52.491 -27.577  1.00  0.00     0.138 A 
HETATM   29  F1  UNL     1       0.366  52.977 -28.768  1.00  0.00    -0.204 F 
HETATM   30  C23 UNL     1       0.920  51.873 -26.741  1.00  0.00     0.073 A 
HETATM   31 CL1  UNL     1       2.569  51.723 -27.213  1.00  0.00    -0.081 Cl
HETATM   32  C24 UNL     1       0.512  51.374 -25.505  1.00  0.00     0.036 A 
ENDBRANCH  17  25
ENDBRANCH   1  17
BRANCH  11  33
HETATM   33  N4  UNL     1      -8.357  47.371 -27.516  1.00  0.00    -0.259 NA
HETATM   34  H15 UNL     1      -9.299  47.715 -27.348  1.00  0.00     0.131 HD
BRANCH  33  35
HETATM   35  C12 UNL     1      -7.684  47.944 -28.682  1.00  0.00     0.067 C 
HETATM   36  C13 UNL     1      -8.641  48.737 -29.586  1.00  0.00     0.046 C 
HETATM   37  C14 UNL     1      -8.239  48.618 -31.050  1.00  0.00     0.169 C 
HETATM   38  O5  UNL     1      -6.823  48.721 -31.168  1.00  0.00    -0.391 OA
HETATM   39  C15 UNL     1      -6.126  47.597 -30.623  1.00  0.00     0.169 C 
HETATM   40  C16 UNL     1      -6.846  46.925 -29.456  1.00  0.00     0.046 C 
ENDBRANCH  33  35
ENDBRANCH  11  33
TORSDOF 9
ENDMDL
MODEL 4
REMARK minimizedAffinity -7.64227104
REMARK CNNscore 0.165283576
REMARK CNNaffinity 6.7535491
REMARK  9 active torsions:
REMARK  status: ('A' for Active; 'I' for Inactive)
REMARK    1  A    between atoms: O1_2  and  C2_3 
REMARK    2  A    between atoms: C2_3  and  C3_4 
REMARK    3  A    between atoms: C3_4  and  O3_6 
REMARK    4  A    between atoms: O3_6  and  C4_7 
REMARK    5  A    between atoms: C4_7  and  C5_8 
REMARK    6  A    between atoms: C5_8  and  N1_9 
REMARK    7  A    between atoms: C5_8  and  C19_31 
REMARK       I    between atoms: N1_9  and  C6_10 
REMARK       I    between atoms: C6_10  and  N2_12 
REMARK    8  A    between atoms: C11_19  and  N4_20 
REMARK    9  A    between atoms: N4_20  and  C12_21 
ROOT
HETATM    1  N1  UNL     1      -2.723  51.627 -22.802  1.00  0.00    -0.332 N 
HETATM    2  C6  UNL     1      -2.370  50.344 -22.474  1.00  0.00     0.319 C 
HETATM    3  O4  UNL     1      -2.535  49.402 -23.242  1.00  0.00    -0.247 OA
HETATM    4  N2  UNL     1      -1.804  50.209 -21.213  1.00  0.00    -0.328 N 
HETATM    5  C7  UNL     1      -1.359  48.869 -20.838  1.00  0.00     0.132 C 
HETATM    6  C8  UNL     1      -1.326  48.684 -19.321  1.00  0.00     0.062 C 
HETATM    7  C9  UNL     1      -0.602  49.807 -18.652  1.00  0.00    -0.017 A 
HETATM    8  C10 UNL     1      -0.052  49.697 -17.396  1.00  0.00     0.099 A 
HETATM    9  N3  UNL     1       0.586  50.704 -16.772  1.00  0.00    -0.342 N 
ATOM     10  H3  UNL     1       0.993  50.583 -15.844  1.00  0.00     0.167 HD
HETATM   11  C11 UNL     1       0.665  51.870 -17.421  1.00  0.00     0.157 A 
HETATM   12  N5  UNL     1       0.150  52.079 -18.638  1.00  0.00    -0.334 N 
ATOM     13  H5  UNL     1       0.236  52.985 -19.097  1.00  0.00     0.168 HD
HETATM   14  C17 UNL     1      -0.488  51.050 -19.239  1.00  0.00     0.037 A 
HETATM   15  C18 UNL     1      -1.059  51.321 -20.610  1.00  0.00     0.185 C 
HETATM   16  H9  UNL     1      -3.134  52.124 -22.023  1.00  0.00     0.165 HD
ENDROOT
BRANCH   1  17
HETATM   17  C5  UNL     1      -3.338  51.916 -24.096  1.00  0.00     0.143 C 
BRANCH  17  18
HETATM   18  C4  UNL     1      -4.599  51.057 -24.364  1.00  0.00     0.209 C 
BRANCH  18  19
HETATM   19  O3  UNL     1      -5.631  51.373 -23.407  1.00  0.00    -0.317 OA
BRANCH  19  20
HETATM   20  C3  UNL     1      -6.228  50.320 -22.782  1.00  0.00     0.282 C 
HETATM   21  O2  UNL     1      -7.099  49.610 -23.266  1.00  0.00    -0.263 OA
BRANCH  20  22
HETATM   22  C2  UNL     1      -5.718  50.171 -21.351  1.00  0.00     0.277 C 
BRANCH  22  23
HETATM   23  O1  UNL     1      -6.053  48.977 -20.658  1.00  0.00    -0.386 OA
HETATM   24  C1  UNL     1      -4.983  48.043 -20.633  1.00  0.00     0.202 C 
ENDBRANCH  22  23
ENDBRANCH  20  22
ENDBRANCH  19  20
ENDBRANCH  18  19
ENDBRANCH  17  18
BRANCH  17  25
HETATM   25  C19 UNL     1      -2.301  51.735 -25.198  1.00  0.00    -0.032 A 
HETATM   26  C20 UNL     1      -2.702  51.321 -26.480  1.00  0.00     0.012 A 
HETATM   27  C21 UNL     1      -1.758  51.135 -27.490  1.00  0.00     0.044 A 
HETATM   28  C22 UNL     1      -0.410  51.365 -27.228  1.00  0.00     0.138 A 
HETATM   29  F1  UNL     1       0.475  51.182 -28.217  1.00  0.00    -0.204 F 
HETATM   30  C23 UNL     1       0.007  51.779 -25.967  1.00  0.00     0.073 A 
HETATM   31 CL1  UNL     1       1.671  52.072 -25.643  1.00  0.00    -0.081 Cl
HETATM   32  C24 UNL     1      -0.932  51.963 -24.953  1.00  0.00     0.036 A 
ENDBRANCH  17  25
ENDBRANCH   1  17
BRANCH  11  33
HETATM   33  N4  UNL     1       1.338  52.874 -16.754  1.00  0.00    -0.259 NA
HETATM   34  H15 UNL     1       0.755  53.702 -16.844  1.00  0.00     0.131 HD
BRANCH  33  35
HETATM   35  C12 UNL     1       1.883  52.639 -15.416  1.00  0.00     0.067 C 
HETATM   36  C13 UNL     1       3.227  51.894 -15.448  1.00  0.00     0.046 C 
HETATM   37  C14 UNL     1       3.375  50.975 -14.243  1.00  0.00     0.169 C 
HETATM   38  O5  UNL     1       2.903  51.639 -13.074  1.00  0.00    -0.391 OA
HETATM   39  C15 UNL     1       1.486  51.836 -13.068  1.00  0.00     0.169 C 
HETATM   40  C16 UNL     1       0.875  52.001 -14.458  1.00  0.00     0.046 C 
ENDBRANCH  33  35
ENDBRANCH  11  33
TORSDOF 9
ENDMDL
MODEL 5
REMARK minimizedAffinity -8.09100342
REMARK CNNscore 0.152483314
REMARK CNNaffinity 6.97439051
REMARK  9 active torsions:
REMARK  status: ('A' for Active; 'I' for Inactive)
REMARK    1  A    between atoms: O1_2  and  C2_3 
REMARK    2  A    between atoms: C2_3  and  C3_4 
REMARK    3  A    between atoms: C3_4  and  O3_6 
REMARK    4  A    between atoms: O3_6  and  C4_7 
REMARK    5  A    between atoms: C4_7  and  C5_8 
REMARK    6  A    between atoms: C5_8  and  N1_9 
REMARK    7  A    between atoms: C5_8  and  C19_31 
REMARK       I    between atoms: N1_9  and  C6_10 
REMARK       I    between atoms: C6_10  and  N2_12 
REMARK    8  A    between atoms: C11_19  and  N4_20 
REMARK    9  A    between atoms: N4_20  and  C12_21 
ROOT
HETATM    1  N1  UNL     1      -0.854  50.795 -17.591  1.00  0.00    -0.332 N 
HETATM    2  C6  UNL     1      -2.156  50.947 -17.991  1.00  0.00     0.319 C 
HETATM    3  O4  UNL     1      -3.090  50.951 -17.196  1.00  0.00    -0.247 OA
HETATM    4  N2  UNL     1      -2.320  51.106 -19.361  1.00  0.00    -0.328 N 
HETATM    5  C7  UNL     1      -3.685  51.327 -19.833  1.00  0.00     0.132 C 
HETATM    6  C8  UNL     1      -3.860  50.899 -21.290  1.00  0.00     0.062 C 
HETATM    7  C9  UNL     1      -2.785  51.469 -22.157  1.00  0.00    -0.017 A 
HETATM    8  C10 UNL     1      -2.923  51.616 -23.518  1.00  0.00     0.099 A 
HETATM    9  N3  UNL     1      -1.958  52.109 -24.315  1.00  0.00    -0.342 N 
ATOM     10  H3  UNL     1      -2.099  52.215 -25.320  1.00  0.00     0.167 HD
HETATM   11  C11 UNL     1      -0.805  52.455 -23.733  1.00  0.00     0.157 A 
HETATM   12  N5  UNL     1      -0.570  52.337 -22.421  1.00  0.00    -0.334 N 
ATOM     13  H5  UNL     1       0.324  52.618 -22.019  1.00  0.00     0.168 HD
HETATM   14  C17 UNL     1      -1.557  51.836 -21.646  1.00  0.00     0.037 A 
HETATM   15  C18 UNL     1      -1.258  51.714 -20.171  1.00  0.00     0.185 C 
HETATM   16  H9  UNL     1      -0.324  50.208 -18.221  1.00  0.00     0.165 HD
ENDROOT
BRANCH   1  17
HETATM   17  C5  UNL     1      -0.534  50.610 -16.176  1.00  0.00     0.143 C 
BRANCH  17  18
HETATM   18  C4  UNL     1      -1.548  51.309 -15.237  1.00  0.00     0.209 C 
BRANCH  18  19
HETATM   19  O3  UNL     1      -1.167  51.115 -13.859  1.00  0.00    -0.317 OA
BRANCH  19  20
HETATM   20  C3  UNL     1      -1.617  52.039 -12.965  1.00  0.00     0.282 C 
HETATM   21  O2  UNL     1      -2.779  52.407 -12.850  1.00  0.00    -0.263 OA
BRANCH  20  22
HETATM   22  C2  UNL     1      -0.464  52.623 -12.153  1.00  0.00     0.277 C 
BRANCH  22  23
HETATM   23  O1  UNL     1      -0.777  53.633 -11.206  1.00  0.00    -0.386 OA
HETATM   24  C1  UNL     1       0.347  54.440 -10.878  1.00  0.00     0.202 C 
ENDBRANCH  22  23
ENDBRANCH  20  22
ENDBRANCH  19  20
ENDBRANCH  18  19
ENDBRANCH  17  18
BRANCH  17  25
HETATM   25  C19 UNL     1       0.888  51.093 -15.915  1.00  0.00    -0.032 A 
HETATM   26  C20 UNL     1       1.434  52.126 -16.696  1.00  0.00     0.012 A 
HETATM   27  C21 UNL     1       2.740  52.563 -16.478  1.00  0.00     0.044 A 
HETATM   28  C22 UNL     1       3.507  51.976 -15.475  1.00  0.00     0.138 A 
HETATM   29  F1  UNL     1       4.757  52.417 -15.283  1.00  0.00    -0.204 F 
HETATM   30  C23 UNL     1       2.984  50.955 -14.688  1.00  0.00     0.073 A 
HETATM   31 CL1  UNL     1       3.927  50.233 -13.442  1.00  0.00    -0.081 Cl
HETATM   32  C24 UNL     1       1.680  50.512 -14.905  1.00  0.00     0.036 A 
ENDBRANCH  17  25
ENDBRANCH   1  17
BRANCH  11  33
HETATM   33  N4  UNL     1       0.155  52.970 -24.582  1.00  0.00    -0.259 NA
HETATM   34  H15 UNL     1       0.994  53.073 -24.016  1.00  0.00     0.131 HD
BRANCH  33  35
HETATM   35  C12 UNL     1       0.365  52.382 -25.905  1.00  0.00     0.067 C 
HETATM   36  C13 UNL     1       1.705  51.636 -26.014  1.00  0.00     0.046 C 
HETATM   37  C14 UNL     1       2.287  51.753 -27.417  1.00  0.00     0.169 C 
HETATM   38  O5  UNL     1       1.249  51.596 -28.381  1.00  0.00    -0.391 OA
HETATM   39  C15 UNL     1       0.324  52.687 -28.400  1.00  0.00     0.169 C 
HETATM   40  C16 UNL     1       0.147  53.375 -27.048  1.00  0.00     0.046 C 
ENDBRANCH  33  35
ENDBRANCH  11  33
TORSDOF 9
ENDMDL
MODEL 6
REMARK minimizedAffinity -7.6823535
REMARK CNNscore 0.14756681
REMARK CNNaffinity 5.57230425
REMARK  9 active torsions:
REMARK  status: ('A' for Active; 'I' for Inactive)
REMARK    1  A    between atoms: O1_2  and  C2_3 
REMARK    2  A    between atoms: C2_3  and  C3_4 
REMARK    3  A    between atoms: C3_4  and  O3_6 
REMARK    4  A    between atoms: O3_6  and  C4_7 
REMARK    5  A    between atoms: C4_7  and  C5_8 
REMARK    6  A    between atoms: C5_8  and  N1_9 
REMARK    7  A    between atoms: C5_8  and  C19_31 
REMARK       I    between atoms: N1_9  and  C6_10 
REMARK       I    between atoms: C6_10  and  N2_12 
REMARK    8  A    between atoms: C11_19  and  N4_20 
REMARK    9  A    between atoms: N4_20  and  C12_21 
ROOT
HETATM    1  N1  UNL     1      -4.926  48.783 -26.420  1.00  0.00    -0.332 N 
HETATM    2  C6  UNL     1      -4.575  48.483 -27.710  1.00  0.00     0.319 C 
HETATM    3  O4  UNL     1      -3.429  48.621 -28.127  1.00  0.00    -0.247 OA
HETATM    4  N2  UNL     1      -5.618  48.004 -28.492  1.00  0.00    -0.328 N 
HETATM    5  C7  UNL     1      -5.284  47.617 -29.860  1.00  0.00     0.132 C 
HETATM    6  C8  UNL     1      -6.499  47.688 -30.785  1.00  0.00     0.062 C 
HETATM    7  C9  UNL     1      -7.675  46.982 -30.192  1.00  0.00    -0.017 A 
HETATM    8  C10 UNL     1      -8.726  46.518 -30.949  1.00  0.00     0.099 A 
HETATM    9  N3  UNL     1      -9.801  45.897 -30.428  1.00  0.00    -0.342 N 
ATOM     10  H3  UNL     1     -10.558  45.555 -31.021  1.00  0.00     0.167 HD
HETATM   11  C11 UNL     1      -9.834  45.749 -29.101  1.00  0.00     0.157 A 
HETATM   12  N5  UNL     1      -8.868  46.178 -28.280  1.00  0.00    -0.334 N 
ATOM     13  H5  UNL     1      -8.934  46.040 -27.272  1.00  0.00     0.168 HD
HETATM   14  C17 UNL     1      -7.802  46.800 -28.831  1.00  0.00     0.037 A 
HETATM   15  C18 UNL     1      -6.733  47.274 -27.876  1.00  0.00     0.185 C 
HETATM   16  H9  UNL     1      -5.830  49.232 -26.361  1.00  0.00     0.165 HD
ENDROOT
BRANCH   1  17
HETATM   17  C5  UNL     1      -3.929  49.305 -25.486  1.00  0.00     0.143 C 
BRANCH  17  18
HETATM   18  C4  UNL     1      -2.481  49.172 -26.021  1.00  0.00     0.209 C 
BRANCH  18  19
HETATM   19  O3  UNL     1      -1.688  50.301 -25.600  1.00  0.00    -0.317 OA
BRANCH  19  20
HETATM   20  C3  UNL     1      -0.955  50.926 -26.564  1.00  0.00     0.282 C 
HETATM   21  O2  UNL     1       0.197  50.648 -26.869  1.00  0.00    -0.263 OA
BRANCH  20  22
HETATM   22  C2  UNL     1      -1.736  52.082 -27.184  1.00  0.00     0.277 C 
BRANCH  22  23
HETATM   23  O1  UNL     1      -1.293  53.399 -26.894  1.00  0.00    -0.386 OA
HETATM   24  C1  UNL     1      -0.441  53.922 -27.904  1.00  0.00     0.202 C 
ENDBRANCH  22  23
ENDBRANCH  20  22
ENDBRANCH  19  20
ENDBRANCH  18  19
ENDBRANCH  17  18
BRANCH  17  25
HETATM   25  C19 UNL     1      -4.088  48.610 -24.139  1.00  0.00    -0.032 A 
HETATM   26  C20 UNL     1      -5.357  48.180 -23.716  1.00  0.00     0.012 A 
HETATM   27  C21 UNL     1      -5.516  47.559 -22.477  1.00  0.00     0.044 A 
HETATM   28  C22 UNL     1      -4.410  47.361 -21.656  1.00  0.00     0.138 A 
HETATM   29  F1  UNL     1      -4.589  46.759 -20.472  1.00  0.00    -0.204 F 
HETATM   30  C23 UNL     1      -3.144  47.777 -22.058  1.00  0.00     0.073 A 
HETATM   31 CL1  UNL     1      -1.774  47.525 -21.048  1.00  0.00    -0.081 Cl
HETATM   32  C24 UNL     1      -2.980  48.400 -23.294  1.00  0.00     0.036 A 
ENDBRANCH  17  25
ENDBRANCH   1  17
BRANCH  11  33
HETATM   33  N4  UNL     1     -10.947  45.096 -28.606  1.00  0.00    -0.259 NA
HETATM   34  H15 UNL     1     -10.591  44.268 -28.134  1.00  0.00     0.131 HD
BRANCH  33  35
HETATM   35  C12 UNL     1     -11.975  45.836 -27.875  1.00  0.00     0.067 C 
HETATM   36  C13 UNL     1     -12.285  47.201 -28.510  1.00  0.00     0.046 C 
HETATM   37  C14 UNL     1     -12.644  48.232 -27.448  1.00  0.00     0.169 C 
HETATM   38  O5  UNL     1     -13.496  47.638 -26.472  1.00  0.00    -0.391 OA
HETATM   39  C15 UNL     1     -12.834  46.663 -25.662  1.00  0.00     0.169 C 
HETATM   40  C16 UNL     1     -11.698  45.931 -26.373  1.00  0.00     0.046 C 
ENDBRANCH  33  35
ENDBRANCH  11  33
TORSDOF 9
ENDMDL
MODEL 7
REMARK minimizedAffinity -6.89570999
REMARK CNNscore 0.126811117
REMARK CNNaffinity 5.52780294
REMARK  9 active torsions:
REMARK  status: ('A' for Active; 'I' for Inactive)
REMARK    1  A    between atoms: O1_2  and  C2_3 
REMARK    2  A    between atoms: C2_3  and  C3_4 
REMARK    3  A    between atoms: C3_4  and  O3_6 
REMARK    4  A    between atoms: O3_6  and  C4_7 
REMARK    5  A    between atoms: C4_7  and  C5_8 
REMARK    6  A    between atoms: C5_8  and  N1_9 
REMARK    7  A    between atoms: C5_8  and  C19_31 
REMARK       I    between atoms: N1_9  and  C6_10 
REMARK       I    between atoms: C6_10  and  N2_12 
REMARK    8  A    between atoms: C11_19  and  N4_20 
REMARK    9  A    between atoms: N4_20  and  C12_21 
ROOT
HETATM    1  N1  UNL     1      -6.870  47.104 -28.289  1.00  0.00    -0.332 N 
HETATM    2  C6  UNL     1      -5.766  47.890 -28.496  1.00  0.00     0.319 C 
HETATM    3  O4  UNL     1      -5.497  48.366 -29.594  1.00  0.00    -0.247 OA
HETATM    4  N2  UNL     1      -4.995  48.107 -27.361  1.00  0.00    -0.328 N 
HETATM    5  C7  UNL     1      -3.837  48.985 -27.518  1.00  0.00     0.132 C 
HETATM    6  C8  UNL     1      -2.762  48.700 -26.470  1.00  0.00     0.062 C 
HETATM    7  C9  UNL     1      -3.342  48.649 -25.094  1.00  0.00    -0.017 A 
HETATM    8  C10 UNL     1      -2.590  48.842 -23.959  1.00  0.00     0.099 A 
HETATM    9  N3  UNL     1      -3.094  48.781 -22.712  1.00  0.00    -0.342 N 
ATOM     10  H3  UNL     1      -2.508  48.942 -21.892  1.00  0.00     0.167 HD
HETATM   11  C11 UNL     1      -4.396  48.501 -22.595  1.00  0.00     0.157 A 
HETATM   12  N5  UNL     1      -5.206  48.284 -23.638  1.00  0.00    -0.334 N 
ATOM     13  H5  UNL     1      -6.195  48.076 -23.501  1.00  0.00     0.168 HD
HETATM   14  C17 UNL     1      -4.672  48.349 -24.877  1.00  0.00     0.037 A 
HETATM   15  C18 UNL     1      -5.613  48.096 -26.030  1.00  0.00     0.185 C 
HETATM   16  H9  UNL     1      -6.679  46.329 -27.669  1.00  0.00     0.165 HD
ENDROOT
BRANCH   1  17
HETATM   17  C5  UNL     1      -7.768  46.786 -29.397  1.00  0.00     0.143 C 
BRANCH  17  18
HETATM   18  C4  UNL     1      -7.379  47.512 -30.710  1.00  0.00     0.209 C 
BRANCH  18  19
HETATM   19  O3  UNL     1      -7.104  46.550 -31.749  1.00  0.00    -0.317 OA
BRANCH  19  20
HETATM   20  C3  UNL     1      -6.377  46.992 -32.813  1.00  0.00     0.282 C 
HETATM   21  O2  UNL     1      -6.812  47.664 -33.739  1.00  0.00    -0.263 OA
BRANCH  20  22
HETATM   22  C2  UNL     1      -4.941  46.480 -32.746  1.00  0.00     0.277 C 
BRANCH  22  23
HETATM   23  O1  UNL     1      -3.911  47.443 -32.582  1.00  0.00    -0.386 OA
HETATM   24  C1  UNL     1      -3.292  47.795 -33.812  1.00  0.00     0.202 C 
ENDBRANCH  22  23
ENDBRANCH  20  22
ENDBRANCH  19  20
ENDBRANCH  18  19
ENDBRANCH  17  18
BRANCH  17  25
HETATM   25  C19 UNL     1      -9.202  47.106 -28.991  1.00  0.00    -0.032 A 
HETATM   26  C20 UNL     1     -10.139  47.491 -29.965  1.00  0.00     0.012 A 
HETATM   27  C21 UNL     1     -11.449  47.805 -29.602  1.00  0.00     0.044 A 
HETATM   28  C22 UNL     1     -11.832  47.731 -28.266  1.00  0.00     0.138 A 
HETATM   29  F1  UNL     1     -13.096  48.033 -27.944  1.00  0.00    -0.204 F 
HETATM   30  C23 UNL     1     -10.920  47.348 -27.286  1.00  0.00     0.073 A 
HETATM   31 CL1  UNL     1     -11.394  47.247 -25.635  1.00  0.00    -0.081 Cl
HETATM   32  C24 UNL     1      -9.609  47.037 -27.644  1.00  0.00     0.036 A 
ENDBRANCH  17  25
ENDBRANCH   1  17
BRANCH  11  33
HETATM   33  N4  UNL     1      -4.878  48.460 -21.301  1.00  0.00    -0.259 NA
HETATM   34  H15 UNL     1      -5.525  49.241 -21.225  1.00  0.00     0.131 HD
BRANCH  33  35
HETATM   35  C12 UNL     1      -5.352  47.201 -20.728  1.00  0.00     0.067 C 
HETATM   36  C13 UNL     1      -5.923  47.374 -19.311  1.00  0.00     0.046 C 
HETATM   37  C14 UNL     1      -5.648  46.146 -18.453  1.00  0.00     0.169 C 
HETATM   38  O5  UNL     1      -5.870  44.966 -19.221  1.00  0.00    -0.391 OA
HETATM   39  C15 UNL     1      -4.899  44.774 -20.254  1.00  0.00     0.169 C 
HETATM   40  C16 UNL     1      -4.323  46.072 -20.816  1.00  0.00     0.046 C 
ENDBRANCH  33  35
ENDBRANCH  11  33
TORSDOF 9
ENDMDL
MODEL 8
REMARK minimizedAffinity -7.09697723
REMARK CNNscore 0.125607431
REMARK CNNaffinity 6.11282969
REMARK  9 active torsions:
REMARK  status: ('A' for Active; 'I' for Inactive)
REMARK    1  A    between atoms: O1_2  and  C2_3 
REMARK    2  A    between atoms: C2_3  and  C3_4 
REMARK    3  A    between atoms: C3_4  and  O3_6 
REMARK    4  A    between atoms: O3_6  and  C4_7 
REMARK    5  A    between atoms: C4_7  and  C5_8 
REMARK    6  A    between atoms: C5_8  and  N1_9 
REMARK    7  A    between atoms: C5_8  and  C19_31 
REMARK       I    between atoms: N1_9  and  C6_10 
REMARK       I    between atoms: C6_10  and  N2_12 
REMARK    8  A    between atoms: C11_19  and  N4_20 
REMARK    9  A    between atoms: N4_20  and  C12_21 
ROOT
HETATM    1  N1  UNL     1      -0.776  50.967 -14.039  1.00  0.00    -0.332 N 
HETATM    2  C6  UNL     1       0.485  51.307 -14.458  1.00  0.00     0.319 C 
HETATM    3  O4  UNL     1       1.459  51.257 -13.715  1.00  0.00    -0.247 OA
HETATM    4  N2  UNL     1       0.560  51.696 -15.789  1.00  0.00    -0.328 N 
HETATM    5  C7  UNL     1       1.891  52.015 -16.301  1.00  0.00     0.132 C 
HETATM    6  C8  UNL     1       1.828  52.966 -17.496  1.00  0.00     0.062 C 
HETATM    7  C9  UNL     1       0.849  52.489 -18.520  1.00  0.00    -0.017 A 
HETATM    8  C10 UNL     1       0.897  52.880 -19.838  1.00  0.00     0.099 A 
HETATM    9  N3  UNL     1       0.012  52.475 -20.767  1.00  0.00    -0.342 N 
ATOM     10  H3  UNL     1       0.085  52.776 -21.739  1.00  0.00     0.167 HD
HETATM   11  C11 UNL     1      -0.968  51.662 -20.361  1.00  0.00     0.157 A 
HETATM   12  N5  UNL     1      -1.107  51.238 -19.099  1.00  0.00    -0.334 N 
ATOM     13  H5  UNL     1      -1.869  50.615 -18.835  1.00  0.00     0.168 HD
HETATM   14  C17 UNL     1      -0.205  51.663 -18.187  1.00  0.00     0.037 A 
HETATM   15  C18 UNL     1      -0.393  51.169 -16.773  1.00  0.00     0.185 C 
HETATM   16  H9  UNL     1      -1.485  51.585 -14.411  1.00  0.00     0.165 HD
ENDROOT
BRANCH   1  17
HETATM   17  C5  UNL     1      -1.005  50.546 -12.657  1.00  0.00     0.143 C 
BRANCH  17  18
HETATM   18  C4  UNL     1      -1.592  49.115 -12.558  1.00  0.00     0.209 C 
BRANCH  18  19
HETATM   19  O3  UNL     1      -0.645  48.152 -13.065  1.00  0.00    -0.317 OA
BRANCH  19  20
HETATM   20  C3  UNL     1      -1.148  46.945 -13.449  1.00  0.00     0.282 C 
HETATM   21  O2  UNL     1      -2.294  46.561 -13.257  1.00  0.00    -0.263 OA
BRANCH  20  22
HETATM   22  C2  UNL     1      -0.070  46.085 -14.103  1.00  0.00     0.277 C 
BRANCH  22  23
HETATM   23  O1  UNL     1       1.267  46.263 -13.658  1.00  0.00    -0.386 OA
HETATM   24  C1  UNL     1       2.183  46.419 -14.732  1.00  0.00     0.202 C 
ENDBRANCH  22  23
ENDBRANCH  20  22
ENDBRANCH  19  20
ENDBRANCH  18  19
ENDBRANCH  17  18
BRANCH  17  25
HETATM   25  C19 UNL     1      -1.904  51.562 -11.964  1.00  0.00    -0.032 A 
HETATM   26  C20 UNL     1      -3.277  51.302 -11.817  1.00  0.00     0.012 A 
HETATM   27  C21 UNL     1      -4.112  52.234 -11.200  1.00  0.00     0.044 A 
HETATM   28  C22 UNL     1      -3.580  53.428 -10.722  1.00  0.00     0.138 A 
HETATM   29  F1  UNL     1      -4.402  54.305 -10.131  1.00  0.00    -0.204 F 
HETATM   30  C23 UNL     1      -2.223  53.704 -10.855  1.00  0.00     0.073 A 
HETATM   31 CL1  UNL     1      -1.562  55.177 -10.258  1.00  0.00    -0.081 Cl
HETATM   32  C24 UNL     1      -1.385  52.777 -11.474  1.00  0.00     0.036 A 
ENDBRANCH  17  25
ENDBRANCH   1  17
BRANCH  11  33
HETATM   33  N4  UNL     1      -1.848  51.259 -21.346  1.00  0.00    -0.259 NA
HETATM   34  H15 UNL     1      -2.755  51.188 -20.890  1.00  0.00     0.131 HD
BRANCH  33  35
HETATM   35  C12 UNL     1      -1.856  51.922 -22.649  1.00  0.00     0.067 C 
HETATM   36  C13 UNL     1      -3.266  52.352 -23.085  1.00  0.00     0.046 C 
HETATM   37  C14 UNL     1      -3.427  52.258 -24.597  1.00  0.00     0.169 C 
HETATM   38  O5  UNL     1      -2.251  52.750 -25.235  1.00  0.00    -0.391 OA
HETATM   39  C15 UNL     1      -1.112  51.906 -25.050  1.00  0.00     0.169 C 
HETATM   40  C16 UNL     1      -1.116  51.134 -23.732  1.00  0.00     0.046 C 
ENDBRANCH  33  35
ENDBRANCH  11  33
TORSDOF 9
ENDMDL
MODEL 9
REMARK minimizedAffinity -7.10451555
REMARK CNNscore 0.124251515
REMARK CNNaffinity 5.5583787
REMARK  9 active torsions:
REMARK  status: ('A' for Active; 'I' for Inactive)
REMARK    1  A    between atoms: O1_2  and  C2_3 
REMARK    2  A    between atoms: C2_3  and  C3_4 
REMARK    3  A    between atoms: C3_4  and  O3_6 
REMARK    4  A    between atoms: O3_6  and  C4_7 
REMARK    5  A    between atoms: C4_7  and  C5_8 
REMARK    6  A    between atoms: C5_8  and  N1_9 
REMARK    7  A    between atoms: C5_8  and  C19_31 
REMARK       I    between atoms: N1_9  and  C6_10 
REMARK       I    between atoms: C6_10  and  N2_12 
REMARK    8  A    between atoms: C11_19  and  N4_20 
REMARK    9  A    between atoms: N4_20  and  C12_21 
ROOT
HETATM    1  N1  UNL     1      -2.988  50.791 -22.676  1.00  0.00    -0.332 N 
HETATM    2  C6  UNL     1      -4.357  50.713 -22.684  1.00  0.00     0.319 C 
HETATM    3  O4  UNL     1      -5.035  51.184 -23.591  1.00  0.00    -0.247 OA
HETATM    4  N2  UNL     1      -4.900  50.051 -21.591  1.00  0.00    -0.328 N 
HETATM    5  C7  UNL     1      -6.352  49.893 -21.580  1.00  0.00     0.132 C 
HETATM    6  C8  UNL     1      -6.895  49.727 -20.161  1.00  0.00     0.062 C 
HETATM    7  C9  UNL     1      -6.135  48.686 -19.405  1.00  0.00    -0.017 A 
HETATM    8  C10 UNL     1      -6.650  48.035 -18.308  1.00  0.00     0.099 A 
HETATM    9  N3  UNL     1      -5.971  47.109 -17.605  1.00  0.00    -0.342 N 
ATOM     10  H3  UNL     1      -6.389  46.637 -16.803  1.00  0.00     0.167 HD
HETATM   11  C11 UNL     1      -4.725  46.836 -18.004  1.00  0.00     0.157 A 
HETATM   12  N5  UNL     1      -4.132  47.426 -19.049  1.00  0.00    -0.334 N 
ATOM     13  H5  UNL     1      -3.179  47.183 -19.319  1.00  0.00     0.168 HD
HETATM   14  C17 UNL     1      -4.837  48.353 -19.734  1.00  0.00     0.037 A 
HETATM   15  C18 UNL     1      -4.137  49.001 -20.904  1.00  0.00     0.185 C 
HETATM   16  H9  UNL     1      -2.619  50.980 -21.754  1.00  0.00     0.165 HD
ENDROOT
BRANCH   1  17
HETATM   17  C5  UNL     1      -2.281  51.468 -23.762  1.00  0.00     0.143 C 
BRANCH  17  18
HETATM   18  C4  UNL     1      -1.831  50.496 -24.881  1.00  0.00     0.209 C 
BRANCH  18  19
HETATM   19  O3  UNL     1      -2.880  50.340 -25.859  1.00  0.00    -0.317 OA
BRANCH  19  20
HETATM   20  C3  UNL     1      -2.565  50.648 -27.148  1.00  0.00     0.282 C 
HETATM   21  O2  UNL     1      -3.106  50.180 -28.140  1.00  0.00    -0.263 OA
BRANCH  20  22
HETATM   22  C2  UNL     1      -1.385  51.616 -27.207  1.00  0.00     0.277 C 
BRANCH  22  23
HETATM   23  O1  UNL     1      -1.677  52.990 -27.412  1.00  0.00    -0.386 OA
HETATM   24  C1  UNL     1      -0.546  53.727 -27.854  1.00  0.00     0.202 C 
ENDBRANCH  22  23
ENDBRANCH  20  22
ENDBRANCH  19  20
ENDBRANCH  18  19
ENDBRANCH  17  18
BRANCH  17  25
HETATM   25  C19 UNL     1      -1.097  52.238 -23.188  1.00  0.00    -0.032 A 
HETATM   26  C20 UNL     1      -0.240  52.949 -24.045  1.00  0.00     0.012 A 
HETATM   27  C21 UNL     1       0.858  53.641 -23.532  1.00  0.00     0.044 A 
HETATM   28  C22 UNL     1       1.101  53.633 -22.162  1.00  0.00     0.138 A 
HETATM   29  F1  UNL     1       2.159  54.309 -21.695  1.00  0.00    -0.204 F 
HETATM   30  C23 UNL     1       0.261  52.938 -21.296  1.00  0.00     0.073 A 
HETATM   31 CL1  UNL     1       0.556  52.934 -19.601  1.00  0.00    -0.081 Cl
HETATM   32  C24 UNL     1      -0.834  52.242 -21.804  1.00  0.00     0.036 A 
ENDBRANCH  17  25
ENDBRANCH   1  17
BRANCH  11  33
HETATM   33  N4  UNL     1      -4.065  45.872 -17.266  1.00  0.00    -0.259 NA
HETATM   34  H15 UNL     1      -4.657  45.693 -16.458  1.00  0.00     0.131 HD
BRANCH  33  35
HETATM   35  C12 UNL     1      -3.527  44.679 -17.919  1.00  0.00     0.067 C 
HETATM   36  C13 UNL     1      -4.566  43.968 -18.801  1.00  0.00     0.046 C 
HETATM   37  C14 UNL     1      -4.354  42.460 -18.794  1.00  0.00     0.169 C 
HETATM   38  O5  UNL     1      -2.961  42.172 -18.881  1.00  0.00    -0.391 OA
HETATM   39  C15 UNL     1      -2.234  42.535 -17.703  1.00  0.00     0.169 C 
HETATM   40  C16 UNL     1      -2.822  43.727 -16.951  1.00  0.00     0.046 C 
ENDBRANCH  33  35
ENDBRANCH  11  33
TORSDOF 9
ENDMDL
