MODEL 1
REMARK minimizedAffinity -8.60400867
REMARK CNNscore 0.659277856
REMARK CNNaffinity 6.8413887
REMARK  7 active torsions:
REMARK  status: ('A' for Active; 'I' for Inactive)
REMARK       I    between atoms: C1_2  and  N1_3 
REMARK    1  A    between atoms: C1_2  and  C8_12 
REMARK    2  A    between atoms: N1_3  and  C2_4 
REMARK    3  A    between atoms: C5_7  and  O2_8 
REMARK    4  A    between atoms: N2_15  and  C11_16 
REMARK    5  A    between atoms: C11_16  and  C12_17 
REMARK       I    between atoms: C12_17  and  N3_19 
REMARK    6  A    between atoms: N4_22  and  C15_23 
REMARK    7  A    between atoms: C18_26  and  C19_27 
ROOT
HETATM    1  C12 UNL     1      -3.355  48.708 -24.118  1.00  0.00     0.248 C 
HETATM    2  O3  UNL     1      -2.165  49.032 -24.176  1.00  0.00    -0.271 OA
HETATM    3  N3  UNL     1      -4.120  48.540 -25.272  1.00  0.00    -0.348 N 
HETATM    4  C13 UNL     1      -5.568  48.290 -25.262  1.00  0.00     0.140 C 
HETATM    5  C14 UNL     1      -6.072  47.612 -26.550  1.00  0.00     0.115 C 
HETATM    6  N4  UNL     1      -5.614  48.353 -27.738  1.00  0.00    -0.280 NA
HETATM    7  C25 UNL     1      -4.133  48.450 -27.792  1.00  0.00     0.115 C 
HETATM    8  C26 UNL     1      -3.591  49.121 -26.516  1.00  0.00     0.140 C 
ENDROOT
BRANCH   1   9
HETATM    9  C11 UNL     1      -4.058  48.455 -22.766  1.00  0.00     0.374 C 
BRANCH   9  10
HETATM   10  N2  UNL     1      -3.098  48.522 -21.652  1.00  0.00     0.098 N 
HETATM   11  C10 UNL     1      -2.745  47.205 -21.121  1.00  0.00     0.274 C 
HETATM   12  C9  UNL     1      -2.079  47.534 -19.787  1.00  0.00     0.046 C 
HETATM   13  C8  UNL     1      -2.561  48.942 -19.433  1.00  0.00     0.108 C 
HETATM   14  C27 UNL     1      -3.611  49.269 -20.490  1.00  0.00     0.287 C 
BRANCH  13  15
HETATM   15  C1  UNL     1      -1.400  49.939 -19.444  1.00  0.00     0.228 C 
HETATM   16  O1  UNL     1      -0.376  49.698 -18.808  1.00  0.00    -0.273 OA
HETATM   17  N1  UNL     1      -1.612  51.033 -20.264  1.00  0.00    -0.327 N 
HETATM   18  H1  UNL     1      -2.563  51.134 -20.625  1.00  0.00     0.169 HD
BRANCH  17  19
HETATM   19  C2  UNL     1      -0.699  52.039 -20.633  1.00  0.00     0.037 A 
HETATM   20  C3  UNL     1      -0.137  52.953 -19.739  1.00  0.00     0.032 A 
HETATM   21  C4  UNL     1       0.818  53.882 -20.171  1.00  0.00     0.042 A 
HETATM   22  C5  UNL     1       1.195  53.907 -21.509  1.00  0.00     0.104 A 
HETATM   23  C6  UNL     1       0.607  53.026 -22.413  1.00  0.00     0.151 A 
HETATM   24  F1  UNL     1       0.958  53.049 -23.709  1.00  0.00    -0.203 F 
HETATM   25  C7  UNL     1      -0.329  52.091 -21.982  1.00  0.00     0.074 A 
BRANCH  22  26
HETATM   26  O2  UNL     1       2.147  54.783 -21.949  1.00  0.00    -0.358 OA
HETATM   27  H4  UNL     1       2.515  55.260 -21.187  1.00  0.00     0.217 HD
ENDBRANCH  22  26
ENDBRANCH  17  19
ENDBRANCH  13  15
ENDBRANCH   9  10
ENDBRANCH   1   9
BRANCH   6  28
HETATM   28  C15 UNL     1      -6.183  48.012 -28.977  1.00  0.00     0.010 A 
HETATM   29  C16 UNL     1      -5.355  47.891 -30.101  1.00  0.00     0.024 A 
HETATM   30  C17 UNL     1      -5.866  47.551 -31.361  1.00  0.00     0.017 A 
HETATM   31  C18 UNL     1      -7.237  47.321 -31.559  1.00  0.00     0.008 A 
HETATM   32  C23 UNL     1      -8.067  47.461 -30.435  1.00  0.00     0.017 A 
HETATM   33  C24 UNL     1      -7.554  47.804 -29.174  1.00  0.00     0.024 A 
BRANCH  31  34
HETATM   34  C19 UNL     1      -7.783  46.957 -32.881  1.00  0.00     0.115 A 
HETATM   35  N5  UNL     1      -8.604  45.889 -32.952  1.00  0.00    -0.352 N 
HETATM   36  C20 UNL     1      -9.094  45.582 -34.168  1.00  0.00     0.091 A 
ATOM     37  H5  UNL     1      -8.841  45.341 -32.125  1.00  0.00     0.166 HD
HETATM   38  C21 UNL     1      -8.794  46.287 -35.308  1.00  0.00     0.034 A 
HETATM   39  C22 UNL     1      -7.949  47.356 -35.135  1.00  0.00     0.091 A 
HETATM   40  N6  UNL     1      -7.436  47.714 -33.943  1.00  0.00    -0.352 N 
ATOM     41  H6  UNL     1      -6.815  48.518 -33.847  1.00  0.00     0.166 HD
ENDBRANCH  31  34
ENDBRANCH   6  28
TORSDOF 7
ENDMDL
MODEL 2
REMARK minimizedAffinity -8.55766106
REMARK CNNscore 0.30559364
REMARK CNNaffinity 5.37964249
REMARK  7 active torsions:
REMARK  status: ('A' for Active; 'I' for Inactive)
REMARK       I    between atoms: C1_2  and  N1_3 
REMARK    1  A    between atoms: C1_2  and  C8_12 
REMARK    2  A    between atoms: N1_3  and  C2_4 
REMARK    3  A    between atoms: C5_7  and  O2_8 
REMARK    4  A    between atoms: N2_15  and  C11_16 
REMARK    5  A    between atoms: C11_16  and  C12_17 
REMARK       I    between atoms: C12_17  and  N3_19 
REMARK    6  A    between atoms: N4_22  and  C15_23 
REMARK    7  A    between atoms: C18_26  and  C19_27 
ROOT
HETATM    1  C12 UNL     1      -9.447  46.566 -22.969  1.00  0.00     0.248 C 
HETATM    2  O3  UNL     1     -10.389  46.393 -23.748  1.00  0.00    -0.271 OA
HETATM    3  N3  UNL     1      -8.210  47.027 -23.416  1.00  0.00    -0.348 N 
HETATM    4  C13 UNL     1      -7.017  47.122 -22.562  1.00  0.00     0.140 C 
HETATM    5  C14 UNL     1      -5.977  48.131 -23.088  1.00  0.00     0.115 C 
HETATM    6  N4  UNL     1      -5.665  47.862 -24.502  1.00  0.00    -0.280 NA
HETATM    7  C25 UNL     1      -6.877  47.928 -25.358  1.00  0.00     0.115 C 
HETATM    8  C26 UNL     1      -7.942  46.934 -24.861  1.00  0.00     0.140 C 
ENDROOT
BRANCH   1   9
HETATM    9  C11 UNL     1      -9.592  46.299 -21.454  1.00  0.00     0.374 C 
BRANCH   9  10
HETATM   10  N2  UNL     1     -10.835  46.891 -20.932  1.00  0.00     0.098 N 
HETATM   11  C10 UNL     1     -10.628  47.670 -19.711  1.00  0.00     0.274 C 
HETATM   12  C9  UNL     1     -12.043  47.846 -19.165  1.00  0.00     0.046 C 
HETATM   13  C8  UNL     1     -12.868  46.737 -19.823  1.00  0.00     0.108 C 
HETATM   14  C27 UNL     1     -11.847  45.884 -20.567  1.00  0.00     0.287 C 
BRANCH  13  15
HETATM   15  C1  UNL     1     -13.925  47.324 -20.762  1.00  0.00     0.228 C 
HETATM   16  O1  UNL     1     -13.925  48.528 -21.012  1.00  0.00    -0.273 OA
HETATM   17  N1  UNL     1     -14.773  46.378 -21.308  1.00  0.00    -0.327 N 
HETATM   18  H1  UNL     1     -14.708  45.442 -20.901  1.00  0.00     0.169 HD
BRANCH  17  19
HETATM   19  C2  UNL     1     -15.733  46.547 -22.323  1.00  0.00     0.037 A 
HETATM   20  C3  UNL     1     -15.439  46.997 -23.612  1.00  0.00     0.032 A 
HETATM   21  C4  UNL     1     -16.440  47.073 -24.590  1.00  0.00     0.042 A 
HETATM   22  C5  UNL     1     -17.743  46.715 -24.266  1.00  0.00     0.104 A 
HETATM   23  C6  UNL     1     -18.051  46.306 -22.970  1.00  0.00     0.151 A 
HETATM   24  F1  UNL     1     -19.309  45.967 -22.647  1.00  0.00    -0.203 F 
HETATM   25  C7  UNL     1     -17.055  46.214 -22.004  1.00  0.00     0.074 A 
BRANCH  22  26
HETATM   26  O2  UNL     1     -18.732  46.751 -25.209  1.00  0.00    -0.358 OA
HETATM   27  H4  UNL     1     -18.339  46.971 -26.071  1.00  0.00     0.217 HD
ENDBRANCH  22  26
ENDBRANCH  17  19
ENDBRANCH  13  15
ENDBRANCH   9  10
ENDBRANCH   1   9
BRANCH   6  28
HETATM   28  C15 UNL     1      -4.564  48.532 -25.063  1.00  0.00     0.010 A 
HETATM   29  C16 UNL     1      -3.798  49.385 -24.257  1.00  0.00     0.024 A 
HETATM   30  C17 UNL     1      -2.687  50.076 -24.761  1.00  0.00     0.017 A 
HETATM   31  C18 UNL     1      -2.293  49.952 -26.102  1.00  0.00     0.008 A 
HETATM   32  C23 UNL     1      -3.074  49.111 -26.912  1.00  0.00     0.017 A 
HETATM   33  C24 UNL     1      -4.187  48.422 -26.407  1.00  0.00     0.024 A 
BRANCH  31  34
HETATM   34  C19 UNL     1      -1.122  50.672 -26.639  1.00  0.00     0.115 A 
HETATM   35  N5  UNL     1       0.025  50.628 -25.930  1.00  0.00    -0.352 N 
HETATM   36  C20 UNL     1       1.081  51.286 -26.446  1.00  0.00     0.091 A 
ATOM     37  H5  UNL     1       0.089  50.120 -25.047  1.00  0.00     0.166 HD
HETATM   38  C21 UNL     1       1.037  51.987 -27.626  1.00  0.00     0.034 A 
HETATM   39  C22 UNL     1      -0.175  51.975 -28.273  1.00  0.00     0.091 A 
HETATM   40  N6  UNL     1      -1.260  51.328 -27.810  1.00  0.00    -0.352 N 
ATOM     41  H6  UNL     1      -2.144  51.334 -28.319  1.00  0.00     0.166 HD
ENDBRANCH  31  34
ENDBRANCH   6  28
TORSDOF 7
ENDMDL
MODEL 3
REMARK minimizedAffinity -8.1375227
REMARK CNNscore 0.28980422
REMARK CNNaffinity 6.7736392
REMARK  7 active torsions:
REMARK  status: ('A' for Active; 'I' for Inactive)
REMARK       I    between atoms: C1_2  and  N1_3 
REMARK    1  A    between atoms: C1_2  and  C8_12 
REMARK    2  A    between atoms: N1_3  and  C2_4 
REMARK    3  A    between atoms: C5_7  and  O2_8 
REMARK    4  A    between atoms: N2_15  and  C11_16 
REMARK    5  A    between atoms: C11_16  and  C12_17 
REMARK       I    between atoms: C12_17  and  N3_19 
REMARK    6  A    between atoms: N4_22  and  C15_23 
REMARK    7  A    between atoms: C18_26  and  C19_27 
ROOT
HETATM    1  C12 UNL     1      -5.024  47.043 -21.264  1.00  0.00     0.248 C 
HETATM    2  O3  UNL     1      -4.973  45.817 -21.404  1.00  0.00    -0.271 OA
HETATM    3  N3  UNL     1      -4.315  47.688 -20.252  1.00  0.00    -0.348 N 
HETATM    4  C13 UNL     1      -4.443  49.122 -19.952  1.00  0.00     0.140 C 
HETATM    5  C14 UNL     1      -3.219  49.696 -19.213  1.00  0.00     0.115 C 
HETATM    6  N4  UNL     1      -2.898  48.877 -18.032  1.00  0.00    -0.280 NA
HETATM    7  C25 UNL     1      -2.622  47.463 -18.396  1.00  0.00     0.115 C 
HETATM    8  C26 UNL     1      -3.825  46.856 -19.141  1.00  0.00     0.140 C 
ENDROOT
BRANCH   1   9
HETATM    9  C11 UNL     1      -5.860  47.930 -22.212  1.00  0.00     0.374 C 
BRANCH   9  10
HETATM   10  N2  UNL     1      -4.992  48.790 -23.033  1.00  0.00     0.098 N 
HETATM   11  C10 UNL     1      -5.416  48.862 -24.432  1.00  0.00     0.274 C 
HETATM   12  C9  UNL     1      -4.199  49.461 -25.134  1.00  0.00     0.046 C 
HETATM   13  C8  UNL     1      -3.022  49.205 -24.190  1.00  0.00     0.108 C 
HETATM   14  C27 UNL     1      -3.597  48.321 -23.087  1.00  0.00     0.287 C 
BRANCH  13  15
HETATM   15  C1  UNL     1      -2.461  50.519 -23.642  1.00  0.00     0.228 C 
HETATM   16  O1  UNL     1      -3.141  51.543 -23.685  1.00  0.00    -0.273 OA
HETATM   17  N1  UNL     1      -1.208  50.396 -23.070  1.00  0.00    -0.327 N 
HETATM   18  H1  UNL     1      -0.740  49.500 -23.227  1.00  0.00     0.169 HD
BRANCH  17  19
HETATM   19  C2  UNL     1      -0.485  51.353 -22.334  1.00  0.00     0.037 A 
HETATM   20  C3  UNL     1       0.282  52.368 -22.910  1.00  0.00     0.032 A 
HETATM   21  C4  UNL     1       0.918  53.326 -22.111  1.00  0.00     0.042 A 
HETATM   22  C5  UNL     1       0.800  53.253 -20.727  1.00  0.00     0.104 A 
HETATM   23  C6  UNL     1       0.071  52.218 -20.145  1.00  0.00     0.151 A 
HETATM   24  F1  UNL     1      -0.040  52.135 -18.810  1.00  0.00    -0.203 F 
HETATM   25  C7  UNL     1      -0.575  51.276 -20.939  1.00  0.00     0.074 A 
BRANCH  22  26
HETATM   26  O2  UNL     1       1.386  54.193 -19.927  1.00  0.00    -0.358 OA
HETATM   27  H4  UNL     1       1.778  54.885 -20.485  1.00  0.00     0.217 HD
ENDBRANCH  22  26
ENDBRANCH  17  19
ENDBRANCH  13  15
ENDBRANCH   9  10
ENDBRANCH   1   9
BRANCH   6  28
HETATM   28  C15 UNL     1      -1.966  49.395 -17.115  1.00  0.00     0.010 A 
HETATM   29  C16 UNL     1      -2.421  50.175 -16.044  1.00  0.00     0.024 A 
HETATM   30  C17 UNL     1      -1.539  50.716 -15.098  1.00  0.00     0.017 A 
HETATM   31  C18 UNL     1      -0.153  50.506 -15.183  1.00  0.00     0.008 A 
HETATM   32  C23 UNL     1       0.301  49.739 -16.268  1.00  0.00     0.017 A 
HETATM   33  C24 UNL     1      -0.583  49.201 -17.216  1.00  0.00     0.024 A 
BRANCH  31  34
HETATM   34  C19 UNL     1       0.782  51.067 -14.188  1.00  0.00     0.115 A 
HETATM   35  N5  UNL     1       2.104  50.942 -14.425  1.00  0.00    -0.352 N 
HETATM   36  C20 UNL     1       2.936  51.469 -13.506  1.00  0.00     0.091 A 
ATOM     37  H5  UNL     1       2.456  50.472 -15.259  1.00  0.00     0.166 HD
HETATM   38  C21 UNL     1       2.505  52.102 -12.366  1.00  0.00     0.034 A 
HETATM   39  C22 UNL     1       1.142  52.177 -12.212  1.00  0.00     0.091 A 
HETATM   40  N6  UNL     1       0.264  51.677 -13.101  1.00  0.00    -0.352 N 
ATOM     41  H6  UNL     1      -0.744  51.755 -12.960  1.00  0.00     0.166 HD
ENDBRANCH  31  34
ENDBRANCH   6  28
TORSDOF 7
ENDMDL
MODEL 4
REMARK minimizedAffinity -8.07545376
REMARK CNNscore 0.257549465
REMARK CNNaffinity 5.33466864
REMARK  7 active torsions:
REMARK  status: ('A' for Active; 'I' for Inactive)
REMARK       I    between atoms: C1_2  and  N1_3 
REMARK    1  A    between atoms: C1_2  and  C8_12 
REMARK    2  A    between atoms: N1_3  and  C2_4 
REMARK    3  A    between atoms: C5_7  and  O2_8 
REMARK    4  A    between atoms: N2_15  and  C11_16 
REMARK    5  A    between atoms: C11_16  and  C12_17 
REMARK       I    between atoms: C12_17  and  N3_19 
REMARK    6  A    between atoms: N4_22  and  C15_23 
REMARK    7  A    between atoms: C18_26  and  C19_27 
ROOT
HETATM    1  C12 UNL     1      -9.847  46.067 -30.972  1.00  0.00     0.248 C 
HETATM    2  O3  UNL     1     -10.145  46.810 -31.913  1.00  0.00    -0.271 OA
HETATM    3  N3  UNL     1      -8.833  46.399 -30.076  1.00  0.00    -0.348 N 
HETATM    4  C13 UNL     1      -8.346  45.497 -29.023  1.00  0.00     0.140 C 
HETATM    5  C14 UNL     1      -7.658  46.239 -27.861  1.00  0.00     0.115 C 
HETATM    6  N4  UNL     1      -6.624  47.155 -28.373  1.00  0.00    -0.280 NA
HETATM    7  C25 UNL     1      -7.187  48.153 -29.318  1.00  0.00     0.115 C 
HETATM    8  C26 UNL     1      -7.886  47.446 -30.493  1.00  0.00     0.140 C 
ENDROOT
BRANCH   1   9
HETATM    9  C11 UNL     1     -10.595  44.737 -30.727  1.00  0.00     0.374 C 
BRANCH   9  10
HETATM   10  N2  UNL     1     -11.833  44.962 -29.963  1.00  0.00     0.098 N 
HETATM   11  C10 UNL     1     -12.145  46.380 -29.784  1.00  0.00     0.274 C 
HETATM   12  C9  UNL     1     -13.202  46.368 -28.682  1.00  0.00     0.046 C 
HETATM   13  C8  UNL     1     -13.033  45.021 -27.977  1.00  0.00     0.108 C 
HETATM   14  C27 UNL     1     -11.779  44.415 -28.597  1.00  0.00     0.287 C 
BRANCH  13  15
HETATM   15  C1  UNL     1     -14.265  44.136 -28.183  1.00  0.00     0.228 C 
HETATM   16  O1  UNL     1     -14.156  42.912 -28.145  1.00  0.00    -0.273 OA
HETATM   17  N1  UNL     1     -15.442  44.844 -28.335  1.00  0.00    -0.327 N 
HETATM   18  H1  UNL     1     -15.335  45.854 -28.460  1.00  0.00     0.169 HD
BRANCH  17  19
HETATM   19  C2  UNL     1     -16.760  44.352 -28.375  1.00  0.00     0.037 A 
HETATM   20  C3  UNL     1     -17.228  43.441 -29.325  1.00  0.00     0.032 A 
HETATM   21  C4  UNL     1     -18.536  42.944 -29.257  1.00  0.00     0.042 A 
HETATM   22  C5  UNL     1     -19.383  43.379 -28.244  1.00  0.00     0.104 A 
HETATM   23  C6  UNL     1     -18.936  44.319 -27.319  1.00  0.00     0.151 A 
HETATM   24  F1  UNL     1     -19.751  44.751 -26.343  1.00  0.00    -0.203 F 
HETATM   25  C7  UNL     1     -17.632  44.800 -27.375  1.00  0.00     0.074 A 
BRANCH  22  26
HETATM   26  O2  UNL     1     -20.654  42.886 -28.138  1.00  0.00    -0.358 OA
HETATM   27  H4  UNL     1     -20.778  42.185 -28.799  1.00  0.00     0.217 HD
ENDBRANCH  22  26
ENDBRANCH  17  19
ENDBRANCH  13  15
ENDBRANCH   9  10
ENDBRANCH   1   9
BRANCH   6  28
HETATM   28  C15 UNL     1      -5.741  47.725 -27.440  1.00  0.00     0.010 A 
HETATM   29  C16 UNL     1      -4.473  48.146 -27.864  1.00  0.00     0.024 A 
HETATM   30  C17 UNL     1      -3.553  48.723 -26.979  1.00  0.00     0.017 A 
HETATM   31  C18 UNL     1      -3.855  48.903 -25.620  1.00  0.00     0.008 A 
HETATM   32  C23 UNL     1      -5.119  48.463 -25.194  1.00  0.00     0.017 A 
HETATM   33  C24 UNL     1      -6.039  47.882 -26.081  1.00  0.00     0.024 A 
BRANCH  31  34
HETATM   34  C19 UNL     1      -2.894  49.516 -24.683  1.00  0.00     0.115 A 
HETATM   35  N5  UNL     1      -2.180  50.575 -25.116  1.00  0.00    -0.352 N 
HETATM   36  C20 UNL     1      -1.315  51.121 -24.239  1.00  0.00     0.091 A 
ATOM     37  H5  UNL     1      -2.290  50.945 -26.060  1.00  0.00     0.166 HD
HETATM   38  C21 UNL     1      -1.130  50.650 -22.962  1.00  0.00     0.034 A 
HETATM   39  C22 UNL     1      -1.900  49.567 -22.615  1.00  0.00     0.091 A 
HETATM   40  N6  UNL     1      -2.786  48.987 -23.446  1.00  0.00    -0.352 N 
ATOM     41  H6  UNL     1      -3.348  48.187 -23.155  1.00  0.00     0.166 HD
ENDBRANCH  31  34
ENDBRANCH   6  28
TORSDOF 7
ENDMDL
MODEL 5
REMARK minimizedAffinity -7.7876811
REMARK CNNscore 0.24395594
REMARK CNNaffinity 6.44432068
REMARK  7 active torsions:
REMARK  status: ('A' for Active; 'I' for Inactive)
REMARK       I    between atoms: C1_2  and  N1_3 
REMARK    1  A    between atoms: C1_2  and  C8_12 
REMARK    2  A    between atoms: N1_3  and  C2_4 
REMARK    3  A    between atoms: C5_7  and  O2_8 
REMARK    4  A    between atoms: N2_15  and  C11_16 
REMARK    5  A    between atoms: C11_16  and  C12_17 
REMARK       I    between atoms: C12_17  and  N3_19 
REMARK    6  A    between atoms: N4_22  and  C15_23 
REMARK    7  A    between atoms: C18_26  and  C19_27 
ROOT
HETATM    1  C12 UNL     1      -1.765  49.905 -14.097  1.00  0.00     0.248 C 
HETATM    2  O3  UNL     1      -1.722  48.675 -13.999  1.00  0.00    -0.271 OA
HETATM    3  N3  UNL     1      -0.980  50.726 -13.289  1.00  0.00    -0.348 N 
HETATM    4  C13 UNL     1      -1.087  52.193 -13.268  1.00  0.00     0.140 C 
HETATM    5  C14 UNL     1       0.190  52.884 -12.753  1.00  0.00     0.115 C 
HETATM    6  N4  UNL     1       0.605  52.308 -11.463  1.00  0.00    -0.280 NA
HETATM    7  C25 UNL     1       0.855  50.847 -11.564  1.00  0.00     0.115 C 
HETATM    8  C26 UNL     1      -0.402  50.121 -12.079  1.00  0.00     0.140 C 
ENDROOT
BRANCH   1   9
HETATM    9  C11 UNL     1      -2.676  50.601 -15.133  1.00  0.00     0.374 C 
BRANCH   9  10
HETATM   10  N2  UNL     1      -2.167  50.402 -16.500  1.00  0.00     0.098 N 
HETATM   11  C10 UNL     1      -2.378  49.042 -16.997  1.00  0.00     0.274 C 
HETATM   12  C9  UNL     1      -1.462  48.971 -18.217  1.00  0.00     0.046 C 
HETATM   13  C8  UNL     1      -0.438  50.091 -18.018  1.00  0.00     0.108 C 
HETATM   14  C27 UNL     1      -0.715  50.623 -16.616  1.00  0.00     0.287 C 
BRANCH  13  15
HETATM   15  C1  UNL     1      -0.594  51.174 -19.088  1.00  0.00     0.228 C 
HETATM   16  O1  UNL     1      -1.177  52.222 -18.821  1.00  0.00    -0.273 OA
HETATM   17  N1  UNL     1       0.026  50.868 -20.286  1.00  0.00    -0.327 N 
HETATM   18  H1  UNL     1       0.362  49.906 -20.374  1.00  0.00     0.169 HD
BRANCH  17  19
HETATM   19  C2  UNL     1       0.221  51.697 -21.406  1.00  0.00     0.037 A 
HETATM   20  C3  UNL     1      -0.382  51.488 -22.649  1.00  0.00     0.032 A 
HETATM   21  C4  UNL     1      -0.194  52.398 -23.698  1.00  0.00     0.042 A 
HETATM   22  C5  UNL     1       0.618  53.510 -23.504  1.00  0.00     0.104 A 
HETATM   23  C6  UNL     1       1.255  53.701 -22.280  1.00  0.00     0.151 A 
HETATM   24  F1  UNL     1       2.048  54.767 -22.088  1.00  0.00    -0.203 F 
HETATM   25  C7  UNL     1       1.056  52.807 -21.233  1.00  0.00     0.074 A 
BRANCH  22  26
HETATM   26  O2  UNL     1       0.793  54.428 -24.501  1.00  0.00    -0.358 OA
HETATM   27  H4  UNL     1       0.219  54.196 -25.250  1.00  0.00     0.217 HD
ENDBRANCH  22  26
ENDBRANCH  17  19
ENDBRANCH  13  15
ENDBRANCH   9  10
ENDBRANCH   1   9
BRANCH   6  28
HETATM   28  C15 UNL     1       1.605  52.983 -10.741  1.00  0.00     0.010 A 
HETATM   29  C16 UNL     1       1.239  54.012  -9.863  1.00  0.00     0.024 A 
HETATM   30  C17 UNL     1       2.192  54.718  -9.115  1.00  0.00     0.017 A 
HETATM   31  C18 UNL     1       3.563  54.431  -9.216  1.00  0.00     0.008 A 
HETATM   32  C23 UNL     1       3.928  53.412 -10.111  1.00  0.00     0.017 A 
HETATM   33  C24 UNL     1       2.973  52.708 -10.861  1.00  0.00     0.024 A 
BRANCH  31  34
HETATM   34  C19 UNL     1       4.571  55.166  -8.428  1.00  0.00     0.115 A 
HETATM   35  N5  UNL     1       4.165  56.253  -7.740  1.00  0.00    -0.352 N 
HETATM   36  C20 UNL     1       5.103  56.901  -7.023  1.00  0.00     0.091 A 
ATOM     37  H5  UNL     1       3.195  56.568  -7.762  1.00  0.00     0.166 HD
HETATM   38  C21 UNL     1       6.420  56.516  -6.972  1.00  0.00     0.034 A 
HETATM   39  C22 UNL     1       6.737  55.399  -7.707  1.00  0.00     0.091 A 
HETATM   40  N6  UNL     1       5.841  54.708  -8.435  1.00  0.00    -0.352 N 
ATOM     41  H6  UNL     1       6.108  53.878  -8.965  1.00  0.00     0.166 HD
ENDBRANCH  31  34
ENDBRANCH   6  28
TORSDOF 7
ENDMDL
MODEL 6
REMARK minimizedAffinity -9.21344948
REMARK CNNscore 0.206245154
REMARK CNNaffinity 5.83254671
REMARK  7 active torsions:
REMARK  status: ('A' for Active; 'I' for Inactive)
REMARK       I    between atoms: C1_2  and  N1_3 
REMARK    1  A    between atoms: C1_2  and  C8_12 
REMARK    2  A    between atoms: N1_3  and  C2_4 
REMARK    3  A    between atoms: C5_7  and  O2_8 
REMARK    4  A    between atoms: N2_15  and  C11_16 
REMARK    5  A    between atoms: C11_16  and  C12_17 
REMARK       I    between atoms: C12_17  and  N3_19 
REMARK    6  A    between atoms: N4_22  and  C15_23 
REMARK    7  A    between atoms: C18_26  and  C19_27 
ROOT
HETATM    1  C12 UNL     1      -0.138  51.006 -15.320  1.00  0.00     0.248 C 
HETATM    2  O3  UNL     1      -0.924  50.136 -14.930  1.00  0.00    -0.271 OA
HETATM    3  N3  UNL     1       0.027  51.280 -16.677  1.00  0.00    -0.348 N 
HETATM    4  C13 UNL     1       1.041  52.203 -17.206  1.00  0.00     0.140 C 
HETATM    5  C14 UNL     1       0.688  52.753 -18.601  1.00  0.00     0.115 C 
HETATM    6  N4  UNL     1       0.360  51.653 -19.523  1.00  0.00    -0.280 NA
HETATM    7  C25 UNL     1      -0.775  50.834 -19.026  1.00  0.00     0.115 C 
HETATM    8  C26 UNL     1      -0.459  50.268 -17.629  1.00  0.00     0.140 C 
ENDROOT
BRANCH   1   9
HETATM    9  C11 UNL     1       0.692  51.848 -14.327  1.00  0.00     0.374 C 
BRANCH   9  10
HETATM   10  N2  UNL     1       1.741  51.033 -13.691  1.00  0.00     0.098 N 
HETATM   11  C10 UNL     1       1.919  49.730 -14.333  1.00  0.00     0.274 C 
HETATM   12  C9  UNL     1       2.739  48.947 -13.310  1.00  0.00     0.046 C 
HETATM   13  C8  UNL     1       2.524  49.674 -11.980  1.00  0.00     0.108 C 
HETATM   14  C27 UNL     1       1.456  50.721 -12.280  1.00  0.00     0.287 C 
BRANCH  13  15
HETATM   15  C1  UNL     1       3.826  50.304 -11.482  1.00  0.00     0.228 C 
HETATM   16  O1  UNL     1       4.905  49.927 -11.936  1.00  0.00    -0.273 OA
HETATM   17  N1  UNL     1       3.639  51.329 -10.573  1.00  0.00    -0.327 N 
HETATM   18  H1  UNL     1       2.686  51.432 -10.217  1.00  0.00     0.169 HD
BRANCH  17  19
HETATM   19  C2  UNL     1       4.594  52.221 -10.051  1.00  0.00     0.037 A 
HETATM   20  C3  UNL     1       5.765  51.822  -9.402  1.00  0.00     0.032 A 
HETATM   21  C4  UNL     1       6.702  52.770  -8.970  1.00  0.00     0.042 A 
HETATM   22  C5  UNL     1       6.454  54.123  -9.173  1.00  0.00     0.104 A 
HETATM   23  C6  UNL     1       5.269  54.528  -9.782  1.00  0.00     0.151 A 
HETATM   24  F1  UNL     1       5.016  55.833  -9.974  1.00  0.00    -0.203 F 
HETATM   25  C7  UNL     1       4.345  53.587 -10.226  1.00  0.00     0.074 A 
BRANCH  22  26
HETATM   26  O2  UNL     1       7.366  55.065  -8.789  1.00  0.00    -0.358 OA
HETATM   27  H4  UNL     1       8.166  54.618  -8.465  1.00  0.00     0.217 HD
ENDBRANCH  22  26
ENDBRANCH  17  19
ENDBRANCH  13  15
ENDBRANCH   9  10
ENDBRANCH   1   9
BRANCH   6  28
HETATM   28  C15 UNL     1       0.253  51.960 -20.891  1.00  0.00     0.010 A 
HETATM   29  C16 UNL     1      -0.601  51.197 -21.699  1.00  0.00     0.024 A 
HETATM   30  C17 UNL     1      -0.750  51.459 -23.068  1.00  0.00     0.017 A 
HETATM   31  C18 UNL     1      -0.045  52.497 -23.698  1.00  0.00     0.008 A 
HETATM   32  C23 UNL     1       0.823  53.248 -22.888  1.00  0.00     0.017 A 
HETATM   33  C24 UNL     1       0.974  52.983 -21.518  1.00  0.00     0.024 A 
BRANCH  31  34
HETATM   34  C19 UNL     1      -0.201  52.783 -25.137  1.00  0.00     0.115 A 
HETATM   35  N5  UNL     1       0.114  54.021 -25.571  1.00  0.00    -0.352 N 
HETATM   36  C20 UNL     1      -0.030  54.254 -26.890  1.00  0.00     0.091 A 
ATOM     37  H5  UNL     1       0.445  54.745 -24.932  1.00  0.00     0.166 HD
HETATM   38  C21 UNL     1      -0.478  53.313 -27.783  1.00  0.00     0.034 A 
HETATM   39  C22 UNL     1      -0.775  52.084 -27.246  1.00  0.00     0.091 A 
HETATM   40  N6  UNL     1      -0.643  51.792 -25.939  1.00  0.00    -0.352 N 
ATOM     41  H6  UNL     1      -0.866  50.867 -25.572  1.00  0.00     0.166 HD
ENDBRANCH  31  34
ENDBRANCH   6  28
TORSDOF 7
ENDMDL
MODEL 7
REMARK minimizedAffinity -8.34643555
REMARK CNNscore 0.174251348
REMARK CNNaffinity 6.39997339
REMARK  7 active torsions:
REMARK  status: ('A' for Active; 'I' for Inactive)
REMARK       I    between atoms: C1_2  and  N1_3 
REMARK    1  A    between atoms: C1_2  and  C8_12 
REMARK    2  A    between atoms: N1_3  and  C2_4 
REMARK    3  A    between atoms: C5_7  and  O2_8 
REMARK    4  A    between atoms: N2_15  and  C11_16 
REMARK    5  A    between atoms: C11_16  and  C12_17 
REMARK       I    between atoms: C12_17  and  N3_19 
REMARK    6  A    between atoms: N4_22  and  C15_23 
REMARK    7  A    between atoms: C18_26  and  C19_27 
ROOT
HETATM    1  C12 UNL     1      -3.774  48.574 -23.096  1.00  0.00     0.248 C 
HETATM    2  O3  UNL     1      -2.898  48.399 -23.949  1.00  0.00    -0.271 OA
HETATM    3  N3  UNL     1      -5.126  48.420 -23.401  1.00  0.00    -0.348 N 
HETATM    4  C13 UNL     1      -6.215  48.745 -22.468  1.00  0.00     0.140 C 
HETATM    5  C14 UNL     1      -7.527  48.006 -22.791  1.00  0.00     0.115 C 
HETATM    6  N4  UNL     1      -7.892  48.193 -24.206  1.00  0.00    -0.280 NA
HETATM    7  C25 UNL     1      -6.827  47.708 -25.120  1.00  0.00     0.115 C 
HETATM    8  C26 UNL     1      -5.497  48.424 -24.825  1.00  0.00     0.140 C 
ENDROOT
BRANCH   1   9
HETATM    9  C11 UNL     1      -3.420  48.954 -21.641  1.00  0.00     0.374 C 
BRANCH   9  10
HETATM   10  N2  UNL     1      -2.147  49.690 -21.583  1.00  0.00     0.098 N 
HETATM   11  C10 UNL     1      -1.284  49.254 -20.485  1.00  0.00     0.274 C 
HETATM   12  C9  UNL     1      -0.248  50.372 -20.391  1.00  0.00     0.046 C 
HETATM   13  C8  UNL     1      -0.892  51.577 -21.080  1.00  0.00     0.108 C 
HETATM   14  C27 UNL     1      -2.323  51.137 -21.370  1.00  0.00     0.287 C 
BRANCH  13  15
HETATM   15  C1  UNL     1      -0.133  51.951 -22.355  1.00  0.00     0.228 C 
HETATM   16  O1  UNL     1       1.080  52.147 -22.313  1.00  0.00    -0.273 OA
HETATM   17  N1  UNL     1      -0.922  51.967 -23.490  1.00  0.00    -0.327 N 
HETATM   18  H1  UNL     1      -1.929  51.896 -23.326  1.00  0.00     0.169 HD
BRANCH  17  19
HETATM   19  C2  UNL     1      -0.521  52.102 -24.833  1.00  0.00     0.037 A 
HETATM   20  C3  UNL     1      -0.285  51.026 -25.692  1.00  0.00     0.032 A 
HETATM   21  C4  UNL     1       0.045  51.242 -27.036  1.00  0.00     0.042 A 
HETATM   22  C5  UNL     1       0.157  52.543 -27.514  1.00  0.00     0.104 A 
HETATM   23  C6  UNL     1      -0.036  53.620 -26.652  1.00  0.00     0.151 A 
HETATM   24  F1  UNL     1       0.080  54.879 -27.103  1.00  0.00    -0.203 F 
HETATM   25  C7  UNL     1      -0.380  53.406 -25.321  1.00  0.00     0.074 A 
BRANCH  22  26
HETATM   26  O2  UNL     1       0.448  52.781 -28.828  1.00  0.00    -0.358 OA
HETATM   27  H4  UNL     1       0.465  51.935 -29.306  1.00  0.00     0.217 HD
ENDBRANCH  22  26
ENDBRANCH  17  19
ENDBRANCH  13  15
ENDBRANCH   9  10
ENDBRANCH   1   9
BRANCH   6  28
HETATM   28  C15 UNL     1      -9.178  47.791 -24.604  1.00  0.00     0.010 A 
HETATM   29  C16 UNL     1      -9.940  46.984 -23.747  1.00  0.00     0.024 A 
HETATM   30  C17 UNL     1     -11.229  46.554 -24.091  1.00  0.00     0.017 A 
HETATM   31  C18 UNL     1     -11.819  46.907 -25.315  1.00  0.00     0.008 A 
HETATM   32  C23 UNL     1     -11.046  47.700 -26.179  1.00  0.00     0.017 A 
HETATM   33  C24 UNL     1      -9.754  48.127 -25.836  1.00  0.00     0.024 A 
BRANCH  31  34
HETATM   34  C19 UNL     1     -13.178  46.464 -25.681  1.00  0.00     0.115 A 
HETATM   35  N5  UNL     1     -13.506  46.453 -26.990  1.00  0.00    -0.352 N 
HETATM   36  C20 UNL     1     -14.749  46.037 -27.298  1.00  0.00     0.091 A 
ATOM     37  H5  UNL     1     -12.844  46.745 -27.710  1.00  0.00     0.166 HD
HETATM   38  C21 UNL     1     -15.673  45.643 -26.361  1.00  0.00     0.034 A 
HETATM   39  C22 UNL     1     -15.246  45.691 -25.056  1.00  0.00     0.091 A 
HETATM   40  N6  UNL     1     -14.014  46.090 -24.690  1.00  0.00    -0.352 N 
ATOM     41  H6  UNL     1     -13.726  46.108 -23.712  1.00  0.00     0.166 HD
ENDBRANCH  31  34
ENDBRANCH   6  28
TORSDOF 7
ENDMDL
MODEL 8
REMARK minimizedAffinity -7.89932537
REMARK CNNscore 0.168609396
REMARK CNNaffinity 5.90145445
REMARK  7 active torsions:
REMARK  status: ('A' for Active; 'I' for Inactive)
REMARK       I    between atoms: C1_2  and  N1_3 
REMARK    1  A    between atoms: C1_2  and  C8_12 
REMARK    2  A    between atoms: N1_3  and  C2_4 
REMARK    3  A    between atoms: C5_7  and  O2_8 
REMARK    4  A    between atoms: N2_15  and  C11_16 
REMARK    5  A    between atoms: C11_16  and  C12_17 
REMARK       I    between atoms: C12_17  and  N3_19 
REMARK    6  A    between atoms: N4_22  and  C15_23 
REMARK    7  A    between atoms: C18_26  and  C19_27 
ROOT
HETATM    1  C12 UNL     1      -3.742  48.468 -23.941  1.00  0.00     0.248 C 
HETATM    2  O3  UNL     1      -2.517  48.631 -23.929  1.00  0.00    -0.271 OA
HETATM    3  N3  UNL     1      -4.450  48.371 -25.137  1.00  0.00    -0.348 N 
HETATM    4  C13 UNL     1      -5.917  48.314 -25.215  1.00  0.00     0.140 C 
HETATM    5  C14 UNL     1      -6.428  47.674 -26.520  1.00  0.00     0.115 C 
HETATM    6  N4  UNL     1      -5.805  48.316 -27.690  1.00  0.00    -0.280 NA
HETATM    7  C25 UNL     1      -4.323  48.216 -27.651  1.00  0.00     0.115 C 
HETATM    8  C26 UNL     1      -3.775  48.844 -26.357  1.00  0.00     0.140 C 
ENDROOT
BRANCH   1   9
HETATM    9  C11 UNL     1      -4.552  48.346 -22.631  1.00  0.00     0.374 C 
BRANCH   9  10
HETATM   10  N2  UNL     1      -3.676  48.008 -21.498  1.00  0.00     0.098 N 
HETATM   11  C10 UNL     1      -3.669  46.578 -21.187  1.00  0.00     0.274 C 
HETATM   12  C9  UNL     1      -3.032  46.526 -19.801  1.00  0.00     0.046 C 
HETATM   13  C8  UNL     1      -3.199  47.935 -19.227  1.00  0.00     0.108 C 
HETATM   14  C27 UNL     1      -4.076  48.663 -20.241  1.00  0.00     0.287 C 
BRANCH  13  15
HETATM   15  C1  UNL     1      -1.842  48.617 -19.043  1.00  0.00     0.228 C 
HETATM   16  O1  UNL     1      -0.909  48.346 -19.797  1.00  0.00    -0.273 OA
HETATM   17  N1  UNL     1      -1.825  49.563 -18.034  1.00  0.00    -0.327 N 
HETATM   18  H1  UNL     1      -2.651  49.577 -17.431  1.00  0.00     0.169 HD
BRANCH  17  19
HETATM   19  C2  UNL     1      -0.808  50.481 -17.712  1.00  0.00     0.037 A 
HETATM   20  C3  UNL     1       0.036  50.358 -16.606  1.00  0.00     0.032 A 
HETATM   21  C4  UNL     1       1.072  51.276 -16.390  1.00  0.00     0.042 A 
HETATM   22  C5  UNL     1       1.248  52.332 -17.277  1.00  0.00     0.104 A 
HETATM   23  C6  UNL     1       0.384  52.484 -18.359  1.00  0.00     0.151 A 
HETATM   24  F1  UNL     1       0.541  53.506 -19.214  1.00  0.00    -0.203 F 
HETATM   25  C7  UNL     1      -0.635  51.563 -18.583  1.00  0.00     0.074 A 
BRANCH  22  26
HETATM   26  O2  UNL     1       2.270  53.224 -17.106  1.00  0.00    -0.358 OA
HETATM   27  H4  UNL     1       2.826  52.930 -16.365  1.00  0.00     0.217 HD
ENDBRANCH  22  26
ENDBRANCH  17  19
ENDBRANCH  13  15
ENDBRANCH   9  10
ENDBRANCH   1   9
BRANCH   6  28
HETATM   28  C15 UNL     1      -6.338  48.020 -28.956  1.00  0.00     0.010 A 
HETATM   29  C16 UNL     1      -5.467  47.766 -30.024  1.00  0.00     0.024 A 
HETATM   30  C17 UNL     1      -5.942  47.463 -31.307  1.00  0.00     0.017 A 
HETATM   31  C18 UNL     1      -7.317  47.404 -31.586  1.00  0.00     0.008 A 
HETATM   32  C23 UNL     1      -8.187  47.677 -30.518  1.00  0.00     0.017 A 
HETATM   33  C24 UNL     1      -7.710  47.984 -29.234  1.00  0.00     0.024 A 
BRANCH  31  34
HETATM   34  C19 UNL     1      -7.825  47.080 -32.933  1.00  0.00     0.115 A 
HETATM   35  N5  UNL     1      -8.809  46.162 -33.032  1.00  0.00    -0.352 N 
HETATM   36  C20 UNL     1      -9.260  45.890 -34.271  1.00  0.00     0.091 A 
ATOM     37  H5  UNL     1      -9.191  45.697 -32.208  1.00  0.00     0.166 HD
HETATM   38  C21 UNL     1      -8.768  46.485 -35.407  1.00  0.00     0.034 A 
HETATM   39  C22 UNL     1      -7.768  47.404 -35.204  1.00  0.00     0.091 A 
HETATM   40  N6  UNL     1      -7.283  47.722 -33.989  1.00  0.00    -0.352 N 
ATOM     41  H6  UNL     1      -6.543  48.415 -33.873  1.00  0.00     0.166 HD
ENDBRANCH  31  34
ENDBRANCH   6  28
TORSDOF 7
ENDMDL
MODEL 9
REMARK minimizedAffinity -7.85083342
REMARK CNNscore 0.156858653
REMARK CNNaffinity 5.88818932
REMARK  7 active torsions:
REMARK  status: ('A' for Active; 'I' for Inactive)
REMARK       I    between atoms: C1_2  and  N1_3 
REMARK    1  A    between atoms: C1_2  and  C8_12 
REMARK    2  A    between atoms: N1_3  and  C2_4 
REMARK    3  A    between atoms: C5_7  and  O2_8 
REMARK    4  A    between atoms: N2_15  and  C11_16 
REMARK    5  A    between atoms: C11_16  and  C12_17 
REMARK       I    between atoms: C12_17  and  N3_19 
REMARK    6  A    between atoms: N4_22  and  C15_23 
REMARK    7  A    between atoms: C18_26  and  C19_27 
ROOT
HETATM    1  C12 UNL     1       1.977  52.131 -10.899  1.00  0.00     0.248 C 
HETATM    2  O3  UNL     1       1.055  52.368 -10.112  1.00  0.00    -0.271 OA
HETATM    3  N3  UNL     1       1.736  51.894 -12.251  1.00  0.00    -0.348 N 
HETATM    4  C13 UNL     1       2.775  51.475 -13.204  1.00  0.00     0.140 C 
HETATM    5  C14 UNL     1       2.420  51.804 -14.667  1.00  0.00     0.115 C 
HETATM    6  N4  UNL     1       1.079  51.295 -15.001  1.00  0.00    -0.280 NA
HETATM    7  C25 UNL     1       0.034  51.864 -14.111  1.00  0.00     0.115 C 
HETATM    8  C26 UNL     1       0.357  51.557 -12.637  1.00  0.00     0.140 C 
ENDROOT
BRANCH   1   9
HETATM    9  C11 UNL     1       3.449  52.102 -10.431  1.00  0.00     0.374 C 
BRANCH   9  10
HETATM   10  N2  UNL     1       3.864  53.416  -9.913  1.00  0.00     0.098 N 
HETATM   11  C10 UNL     1       3.728  54.488 -10.900  1.00  0.00     0.274 C 
HETATM   12  C9  UNL     1       4.548  55.625 -10.294  1.00  0.00     0.046 C 
HETATM   13  C8  UNL     1       5.488  54.953  -9.291  1.00  0.00     0.108 C 
HETATM   14  C27 UNL     1       5.279  53.458  -9.506  1.00  0.00     0.287 C 
BRANCH  13  15
HETATM   15  C1  UNL     1       5.160  55.382  -7.859  1.00  0.00     0.228 C 
HETATM   16  O1  UNL     1       4.925  54.533  -7.001  1.00  0.00    -0.273 OA
HETATM   17  N1  UNL     1       5.228  56.748  -7.656  1.00  0.00    -0.327 N 
HETATM   18  H1  UNL     1       5.319  57.314  -8.503  1.00  0.00     0.169 HD
BRANCH  17  19
HETATM   19  C2  UNL     1       5.151  57.457  -6.442  1.00  0.00     0.037 A 
HETATM   20  C3  UNL     1       6.264  57.892  -5.719  1.00  0.00     0.032 A 
HETATM   21  C4  UNL     1       6.107  58.653  -4.553  1.00  0.00     0.042 A 
HETATM   22  C5  UNL     1       4.828  58.961  -4.102  1.00  0.00     0.104 A 
HETATM   23  C6  UNL     1       3.715  58.494  -4.796  1.00  0.00     0.151 A 
HETATM   24  F1  UNL     1       2.477  58.778  -4.362  1.00  0.00    -0.203 F 
HETATM   25  C7  UNL     1       3.870  57.752  -5.963  1.00  0.00     0.074 A 
BRANCH  22  26
HETATM   26  O2  UNL     1       4.649  59.728  -2.985  1.00  0.00    -0.358 OA
HETATM   27  H4  UNL     1       5.514  60.041  -2.673  1.00  0.00     0.217 HD
ENDBRANCH  22  26
ENDBRANCH  17  19
ENDBRANCH  13  15
ENDBRANCH   9  10
ENDBRANCH   1   9
BRANCH   6  28
HETATM   28  C15 UNL     1       0.701  51.296 -16.355  1.00  0.00     0.010 A 
HETATM   29  C16 UNL     1      -0.043  50.220 -16.859  1.00  0.00     0.024 A 
HETATM   30  C17 UNL     1      -0.449  50.168 -18.199  1.00  0.00     0.017 A 
HETATM   31  C18 UNL     1      -0.124  51.191 -19.105  1.00  0.00     0.008 A 
HETATM   32  C23 UNL     1       0.638  52.258 -18.601  1.00  0.00     0.017 A 
HETATM   33  C24 UNL     1       1.047  52.307 -17.259  1.00  0.00     0.024 A 
BRANCH  31  34
HETATM   34  C19 UNL     1      -0.553  51.146 -20.516  1.00  0.00     0.115 A 
HETATM   35  N5  UNL     1      -0.518  52.296 -21.222  1.00  0.00    -0.352 N 
HETATM   36  C20 UNL     1      -0.907  52.227 -22.510  1.00  0.00     0.091 A 
ATOM     37  H5  UNL     1      -0.213  53.173 -20.801  1.00  0.00     0.166 HD
HETATM   38  C21 UNL     1      -1.333  51.069 -23.114  1.00  0.00     0.034 A 
HETATM   39  C22 UNL     1      -1.334  49.952 -22.313  1.00  0.00     0.091 A 
HETATM   40  N6  UNL     1      -0.949  49.960 -21.024  1.00  0.00    -0.352 N 
ATOM     41  H6  UNL     1      -0.956  49.112 -20.458  1.00  0.00     0.166 HD
ENDBRANCH  31  34
ENDBRANCH   6  28
TORSDOF 7
ENDMDL
