MODEL 1
REMARK minimizedAffinity -9.20279121
REMARK  7 active torsions:
REMARK  status: ('A' for Active; 'I' for Inactive)
REMARK    1  A    between atoms: C2_2  and  C3_3 
REMARK    2  A    between atoms: C2_2  and  N2_10 
REMARK    3  A    between atoms: C3_3  and  C4_4 
REMARK    4  A    between atoms: N2_10  and  C9_11 
REMARK    5  A    between atoms: C12_17  and  N5_18 
REMARK       I    between atoms: N5_18  and  C13_19 
REMARK       I    between atoms: C13_19  and  N6_21 
REMARK    6  A    between atoms: N6_21  and  C14_22 
REMARK    7  A    between atoms: C14_22  and  C16_24 
ROOT
HETATM    1  C9  UNL     1       0.319  53.099 -24.507  1.00  0.00     0.130 A 
HETATM    2  N3  UNL     1       0.861  54.244 -24.916  1.00  0.00    -0.284 N 
ATOM      3  H3  UNL     1       0.899  54.613 -25.866  1.00  0.00     0.188 HD
HETATM    4  N4  UNL     1       1.347  54.802 -23.799  1.00  0.00    -0.298 N 
HETATM    5  C10 UNL     1       1.168  54.052 -22.673  1.00  0.00     0.067 A 
HETATM    6  C11 UNL     1       1.523  54.261 -21.341  1.00  0.00     0.080 A 
HETATM    7  C12 UNL     1       1.139  53.255 -20.465  1.00  0.00     0.111 A 
HETATM    8  N7  UNL     1       0.476  52.138 -20.845  1.00  0.00    -0.351 N 
ATOM      9  H7  UNL     1       0.225  51.432 -20.154  1.00  0.00     0.166 HD
HETATM   10  C22 UNL     1       0.145  51.961 -22.152  1.00  0.00     0.107 A 
HETATM   11  C23 UNL     1       0.486  52.923 -23.101  1.00  0.00     0.052 A 
HETATM   12  H18 UNL     1       1.796  55.707 -23.873  1.00  0.00     0.187 HD
ENDROOT
BRANCH   7  13
HETATM   13  N5  UNL     1       1.362  53.311 -19.090  1.00  0.00    -0.295 N 
HETATM   14  C13 UNL     1       0.799  52.547 -18.103  1.00  0.00     0.322 C 
HETATM   15  O1  UNL     1      -0.102  51.733 -18.241  1.00  0.00    -0.247 OA
HETATM   16  N6  UNL     1       1.383  52.802 -16.884  1.00  0.00    -0.335 N 
HETATM   17  H21 UNL     1       2.311  53.202 -16.903  1.00  0.00     0.165 HD
HETATM   18  H20 UNL     1       1.939  54.092 -18.824  1.00  0.00     0.172 HD
BRANCH  16  19
HETATM   19  C14 UNL     1       1.029  52.031 -15.700  1.00  0.00     0.115 C 
HETATM   20  C15 UNL     1       2.281  51.451 -15.042  1.00  0.00     0.037 C 
BRANCH  19  21
HETATM   21  C16 UNL     1      -0.010  50.993 -16.086  1.00  0.00    -0.036 A 
HETATM   22  C17 UNL     1      -1.387  51.205 -15.930  1.00  0.00     0.009 A 
HETATM   23  C18 UNL     1      -2.303  50.198 -16.240  1.00  0.00     0.001 A 
HETATM   24  C19 UNL     1      -1.854  48.960 -16.696  1.00  0.00     0.000 A 
HETATM   25  C20 UNL     1      -0.488  48.729 -16.849  1.00  0.00     0.001 A 
HETATM   26  C21 UNL     1       0.426  49.735 -16.541  1.00  0.00     0.009 A 
ENDBRANCH  19  21
ENDBRANCH  16  19
ENDBRANCH   7  13
BRANCH   1  27
HETATM   27  N2  UNL     1      -0.302  52.171 -25.277  1.00  0.00    -0.370 N 
HETATM   28  H17 UNL     1       0.100  51.232 -25.216  1.00  0.00     0.161 HD
BRANCH  27  29
HETATM   29  C2  UNL     1      -0.727  52.412 -26.659  1.00  0.00     0.081 C 
HETATM   30  C1  UNL     1       0.153  51.696 -27.685  1.00  0.00     0.032 C 
BRANCH  29  31
HETATM   31  C3  UNL     1      -2.226  52.112 -26.862  1.00  0.00     0.060 C 
BRANCH  31  32
HETATM   32  C4  UNL     1      -2.764  50.812 -26.214  1.00  0.00     0.222 C 
HETATM   33  C5  UNL     1      -2.959  49.676 -27.238  1.00  0.00     0.036 C 
HETATM   34  C6  UNL     1      -3.791  48.510 -26.692  1.00  0.00     0.004 C 
HETATM   35  C7  UNL     1      -3.844  48.532 -25.170  1.00  0.00     0.030 C 
HETATM   36  C8  UNL     1      -4.386  49.867 -24.653  1.00  0.00     0.270 C 
HETATM   37  N1  UNL     1      -4.009  51.022 -25.468  1.00  0.00     0.088 N 
HETATM   38  H16 UNL     1      -3.910  51.841 -24.864  1.00  0.00     0.316 HD
ENDBRANCH  31  32
ENDBRANCH  29  31
ENDBRANCH  27  29
ENDBRANCH   1  27
TORSDOF 7
ENDMDL
MODEL 2
REMARK minimizedAffinity -9.02964211
REMARK  7 active torsions:
REMARK  status: ('A' for Active; 'I' for Inactive)
REMARK    1  A    between atoms: C2_2  and  C3_3 
REMARK    2  A    between atoms: C2_2  and  N2_10 
REMARK    3  A    between atoms: C3_3  and  C4_4 
REMARK    4  A    between atoms: N2_10  and  C9_11 
REMARK    5  A    between atoms: C12_17  and  N5_18 
REMARK       I    between atoms: N5_18  and  C13_19 
REMARK       I    between atoms: C13_19  and  N6_21 
REMARK    6  A    between atoms: N6_21  and  C14_22 
REMARK    7  A    between atoms: C14_22  and  C16_24 
ROOT
HETATM    1  C9  UNL     1       0.513  53.071 -23.979  1.00  0.00     0.130 A 
HETATM    2  N3  UNL     1       1.114  54.226 -24.257  1.00  0.00    -0.284 N 
ATOM      3  H3  UNL     1       1.260  54.650 -25.173  1.00  0.00     0.188 HD
HETATM    4  N4  UNL     1       1.484  54.707 -23.062  1.00  0.00    -0.298 N 
HETATM    5  C10 UNL     1       1.173  53.895 -22.010  1.00  0.00     0.067 A 
HETATM    6  C11 UNL     1       1.385  54.016 -20.637  1.00  0.00     0.080 A 
HETATM    7  C12 UNL     1       0.892  52.969 -19.871  1.00  0.00     0.111 A 
HETATM    8  N7  UNL     1       0.257  51.892 -20.388  1.00  0.00    -0.351 N 
ATOM      9  H7  UNL     1      -0.078  51.151 -19.772  1.00  0.00     0.166 HD
HETATM   10  C22 UNL     1       0.067  51.799 -21.731  1.00  0.00     0.107 A 
HETATM   11  C23 UNL     1       0.524  52.809 -22.577  1.00  0.00     0.052 A 
HETATM   12  H18 UNL     1       1.953  55.604 -23.032  1.00  0.00     0.187 HD
ENDROOT
BRANCH   7  13
HETATM   13  N5  UNL     1       0.967  52.938 -18.479  1.00  0.00    -0.295 N 
HETATM   14  C13 UNL     1       0.507  51.974 -17.622  1.00  0.00     0.322 C 
HETATM   15  O1  UNL     1      -0.161  50.996 -17.921  1.00  0.00    -0.247 OA
HETATM   16  N6  UNL     1       0.899  52.233 -16.329  1.00  0.00    -0.335 N 
HETATM   17  H21 UNL     1       1.705  52.830 -16.213  1.00  0.00     0.165 HD
HETATM   18  H20 UNL     1       1.318  53.798 -18.092  1.00  0.00     0.172 HD
BRANCH  16  19
HETATM   19  C14 UNL     1       0.624  51.290 -15.253  1.00  0.00     0.115 C 
HETATM   20  C15 UNL     1      -0.220  51.949 -14.163  1.00  0.00     0.037 C 
BRANCH  19  21
HETATM   21  C16 UNL     1       1.941  50.717 -14.760  1.00  0.00    -0.036 A 
HETATM   22  C17 UNL     1       2.023  49.510 -14.050  1.00  0.00     0.009 A 
HETATM   23  C18 UNL     1       3.248  49.053 -13.560  1.00  0.00     0.001 A 
HETATM   24  C19 UNL     1       4.405  49.803 -13.760  1.00  0.00     0.000 A 
HETATM   25  C20 UNL     1       4.341  51.009 -14.456  1.00  0.00     0.001 A 
HETATM   26  C21 UNL     1       3.118  51.465 -14.947  1.00  0.00     0.009 A 
ENDBRANCH  19  21
ENDBRANCH  16  19
ENDBRANCH   7  13
BRANCH   1  27
HETATM   27  N2  UNL     1      -0.035  52.205 -24.867  1.00  0.00    -0.370 N 
HETATM   28  H17 UNL     1       0.429  51.294 -24.913  1.00  0.00     0.161 HD
BRANCH  27  29
HETATM   29  C2  UNL     1      -0.463  52.583 -26.217  1.00  0.00     0.081 C 
HETATM   30  C1  UNL     1       0.419  51.979 -27.311  1.00  0.00     0.032 C 
BRANCH  29  31
HETATM   31  C3  UNL     1      -1.961  52.300 -26.448  1.00  0.00     0.060 C 
BRANCH  31  32
HETATM   32  C4  UNL     1      -2.510  50.973 -25.867  1.00  0.00     0.222 C 
HETATM   33  C5  UNL     1      -2.321  49.781 -26.826  1.00  0.00     0.036 C 
HETATM   34  C6  UNL     1      -3.141  48.550 -26.425  1.00  0.00     0.004 C 
HETATM   35  C7  UNL     1      -3.582  48.628 -24.969  1.00  0.00     0.030 C 
HETATM   36  C8  UNL     1      -4.372  49.911 -24.697  1.00  0.00     0.270 C 
HETATM   37  N1  UNL     1      -3.919  51.068 -25.471  1.00  0.00     0.088 N 
HETATM   38  H16 UNL     1      -4.062  51.916 -24.919  1.00  0.00     0.316 HD
ENDBRANCH  31  32
ENDBRANCH  29  31
ENDBRANCH  27  29
ENDBRANCH   1  27
TORSDOF 7
ENDMDL
MODEL 3
REMARK minimizedAffinity -8.99467182
REMARK  7 active torsions:
REMARK  status: ('A' for Active; 'I' for Inactive)
REMARK    1  A    between atoms: C2_2  and  C3_3 
REMARK    2  A    between atoms: C2_2  and  N2_10 
REMARK    3  A    between atoms: C3_3  and  C4_4 
REMARK    4  A    between atoms: N2_10  and  C9_11 
REMARK    5  A    between atoms: C12_17  and  N5_18 
REMARK       I    between atoms: N5_18  and  C13_19 
REMARK       I    between atoms: C13_19  and  N6_21 
REMARK    6  A    between atoms: N6_21  and  C14_22 
REMARK    7  A    between atoms: C14_22  and  C16_24 
ROOT
HETATM    1  C9  UNL     1      -2.070  50.349 -23.434  1.00  0.00     0.130 A 
HETATM    2  N3  UNL     1      -2.894  50.277 -22.391  1.00  0.00    -0.284 N 
ATOM      3  H3  UNL     1      -2.724  50.596 -21.436  1.00  0.00     0.188 HD
HETATM    4  N4  UNL     1      -3.997  49.691 -22.876  1.00  0.00    -0.298 N 
HETATM    5  C10 UNL     1      -3.918  49.350 -24.195  1.00  0.00     0.067 A 
HETATM    6  C11 UNL     1      -4.819  48.730 -25.059  1.00  0.00     0.080 A 
HETATM    7  C12 UNL     1      -4.371  48.573 -26.363  1.00  0.00     0.111 A 
HETATM    8  N7  UNL     1      -3.152  48.972 -26.793  1.00  0.00    -0.351 N 
ATOM      9  H7  UNL     1      -2.878  48.824 -27.764  1.00  0.00     0.166 HD
HETATM   10  C22 UNL     1      -2.292  49.571 -25.927  1.00  0.00     0.107 A 
HETATM   11  C23 UNL     1      -2.662  49.776 -24.598  1.00  0.00     0.052 A 
HETATM   12  H18 UNL     1      -4.779  49.549 -22.247  1.00  0.00     0.187 HD
ENDROOT
BRANCH   7  13
HETATM   13  N5  UNL     1      -5.150  48.020 -27.379  1.00  0.00    -0.295 N 
HETATM   14  C13 UNL     1      -5.059  48.224 -28.730  1.00  0.00     0.322 C 
HETATM   15  O1  UNL     1      -4.333  49.028 -29.295  1.00  0.00    -0.247 OA
HETATM   16  N6  UNL     1      -5.908  47.387 -29.416  1.00  0.00    -0.335 N 
HETATM   17  H21 UNL     1      -6.200  46.548 -28.935  1.00  0.00     0.165 HD
HETATM   18  H20 UNL     1      -5.929  47.491 -27.023  1.00  0.00     0.172 HD
BRANCH  16  19
HETATM   19  C14 UNL     1      -5.910  47.340 -30.872  1.00  0.00     0.115 C 
HETATM   20  C15 UNL     1      -7.176  47.992 -31.429  1.00  0.00     0.037 C 
BRANCH  19  21
HETATM   21  C16 UNL     1      -5.704  45.902 -31.313  1.00  0.00    -0.036 A 
HETATM   22  C17 UNL     1      -4.676  45.518 -32.186  1.00  0.00     0.009 A 
HETATM   23  C18 UNL     1      -4.562  44.195 -32.616  1.00  0.00     0.001 A 
HETATM   24  C19 UNL     1      -5.484  43.240 -32.190  1.00  0.00     0.000 A 
HETATM   25  C20 UNL     1      -6.517  43.605 -31.329  1.00  0.00     0.001 A 
HETATM   26  C21 UNL     1      -6.629  44.927 -30.899  1.00  0.00     0.009 A 
ENDBRANCH  19  21
ENDBRANCH  16  19
ENDBRANCH   7  13
BRANCH   1  27
HETATM   27  N2  UNL     1      -0.815  50.866 -23.446  1.00  0.00    -0.370 N 
HETATM   28  H17 UNL     1      -0.099  50.248 -23.055  1.00  0.00     0.161 HD
BRANCH  27  29
HETATM   29  C2  UNL     1      -0.500  52.247 -23.074  1.00  0.00     0.081 C 
HETATM   30  C1  UNL     1      -0.146  52.399 -21.594  1.00  0.00     0.032 C 
BRANCH  29  31
HETATM   31  C3  UNL     1       0.570  52.863 -23.998  1.00  0.00     0.060 C 
BRANCH  31  32
HETATM   32  C4  UNL     1       0.437  52.556 -25.510  1.00  0.00     0.222 C 
HETATM   33  C5  UNL     1       1.610  51.714 -26.051  1.00  0.00     0.036 C 
HETATM   34  C6  UNL     1       1.673  51.682 -27.582  1.00  0.00     0.004 C 
HETATM   35  C7  UNL     1       0.343  52.094 -28.200  1.00  0.00     0.030 C 
HETATM   36  C8  UNL     1      -0.092  53.478 -27.709  1.00  0.00     0.270 C 
HETATM   37  N1  UNL     1       0.283  53.766 -26.324  1.00  0.00     0.088 N 
HETATM   38  H16 UNL     1      -0.425  54.372 -25.904  1.00  0.00     0.316 HD
ENDBRANCH  31  32
ENDBRANCH  29  31
ENDBRANCH  27  29
ENDBRANCH   1  27
TORSDOF 7
ENDMDL
MODEL 4
REMARK minimizedAffinity -8.93826866
REMARK  7 active torsions:
REMARK  status: ('A' for Active; 'I' for Inactive)
REMARK    1  A    between atoms: C2_2  and  C3_3 
REMARK    2  A    between atoms: C2_2  and  N2_10 
REMARK    3  A    between atoms: C3_3  and  C4_4 
REMARK    4  A    between atoms: N2_10  and  C9_11 
REMARK    5  A    between atoms: C12_17  and  N5_18 
REMARK       I    between atoms: N5_18  and  C13_19 
REMARK       I    between atoms: C13_19  and  N6_21 
REMARK    6  A    between atoms: N6_21  and  C14_22 
REMARK    7  A    between atoms: C14_22  and  C16_24 
ROOT
HETATM    1  C9  UNL     1       0.544  51.422 -15.992  1.00  0.00     0.130 A 
HETATM    2  N3  UNL     1       1.412  52.350 -15.595  1.00  0.00    -0.284 N 
ATOM      3  H3  UNL     1       1.765  52.514 -14.652  1.00  0.00     0.188 HD
HETATM    4  N4  UNL     1       1.717  53.023 -16.713  1.00  0.00    -0.298 N 
HETATM    5  C10 UNL     1       1.059  52.588 -17.827  1.00  0.00     0.067 A 
HETATM    6  C11 UNL     1       1.084  53.010 -19.156  1.00  0.00     0.080 A 
HETATM    7  C12 UNL     1       0.273  52.286 -20.019  1.00  0.00     0.111 A 
HETATM    8  N7  UNL     1      -0.502  51.247 -19.629  1.00  0.00    -0.351 N 
ATOM      9  H7  UNL     1      -1.080  50.757 -20.311  1.00  0.00     0.166 HD
HETATM   10  C22 UNL     1      -0.507  50.859 -18.326  1.00  0.00     0.107 A 
HETATM   11  C23 UNL     1       0.282  51.527 -17.390  1.00  0.00     0.052 A 
HETATM   12  H18 UNL     1       2.389  53.779 -16.648  1.00  0.00     0.187 HD
ENDROOT
BRANCH   7  13
HETATM   13  N5  UNL     1       0.204  52.529 -21.389  1.00  0.00    -0.295 N 
HETATM   14  C13 UNL     1      -0.359  51.752 -22.366  1.00  0.00     0.322 C 
HETATM   15  O1  UNL     1      -0.820  50.630 -22.224  1.00  0.00    -0.247 OA
HETATM   16  N6  UNL     1      -0.357  52.401 -23.579  1.00  0.00    -0.335 N 
HETATM   17  H21 UNL     1      -0.290  53.409 -23.551  1.00  0.00     0.165 HD
HETATM   18  H20 UNL     1       0.737  53.337 -21.665  1.00  0.00     0.172 HD
BRANCH  16  19
HETATM   19  C14 UNL     1      -1.004  51.821 -24.748  1.00  0.00     0.115 C 
HETATM   20  C15 UNL     1      -1.663  50.488 -24.392  1.00  0.00     0.037 C 
BRANCH  19  21
HETATM   21  C16 UNL     1       0.012  51.732 -25.873  1.00  0.00    -0.036 A 
HETATM   22  C17 UNL     1       1.395  51.685 -25.643  1.00  0.00     0.009 A 
HETATM   23  C18 UNL     1       2.294  51.668 -26.710  1.00  0.00     0.001 A 
HETATM   24  C19 UNL     1       1.825  51.712 -28.022  1.00  0.00     0.000 A 
HETATM   25  C20 UNL     1       0.454  51.768 -28.269  1.00  0.00     0.001 A 
HETATM   26  C21 UNL     1      -0.444  51.784 -27.203  1.00  0.00     0.009 A 
ENDBRANCH  19  21
ENDBRANCH  16  19
ENDBRANCH   7  13
BRANCH   1  27
HETATM   27  N2  UNL     1      -0.061  50.489 -15.215  1.00  0.00    -0.370 N 
HETATM   28  H17 UNL     1      -0.067  49.546 -15.612  1.00  0.00     0.161 HD
BRANCH  27  29
HETATM   29  C2  UNL     1      -1.327  50.712 -14.513  1.00  0.00     0.081 C 
HETATM   30  C1  UNL     1      -2.417  49.720 -14.922  1.00  0.00     0.032 C 
BRANCH  29  31
HETATM   31  C3  UNL     1      -1.136  50.773 -12.984  1.00  0.00     0.060 C 
BRANCH  31  32
HETATM   32  C4  UNL     1      -2.199  51.569 -12.186  1.00  0.00     0.222 C 
HETATM   33  C5  UNL     1      -3.123  50.657 -11.355  1.00  0.00     0.036 C 
HETATM   34  C6  UNL     1      -4.370  51.378 -10.832  1.00  0.00     0.004 C 
HETATM   35  C7  UNL     1      -4.188  52.891 -10.862  1.00  0.00     0.030 C 
HETATM   36  C8  UNL     1      -3.835  53.379 -12.270  1.00  0.00     0.270 C 
HETATM   37  N1  UNL     1      -3.008  52.447 -13.037  1.00  0.00     0.088 N 
HETATM   38  H16 UNL     1      -2.396  52.977 -13.660  1.00  0.00     0.316 HD
ENDBRANCH  31  32
ENDBRANCH  29  31
ENDBRANCH  27  29
ENDBRANCH   1  27
TORSDOF 7
ENDMDL
MODEL 5
REMARK minimizedAffinity -8.936903
REMARK  7 active torsions:
REMARK  status: ('A' for Active; 'I' for Inactive)
REMARK    1  A    between atoms: C2_2  and  C3_3 
REMARK    2  A    between atoms: C2_2  and  N2_10 
REMARK    3  A    between atoms: C3_3  and  C4_4 
REMARK    4  A    between atoms: N2_10  and  C9_11 
REMARK    5  A    between atoms: C12_17  and  N5_18 
REMARK       I    between atoms: N5_18  and  C13_19 
REMARK       I    between atoms: C13_19  and  N6_21 
REMARK    6  A    between atoms: N6_21  and  C14_22 
REMARK    7  A    between atoms: C14_22  and  C16_24 
ROOT
HETATM    1  C9  UNL     1      -4.681  51.067 -24.260  1.00  0.00     0.130 A 
HETATM    2  N3  UNL     1      -5.979  50.910 -24.008  1.00  0.00    -0.284 N 
ATOM      3  H3  UNL     1      -6.738  50.807 -24.681  1.00  0.00     0.188 HD
HETATM    4  N4  UNL     1      -6.063  50.918 -22.670  1.00  0.00    -0.298 N 
HETATM    5  C10 UNL     1      -4.870  51.104 -22.034  1.00  0.00     0.067 A 
HETATM    6  C11 UNL     1      -4.529  51.182 -20.684  1.00  0.00     0.080 A 
HETATM    7  C12 UNL     1      -3.176  51.358 -20.428  1.00  0.00     0.111 A 
HETATM    8  N7  UNL     1      -2.234  51.459 -21.394  1.00  0.00    -0.351 N 
ATOM      9  H7  UNL     1      -1.255  51.593 -21.142  1.00  0.00     0.166 HD
HETATM   10  C22 UNL     1      -2.597  51.381 -22.702  1.00  0.00     0.107 A 
HETATM   11  C23 UNL     1      -3.934  51.199 -23.052  1.00  0.00     0.052 A 
HETATM   12  H18 UNL     1      -6.975  50.792 -22.248  1.00  0.00     0.187 HD
ENDROOT
BRANCH   7  13
HETATM   13  N5  UNL     1      -2.641  51.410 -19.142  1.00  0.00    -0.295 N 
HETATM   14  C13 UNL     1      -1.872  50.477 -18.500  1.00  0.00     0.322 C 
HETATM   15  O1  UNL     1      -1.597  49.358 -18.908  1.00  0.00    -0.247 OA
HETATM   16  N6  UNL     1      -1.415  50.954 -17.294  1.00  0.00    -0.335 N 
HETATM   17  H21 UNL     1      -1.386  51.959 -17.189  1.00  0.00     0.165 HD
HETATM   18  H20 UNL     1      -2.972  52.203 -18.618  1.00  0.00     0.172 HD
BRANCH  16  19
HETATM   19  C14 UNL     1      -0.485  50.185 -16.479  1.00  0.00     0.115 C 
HETATM   20  C15 UNL     1      -1.163  49.709 -15.194  1.00  0.00     0.037 C 
BRANCH  19  21
HETATM   21  C16 UNL     1       0.766  51.015 -16.252  1.00  0.00    -0.036 A 
HETATM   22  C17 UNL     1       1.218  51.971 -17.174  1.00  0.00     0.009 A 
HETATM   23  C18 UNL     1       2.408  52.666 -16.954  1.00  0.00     0.001 A 
HETATM   24  C19 UNL     1       3.171  52.405 -15.817  1.00  0.00     0.000 A 
HETATM   25  C20 UNL     1       2.743  51.451 -14.895  1.00  0.00     0.001 A 
HETATM   26  C21 UNL     1       1.553  50.758 -15.115  1.00  0.00     0.009 A 
ENDBRANCH  19  21
ENDBRANCH  16  19
ENDBRANCH   7  13
BRANCH   1  27
HETATM   27  N2  UNL     1      -4.091  51.127 -25.480  1.00  0.00    -0.370 N 
HETATM   28  H17 UNL     1      -4.741  51.254 -26.260  1.00  0.00     0.161 HD
BRANCH  27  29
HETATM   29  C2  UNL     1      -3.012  50.232 -25.907  1.00  0.00     0.081 C 
HETATM   30  C1  UNL     1      -3.465  48.777 -26.043  1.00  0.00     0.032 C 
BRANCH  29  31
HETATM   31  C3  UNL     1      -2.305  50.746 -27.178  1.00  0.00     0.060 C 
BRANCH  31  32
HETATM   32  C4  UNL     1      -0.776  50.968 -27.076  1.00  0.00     0.222 C 
HETATM   33  C5  UNL     1      -0.344  51.499 -25.695  1.00  0.00     0.036 C 
HETATM   34  C6  UNL     1       1.092  52.036 -25.677  1.00  0.00     0.004 C 
HETATM   35  C7  UNL     1       1.891  51.517 -26.866  1.00  0.00     0.030 C 
HETATM   36  C8  UNL     1       1.203  51.864 -28.190  1.00  0.00     0.270 C 
HETATM   37  N1  UNL     1      -0.258  51.850 -28.127  1.00  0.00     0.088 N 
HETATM   38  H16 UNL     1      -0.630  51.556 -29.032  1.00  0.00     0.316 HD
ENDBRANCH  31  32
ENDBRANCH  29  31
ENDBRANCH  27  29
ENDBRANCH   1  27
TORSDOF 7
ENDMDL
MODEL 6
REMARK minimizedAffinity -8.7499733
REMARK  7 active torsions:
REMARK  status: ('A' for Active; 'I' for Inactive)
REMARK    1  A    between atoms: C2_2  and  C3_3 
REMARK    2  A    between atoms: C2_2  and  N2_10 
REMARK    3  A    between atoms: C3_3  and  C4_4 
REMARK    4  A    between atoms: N2_10  and  C9_11 
REMARK    5  A    between atoms: C12_17  and  N5_18 
REMARK       I    between atoms: N5_18  and  C13_19 
REMARK       I    between atoms: C13_19  and  N6_21 
REMARK    6  A    between atoms: N6_21  and  C14_22 
REMARK    7  A    between atoms: C14_22  and  C16_24 
ROOT
HETATM    1  C9  UNL     1       0.014  52.761 -20.877  1.00  0.00     0.130 A 
HETATM    2  N3  UNL     1       1.061  53.575 -20.756  1.00  0.00    -0.284 N 
ATOM      3  H3  UNL     1       1.503  54.137 -21.483  1.00  0.00     0.188 HD
HETATM    4  N4  UNL     1       1.402  53.490 -19.462  1.00  0.00    -0.298 N 
HETATM    5  C10 UNL     1       0.635  52.627 -18.735  1.00  0.00     0.067 A 
HETATM    6  C11 UNL     1       0.663  52.252 -17.392  1.00  0.00     0.080 A 
HETATM    7  C12 UNL     1      -0.317  51.345 -17.014  1.00  0.00     0.111 A 
HETATM    8  N7  UNL     1      -1.241  50.838 -17.863  1.00  0.00    -0.351 N 
ATOM      9  H7  UNL     1      -1.934  50.170 -17.526  1.00  0.00     0.166 HD
HETATM   10  C22 UNL     1      -1.242  51.220 -19.168  1.00  0.00     0.107 A 
HETATM   11  C23 UNL     1      -0.296  52.133 -19.634  1.00  0.00     0.052 A 
HETATM   12  H18 UNL     1       2.179  54.053 -19.136  1.00  0.00     0.187 HD
ENDROOT
BRANCH   7  13
HETATM   13  N5  UNL     1      -0.477  50.892 -15.706  1.00  0.00    -0.295 N 
HETATM   14  C13 UNL     1      -0.117  51.512 -14.539  1.00  0.00     0.322 C 
HETATM   15  O1  UNL     1       0.519  52.550 -14.435  1.00  0.00    -0.247 OA
HETATM   16  N6  UNL     1      -0.573  50.814 -13.445  1.00  0.00    -0.335 N 
HETATM   17  H21 UNL     1      -1.355  50.193 -13.600  1.00  0.00     0.165 HD
HETATM   18  H20 UNL     1      -0.808  49.943 -15.663  1.00  0.00     0.172 HD
BRANCH  16  19
HETATM   19  C14 UNL     1      -0.411  51.334 -12.094  1.00  0.00     0.115 C 
HETATM   20  C15 UNL     1       0.071  50.234 -11.149  1.00  0.00     0.037 C 
BRANCH  19  21
HETATM   21  C16 UNL     1      -1.709  51.997 -11.668  1.00  0.00    -0.036 A 
HETATM   22  C17 UNL     1      -2.739  52.297 -12.572  1.00  0.00     0.009 A 
HETATM   23  C18 UNL     1      -3.889  52.964 -12.147  1.00  0.00     0.001 A 
HETATM   24  C19 UNL     1      -4.020  53.353 -10.815  1.00  0.00     0.000 A 
HETATM   25  C20 UNL     1      -3.003  53.071  -9.904  1.00  0.00     0.001 A 
HETATM   26  C21 UNL     1      -1.855  52.403 -10.329  1.00  0.00     0.009 A 
ENDBRANCH  19  21
ENDBRANCH  16  19
ENDBRANCH   7  13
BRANCH   1  27
HETATM   27  N2  UNL     1      -0.689  52.503 -22.007  1.00  0.00    -0.370 N 
HETATM   28  H17 UNL     1      -1.668  52.248 -21.849  1.00  0.00     0.161 HD
BRANCH  27  29
HETATM   29  C2  UNL     1      -0.171  51.710 -23.126  1.00  0.00     0.081 C 
HETATM   30  C1  UNL     1      -1.276  51.020 -23.927  1.00  0.00     0.032 C 
BRANCH  29  31
HETATM   31  C3  UNL     1       0.778  52.529 -24.023  1.00  0.00     0.060 C 
BRANCH  31  32
HETATM   32  C4  UNL     1       0.631  52.326 -25.551  1.00  0.00     0.222 C 
HETATM   33  C5  UNL     1       1.858  51.636 -26.179  1.00  0.00     0.036 C 
HETATM   34  C6  UNL     1       1.882  51.726 -27.709  1.00  0.00     0.004 C 
HETATM   35  C7  UNL     1       0.504  52.061 -28.266  1.00  0.00     0.030 C 
HETATM   36  C8  UNL     1      -0.038  53.359 -27.660  1.00  0.00     0.270 C 
HETATM   37  N1  UNL     1       0.349  53.575 -26.266  1.00  0.00     0.088 N 
HETATM   38  H16 UNL     1      -0.399  54.081 -25.786  1.00  0.00     0.316 HD
ENDBRANCH  31  32
ENDBRANCH  29  31
ENDBRANCH  27  29
ENDBRANCH   1  27
TORSDOF 7
ENDMDL
MODEL 7
REMARK minimizedAffinity -8.73408127
REMARK  7 active torsions:
REMARK  status: ('A' for Active; 'I' for Inactive)
REMARK    1  A    between atoms: C2_2  and  C3_3 
REMARK    2  A    between atoms: C2_2  and  N2_10 
REMARK    3  A    between atoms: C3_3  and  C4_4 
REMARK    4  A    between atoms: N2_10  and  C9_11 
REMARK    5  A    between atoms: C12_17  and  N5_18 
REMARK       I    between atoms: N5_18  and  C13_19 
REMARK       I    between atoms: C13_19  and  N6_21 
REMARK    6  A    between atoms: N6_21  and  C14_22 
REMARK    7  A    between atoms: C14_22  and  C16_24 
ROOT
HETATM    1  C9  UNL     1       1.444  51.594 -15.321  1.00  0.00     0.130 A 
HETATM    2  N3  UNL     1       2.304  52.610 -15.367  1.00  0.00    -0.284 N 
ATOM      3  H3  UNL     1       2.949  52.916 -14.639  1.00  0.00     0.188 HD
HETATM    4  N4  UNL     1       2.131  53.139 -16.586  1.00  0.00    -0.298 N 
HETATM    5  C10 UNL     1       1.168  52.525 -17.333  1.00  0.00     0.067 A 
HETATM    6  C11 UNL     1       0.683  52.764 -18.618  1.00  0.00     0.080 A 
HETATM    7  C12 UNL     1      -0.306  51.890 -19.046  1.00  0.00     0.111 A 
HETATM    8  N7  UNL     1      -0.793  50.876 -18.293  1.00  0.00    -0.351 N 
ATOM      9  H7  UNL     1      -1.525  50.270 -18.662  1.00  0.00     0.166 HD
HETATM   10  C22 UNL     1      -0.303  50.669 -17.041  1.00  0.00     0.107 A 
HETATM   11  C23 UNL     1       0.698  51.495 -16.532  1.00  0.00     0.052 A 
HETATM   12  H18 UNL     1       2.708  53.929 -16.850  1.00  0.00     0.187 HD
ENDROOT
BRANCH   7  13
HETATM   13  N5  UNL     1      -0.876  51.942 -20.317  1.00  0.00    -0.295 N 
HETATM   14  C13 UNL     1      -0.255  51.843 -21.535  1.00  0.00     0.322 C 
HETATM   15  O1  UNL     1       0.949  51.798 -21.733  1.00  0.00    -0.247 OA
HETATM   16  N6  UNL     1      -1.174  51.794 -22.557  1.00  0.00    -0.335 N 
HETATM   17  H21 UNL     1      -2.106  51.492 -22.311  1.00  0.00     0.165 HD
HETATM   18  H20 UNL     1      -1.852  52.186 -20.294  1.00  0.00     0.172 HD
BRANCH  16  19
HETATM   19  C14 UNL     1      -0.759  51.576 -23.936  1.00  0.00     0.115 C 
HETATM   20  C15 UNL     1      -0.712  52.901 -24.698  1.00  0.00     0.037 C 
BRANCH  19  21
HETATM   21  C16 UNL     1      -1.668  50.531 -24.560  1.00  0.00    -0.036 A 
HETATM   22  C17 UNL     1      -2.450  49.655 -23.794  1.00  0.00     0.009 A 
HETATM   23  C18 UNL     1      -3.222  48.667 -24.408  1.00  0.00     0.001 A 
HETATM   24  C19 UNL     1      -3.212  48.534 -25.796  1.00  0.00     0.000 A 
HETATM   25  C20 UNL     1      -2.434  49.391 -26.572  1.00  0.00     0.001 A 
HETATM   26  C21 UNL     1      -1.663  50.378 -25.958  1.00  0.00     0.009 A 
ENDBRANCH  19  21
ENDBRANCH  16  19
ENDBRANCH   7  13
BRANCH   1  27
HETATM   27  N2  UNL     1       1.242  50.746 -14.281  1.00  0.00    -0.370 N 
HETATM   28  H17 UNL     1       1.475  49.770 -14.480  1.00  0.00     0.161 HD
BRANCH  27  29
HETATM   29  C2  UNL     1       0.058  50.783 -13.419  1.00  0.00     0.081 C 
HETATM   30  C1  UNL     1       0.288  50.110 -12.065  1.00  0.00     0.032 C 
BRANCH  29  31
HETATM   31  C3  UNL     1      -0.506  52.211 -13.275  1.00  0.00     0.060 C 
BRANCH  31  32
HETATM   32  C4  UNL     1      -1.520  52.440 -12.126  1.00  0.00     0.222 C 
HETATM   33  C5  UNL     1      -2.983  52.393 -12.607  1.00  0.00     0.036 C 
HETATM   34  C6  UNL     1      -3.975  52.940 -11.574  1.00  0.00     0.004 C 
HETATM   35  C7  UNL     1      -3.360  52.976 -10.181  1.00  0.00     0.030 C 
HETATM   36  C8  UNL     1      -2.065  53.793 -10.167  1.00  0.00     0.270 C 
HETATM   37  N1  UNL     1      -1.280  53.691 -11.398  1.00  0.00     0.088 N 
HETATM   38  H16 UNL     1      -0.287  53.767 -11.170  1.00  0.00     0.316 HD
ENDBRANCH  31  32
ENDBRANCH  29  31
ENDBRANCH  27  29
ENDBRANCH   1  27
TORSDOF 7
ENDMDL
MODEL 8
REMARK minimizedAffinity -8.66720009
REMARK  7 active torsions:
REMARK  status: ('A' for Active; 'I' for Inactive)
REMARK    1  A    between atoms: C2_2  and  C3_3 
REMARK    2  A    between atoms: C2_2  and  N2_10 
REMARK    3  A    between atoms: C3_3  and  C4_4 
REMARK    4  A    between atoms: N2_10  and  C9_11 
REMARK    5  A    between atoms: C12_17  and  N5_18 
REMARK       I    between atoms: N5_18  and  C13_19 
REMARK       I    between atoms: C13_19  and  N6_21 
REMARK    6  A    between atoms: N6_21  and  C14_22 
REMARK    7  A    between atoms: C14_22  and  C16_24 
ROOT
HETATM    1  C9  UNL     1      -4.626  49.419 -24.535  1.00  0.00     0.130 A 
HETATM    2  N3  UNL     1      -5.707  50.189 -24.424  1.00  0.00    -0.284 N 
ATOM      3  H3  UNL     1      -6.507  50.238 -25.055  1.00  0.00     0.188 HD
HETATM    4  N4  UNL     1      -5.507  50.885 -23.296  1.00  0.00    -0.298 N 
HETATM    5  C10 UNL     1      -4.320  50.621 -22.677  1.00  0.00     0.067 A 
HETATM    6  C11 UNL     1      -3.736  51.123 -21.514  1.00  0.00     0.080 A 
HETATM    7  C12 UNL     1      -2.501  50.578 -21.193  1.00  0.00     0.111 A 
HETATM    8  N7  UNL     1      -1.878  49.634 -21.936  1.00  0.00    -0.351 N 
ATOM      9  H7  UNL     1      -0.967  49.276 -21.650  1.00  0.00     0.166 HD
HETATM   10  C22 UNL     1      -2.470  49.165 -23.067  1.00  0.00     0.107 A 
HETATM   11  C23 UNL     1      -3.715  49.652 -23.463  1.00  0.00     0.052 A 
HETATM   12  H18 UNL     1      -6.227  51.534 -23.001  1.00  0.00     0.187 HD
ENDROOT
BRANCH   7  13
HETATM   13  N5  UNL     1      -1.789  50.919 -20.044  1.00  0.00    -0.295 N 
HETATM   14  C13 UNL     1      -0.707  51.751 -19.927  1.00  0.00     0.322 C 
HETATM   15  O1  UNL     1      -0.089  52.271 -20.844  1.00  0.00    -0.247 OA
HETATM   16  N6  UNL     1      -0.376  51.951 -18.607  1.00  0.00    -0.335 N 
HETATM   17  H21 UNL     1      -1.107  51.788 -17.929  1.00  0.00     0.165 HD
HETATM   18  H20 UNL     1      -2.076  50.387 -19.239  1.00  0.00     0.172 HD
BRANCH  16  19
HETATM   19  C14 UNL     1       0.672  52.886 -18.224  1.00  0.00     0.115 C 
HETATM   20  C15 UNL     1       1.537  53.249 -19.432  1.00  0.00     0.037 C 
BRANCH  19  21
HETATM   21  C16 UNL     1       1.448  52.299 -17.058  1.00  0.00    -0.036 A 
HETATM   22  C17 UNL     1       0.889  51.368 -16.170  1.00  0.00     0.009 A 
HETATM   23  C18 UNL     1       1.618  50.903 -15.074  1.00  0.00     0.001 A 
HETATM   24  C19 UNL     1       2.910  51.372 -14.842  1.00  0.00     0.000 A 
HETATM   25  C20 UNL     1       3.477  52.304 -15.710  1.00  0.00     0.001 A 
HETATM   26  C21 UNL     1       2.750  52.768 -16.805  1.00  0.00     0.009 A 
ENDBRANCH  19  21
ENDBRANCH  16  19
ENDBRANCH   7  13
BRANCH   1  27
HETATM   27  N2  UNL     1      -4.359  48.530 -25.525  1.00  0.00    -0.370 N 
HETATM   28  H17 UNL     1      -4.078  47.602 -25.197  1.00  0.00     0.161 HD
BRANCH  27  29
HETATM   29  C2  UNL     1      -3.588  48.858 -26.727  1.00  0.00     0.081 C 
HETATM   30  C1  UNL     1      -4.256  48.368 -28.013  1.00  0.00     0.032 C 
BRANCH  29  31
HETATM   31  C3  UNL     1      -3.225  50.355 -26.790  1.00  0.00     0.060 C 
BRANCH  31  32
HETATM   32  C4  UNL     1      -1.742  50.695 -27.082  1.00  0.00     0.222 C 
HETATM   33  C5  UNL     1      -0.870  50.686 -25.810  1.00  0.00     0.036 C 
HETATM   34  C6  UNL     1       0.503  51.336 -26.017  1.00  0.00     0.004 C 
HETATM   35  C7  UNL     1       0.856  51.424 -27.497  1.00  0.00     0.030 C 
HETATM   36  C8  UNL     1      -0.220  52.181 -28.280  1.00  0.00     0.270 C 
HETATM   37  N1  UNL     1      -1.580  51.973 -27.782  1.00  0.00     0.088 N 
HETATM   38  H16 UNL     1      -2.234  52.018 -28.566  1.00  0.00     0.316 HD
ENDBRANCH  31  32
ENDBRANCH  29  31
ENDBRANCH  27  29
ENDBRANCH   1  27
TORSDOF 7
ENDMDL
MODEL 9
REMARK minimizedAffinity -8.55909157
REMARK  7 active torsions:
REMARK  status: ('A' for Active; 'I' for Inactive)
REMARK    1  A    between atoms: C2_2  and  C3_3 
REMARK    2  A    between atoms: C2_2  and  N2_10 
REMARK    3  A    between atoms: C3_3  and  C4_4 
REMARK    4  A    between atoms: N2_10  and  C9_11 
REMARK    5  A    between atoms: C12_17  and  N5_18 
REMARK       I    between atoms: N5_18  and  C13_19 
REMARK       I    between atoms: C13_19  and  N6_21 
REMARK    6  A    between atoms: N6_21  and  C14_22 
REMARK    7  A    between atoms: C14_22  and  C16_24 
ROOT
HETATM    1  C9  UNL     1      -0.066  52.105 -23.170  1.00  0.00     0.130 A 
HETATM    2  N3  UNL     1       0.567  53.136 -23.728  1.00  0.00    -0.284 N 
ATOM      3  H3  UNL     1       0.640  53.362 -24.720  1.00  0.00     0.188 HD
HETATM    4  N4  UNL     1       1.087  53.809 -22.692  1.00  0.00    -0.298 N 
HETATM    5  C10 UNL     1       0.843  53.242 -21.475  1.00  0.00     0.067 A 
HETATM    6  C11 UNL     1       1.204  53.611 -20.180  1.00  0.00     0.080 A 
HETATM    7  C12 UNL     1       0.737  52.772 -19.177  1.00  0.00     0.111 A 
HETATM    8  N7  UNL     1      -0.008  51.667 -19.407  1.00  0.00    -0.351 N 
ATOM      9  H7  UNL     1      -0.318  51.087 -18.628  1.00  0.00     0.166 HD
HETATM   10  C22 UNL     1      -0.343  51.330 -20.682  1.00  0.00     0.107 A 
HETATM   11  C23 UNL     1       0.078  52.120 -21.751  1.00  0.00     0.052 A 
HETATM   12  H18 UNL     1       1.606  54.657 -22.886  1.00  0.00     0.187 HD
ENDROOT
BRANCH   7  13
HETATM   13  N5  UNL     1       0.955  53.006 -17.820  1.00  0.00    -0.295 N 
HETATM   14  C13 UNL     1       1.071  52.094 -16.805  1.00  0.00     0.322 C 
HETATM   15  O1  UNL     1       0.893  50.888 -16.891  1.00  0.00    -0.247 OA
HETATM   16  N6  UNL     1       1.429  52.705 -15.627  1.00  0.00    -0.335 N 
HETATM   17  H21 UNL     1       1.883  53.604 -15.705  1.00  0.00     0.165 HD
HETATM   18  H20 UNL     1       0.914  53.984 -17.585  1.00  0.00     0.172 HD
BRANCH  16  19
HETATM   19  C14 UNL     1       1.721  51.928 -14.430  1.00  0.00     0.115 C 
HETATM   20  C15 UNL     1       2.425  50.621 -14.797  1.00  0.00     0.037 C 
BRANCH  19  21
HETATM   21  C16 UNL     1       0.436  51.743 -13.643  1.00  0.00    -0.036 A 
HETATM   22  C17 UNL     1      -0.038  52.699 -12.732  1.00  0.00     0.009 A 
HETATM   23  C18 UNL     1      -1.191  52.459 -11.983  1.00  0.00     0.001 A 
HETATM   24  C19 UNL     1      -1.879  51.255 -12.124  1.00  0.00     0.000 A 
HETATM   25  C20 UNL     1      -1.417  50.290 -13.018  1.00  0.00     0.001 A 
HETATM   26  C21 UNL     1      -0.266  50.530 -13.767  1.00  0.00     0.009 A 
ENDBRANCH  19  21
ENDBRANCH  16  19
ENDBRANCH   7  13
BRANCH   1  27
HETATM   27  N2  UNL     1      -0.752  51.127 -23.813  1.00  0.00    -0.370 N 
HETATM   28  H17 UNL     1      -0.245  50.695 -24.590  1.00  0.00     0.161 HD
BRANCH  27  29
HETATM   29  C2  UNL     1      -2.169  51.227 -24.171  1.00  0.00     0.081 C 
HETATM   30  C1  UNL     1      -2.788  52.569 -23.778  1.00  0.00     0.032 C 
BRANCH  29  31
HETATM   31  C3  UNL     1      -2.414  50.882 -25.654  1.00  0.00     0.060 C 
BRANCH  31  32
HETATM   32  C4  UNL     1      -1.405  51.464 -26.675  1.00  0.00     0.222 C 
HETATM   33  C5  UNL     1      -0.017  50.801 -26.581  1.00  0.00     0.036 C 
HETATM   34  C6  UNL     1       1.072  51.574 -27.334  1.00  0.00     0.004 C 
HETATM   35  C7  UNL     1       0.467  52.536 -28.349  1.00  0.00     0.030 C 
HETATM   36  C8  UNL     1      -0.514  53.503 -27.680  1.00  0.00     0.270 C 
HETATM   37  N1  UNL     1      -1.265  52.920 -26.568  1.00  0.00     0.088 N 
HETATM   38  H16 UNL     1      -2.191  53.349 -26.527  1.00  0.00     0.316 HD
ENDBRANCH  31  32
ENDBRANCH  29  31
ENDBRANCH  27  29
ENDBRANCH   1  27
TORSDOF 7
ENDMDL
