MODEL 1
REMARK minimizedAffinity -8.9603796
REMARK  4 active torsions:
REMARK  status: ('A' for Active; 'I' for Inactive)
REMARK    1  A    between atoms: C2_2  and  N1_3 
REMARK    2  A    between atoms: C2_2  and  C14_25 
REMARK       I    between atoms: N1_3  and  C3_4 
REMARK       I    between atoms: C3_4  and  N2_6 
REMARK    3  A    between atoms: N2_6  and  C4_7 
REMARK    4  A    between atoms: N5_14  and  C8_15 
ROOT
HETATM    1  C4  UNL     1      -3.254  48.744 -24.970  1.00  0.00     0.111 A 
HETATM    2  C5  UNL     1      -4.612  48.568 -24.733  1.00  0.00     0.080 A 
HETATM    3  C6  UNL     1      -5.378  48.281 -25.863  1.00  0.00     0.067 A 
HETATM    4  N3  UNL     1      -6.715  48.056 -26.030  1.00  0.00    -0.298 N 
HETATM    5  N4  UNL     1      -7.076  47.798 -27.298  1.00  0.00    -0.284 N 
ATOM      6  H4  UNL     1      -8.008  47.591 -27.655  1.00  0.00     0.188 HD
HETATM    7  C7  UNL     1      -5.933  47.875 -27.984  1.00  0.00     0.130 A 
HETATM    8  N5  UNL     1      -5.811  47.693 -29.315  1.00  0.00    -0.369 N 
HETATM    9  C12 UNL     1      -4.831  48.173 -27.134  1.00  0.00     0.052 A 
HETATM   10  C13 UNL     1      -3.457  48.362 -27.280  1.00  0.00     0.107 A 
HETATM   11  N6  UNL     1      -2.687  48.642 -26.195  1.00  0.00    -0.351 N 
ATOM     12  H6  UNL     1      -1.681  48.776 -26.303  1.00  0.00     0.166 HD
HETATM   13  H8  UNL     1      -7.435  48.062 -25.318  1.00  0.00     0.187 HD
HETATM   14  H9  UNL     1      -4.885  47.614 -29.745  1.00  0.00     0.161 HD
ENDROOT
BRANCH   1  15
HETATM   15  N2  UNL     1      -2.329  49.031 -23.967  1.00  0.00    -0.295 N 
HETATM   16  C3  UNL     1      -2.446  49.910 -22.923  1.00  0.00     0.322 C 
HETATM   17  N1  UNL     1      -1.320  49.881 -22.127  1.00  0.00    -0.335 N 
HETATM   18  O1  UNL     1      -3.398  50.645 -22.696  1.00  0.00    -0.247 OA
HETATM   19  H5  UNL     1      -0.860  48.984 -22.083  1.00  0.00     0.165 HD
HETATM   20  H6  UNL     1      -1.435  48.598 -24.134  1.00  0.00     0.172 HD
BRANCH  17  21
HETATM   21  C2  UNL     1      -1.242  50.684 -20.915  1.00  0.00     0.115 C 
HETATM   22  C1  UNL     1      -2.629  51.112 -20.425  1.00  0.00     0.037 C 
BRANCH  21  23
HETATM   23  C14 UNL     1      -0.348  51.888 -21.159  1.00  0.00    -0.036 A 
HETATM   24  C15 UNL     1       0.120  52.204 -22.446  1.00  0.00     0.009 A 
HETATM   25  C16 UNL     1       0.954  53.305 -22.651  1.00  0.00     0.001 A 
HETATM   26  C17 UNL     1       1.335  54.102 -21.573  1.00  0.00     0.000 A 
HETATM   27  C18 UNL     1       0.883  53.798 -20.291  1.00  0.00     0.001 A 
HETATM   28  C19 UNL     1       0.049  52.697 -20.084  1.00  0.00     0.009 A 
ENDBRANCH  21  23
ENDBRANCH  17  21
ENDBRANCH   1  15
BRANCH   8  29
HETATM   29  C8  UNL     1      -6.919  47.206 -30.128  1.00  0.00     0.095 C 
HETATM   30  C9  UNL     1      -6.701  45.764 -30.577  1.00  0.00     0.038 C 
HETATM   31  C10 UNL     1      -5.590  45.775 -31.611  1.00  0.00     0.111 C 
HETATM   32  S1  UNL     1      -5.650  47.382 -32.497  1.00  0.00     0.017 S 
HETATM   33  O2  UNL     1      -4.291  48.221 -32.028  1.00  0.00    -0.258 OA
HETATM   34  C11 UNL     1      -7.015  47.991 -31.432  1.00  0.00     0.133 C 
ENDBRANCH   8  29
TORSDOF 4
ENDMDL
MODEL 2
REMARK minimizedAffinity -8.78602505
REMARK  4 active torsions:
REMARK  status: ('A' for Active; 'I' for Inactive)
REMARK    1  A    between atoms: C2_2  and  N1_3 
REMARK    2  A    between atoms: C2_2  and  C14_25 
REMARK       I    between atoms: N1_3  and  C3_4 
REMARK       I    between atoms: C3_4  and  N2_6 
REMARK    3  A    between atoms: N2_6  and  C4_7 
REMARK    4  A    between atoms: N5_14  and  C8_15 
ROOT
HETATM    1  C4  UNL     1      -0.434  50.907 -20.942  1.00  0.00     0.111 A 
HETATM    2  C5  UNL     1       0.306  52.041 -20.628  1.00  0.00     0.080 A 
HETATM    3  C6  UNL     1       0.556  52.226 -19.268  1.00  0.00     0.067 A 
HETATM    4  N3  UNL     1       1.225  53.203 -18.585  1.00  0.00    -0.298 N 
HETATM    5  N4  UNL     1       1.257  53.020 -17.255  1.00  0.00    -0.284 N 
ATOM      6  H4  UNL     1       1.704  53.608 -16.552  1.00  0.00     0.188 HD
HETATM    7  C7  UNL     1       0.570  51.892 -17.064  1.00  0.00     0.130 A 
HETATM    8  N5  UNL     1       0.334  51.318 -15.866  1.00  0.00    -0.369 N 
HETATM    9  C12 UNL     1       0.107  51.346 -18.294  1.00  0.00     0.052 A 
HETATM   10  C13 UNL     1      -0.626  50.231 -18.699  1.00  0.00     0.107 A 
HETATM   11  N6  UNL     1      -0.884  50.025 -20.018  1.00  0.00    -0.351 N 
ATOM     12  H6  UNL     1      -1.416  49.206 -20.313  1.00  0.00     0.166 HD
HETATM   13  H8  UNL     1       1.683  54.021 -18.969  1.00  0.00     0.187 HD
HETATM   14  H9  UNL     1      -0.064  50.377 -15.812  1.00  0.00     0.161 HD
ENDROOT
BRANCH   1  15
HETATM   15  N2  UNL     1      -0.778  50.550 -22.245  1.00  0.00    -0.295 N 
HETATM   16  C3  UNL     1      -1.025  51.365 -23.317  1.00  0.00     0.322 C 
HETATM   17  N1  UNL     1      -1.304  50.623 -24.446  1.00  0.00    -0.335 N 
HETATM   18  O1  UNL     1      -1.017  52.589 -23.316  1.00  0.00    -0.247 OA
HETATM   19  H5  UNL     1      -0.832  49.732 -24.490  1.00  0.00     0.165 HD
HETATM   20  H6  UNL     1      -0.969  49.565 -22.336  1.00  0.00     0.172 HD
BRANCH  17  21
HETATM   21  C2  UNL     1      -1.532  51.273 -25.729  1.00  0.00     0.115 C 
HETATM   22  C1  UNL     1      -2.560  50.517 -26.577  1.00  0.00     0.037 C 
BRANCH  21  23
HETATM   23  C14 UNL     1      -0.211  51.420 -26.465  1.00  0.00    -0.036 A 
HETATM   24  C15 UNL     1       1.018  51.233 -25.810  1.00  0.00     0.009 A 
HETATM   25  C16 UNL     1       2.224  51.387 -26.498  1.00  0.00     0.001 A 
HETATM   26  C17 UNL     1       2.217  51.734 -27.847  1.00  0.00     0.000 A 
HETATM   27  C18 UNL     1       1.007  51.929 -28.509  1.00  0.00     0.001 A 
HETATM   28  C19 UNL     1      -0.200  51.775 -27.823  1.00  0.00     0.009 A 
ENDBRANCH  21  23
ENDBRANCH  17  21
ENDBRANCH   1  15
BRANCH   8  29
HETATM   29  C8  UNL     1       0.976  51.795 -14.646  1.00  0.00     0.095 C 
HETATM   30  C9  UNL     1       1.757  50.686 -13.947  1.00  0.00     0.038 C 
HETATM   31  C10 UNL     1       0.743  49.720 -13.361  1.00  0.00     0.111 C 
HETATM   32  S1  UNL     1      -0.768  50.669 -12.931  1.00  0.00     0.017 S 
HETATM   33  O2  UNL     1      -1.943  50.179 -14.005  1.00  0.00    -0.258 OA
HETATM   34  C11 UNL     1      -0.068  52.219 -13.620  1.00  0.00     0.133 C 
ENDBRANCH   8  29
TORSDOF 4
ENDMDL
MODEL 3
REMARK minimizedAffinity -8.77737427
REMARK  4 active torsions:
REMARK  status: ('A' for Active; 'I' for Inactive)
REMARK    1  A    between atoms: C2_2  and  N1_3 
REMARK    2  A    between atoms: C2_2  and  C14_25 
REMARK       I    between atoms: N1_3  and  C3_4 
REMARK       I    between atoms: C3_4  and  N2_6 
REMARK    3  A    between atoms: N2_6  and  C4_7 
REMARK    4  A    between atoms: N5_14  and  C8_15 
ROOT
HETATM    1  C4  UNL     1       0.488  52.500 -19.237  1.00  0.00     0.111 A 
HETATM    2  C5  UNL     1      -0.537  51.617 -19.552  1.00  0.00     0.080 A 
HETATM    3  C6  UNL     1      -0.757  51.428 -20.916  1.00  0.00     0.067 A 
HETATM    4  N3  UNL     1      -1.658  50.661 -21.600  1.00  0.00    -0.298 N 
HETATM    5  N4  UNL     1      -1.546  50.742 -22.937  1.00  0.00    -0.284 N 
ATOM      6  H4  UNL     1      -2.097  50.255 -23.642  1.00  0.00     0.188 HD
HETATM    7  C7  UNL     1      -0.546  51.605 -23.128  1.00  0.00     0.130 A 
HETATM    8  N5  UNL     1      -0.081  52.003 -24.331  1.00  0.00    -0.369 N 
HETATM    9  C12 UNL     1      -0.010  52.067 -21.894  1.00  0.00     0.052 A 
HETATM   10  C13 UNL     1       1.003  52.937 -21.488  1.00  0.00     0.107 A 
HETATM   11  N6  UNL     1       1.240  53.139 -20.164  1.00  0.00    -0.351 N 
ATOM     12  H6  UNL     1       1.984  53.771 -19.870  1.00  0.00     0.166 HD
HETATM   13  H8  UNL     1      -2.375  50.059 -21.214  1.00  0.00     0.187 HD
HETATM   14  H9  UNL     1       0.785  52.543 -24.399  1.00  0.00     0.161 HD
ENDROOT
BRANCH   1  15
HETATM   15  N2  UNL     1       0.861  52.812 -17.930  1.00  0.00    -0.295 N 
HETATM   16  C3  UNL     1       0.927  51.985 -16.840  1.00  0.00     0.322 C 
HETATM   17  N1  UNL     1       1.371  52.670 -15.729  1.00  0.00    -0.335 N 
HETATM   18  O1  UNL     1       0.634  50.797 -16.811  1.00  0.00    -0.247 OA
HETATM   19  H5  UNL     1       2.015  53.422 -15.928  1.00  0.00     0.165 HD
HETATM   20  H6  UNL     1       0.978  53.803 -17.789  1.00  0.00     0.172 HD
BRANCH  17  21
HETATM   21  C2  UNL     1       1.588  51.981 -14.465  1.00  0.00     0.115 C 
HETATM   22  C1  UNL     1       1.879  50.490 -14.670  1.00  0.00     0.037 C 
BRANCH  21  23
HETATM   23  C14 UNL     1       0.385  52.188 -13.560  1.00  0.00    -0.036 A 
HETATM   24  C15 UNL     1       0.479  52.938 -12.375  1.00  0.00     0.009 A 
HETATM   25  C16 UNL     1      -0.633  53.106 -11.547  1.00  0.00     0.001 A 
HETATM   26  C17 UNL     1      -1.851  52.524 -11.889  1.00  0.00     0.000 A 
HETATM   27  C18 UNL     1      -1.959  51.773 -13.058  1.00  0.00     0.001 A 
HETATM   28  C19 UNL     1      -0.848  51.604 -13.888  1.00  0.00     0.009 A 
ENDBRANCH  21  23
ENDBRANCH  17  21
ENDBRANCH   1  15
BRANCH   8  29
HETATM   29  C8  UNL     1      -0.522  51.373 -25.571  1.00  0.00     0.095 C 
HETATM   30  C9  UNL     1       0.656  50.984 -26.458  1.00  0.00     0.038 C 
HETATM   31  C10 UNL     1       1.255  52.269 -27.003  1.00  0.00     0.111 C 
HETATM   32  S1  UNL     1      -0.092  53.506 -27.157  1.00  0.00     0.017 S 
HETATM   33  O2  UNL     1       0.208  54.663 -25.998  1.00  0.00    -0.258 OA
HETATM   34  C11 UNL     1      -1.319  52.358 -26.420  1.00  0.00     0.133 C 
ENDBRANCH   8  29
TORSDOF 4
ENDMDL
MODEL 4
REMARK minimizedAffinity -8.71253395
REMARK  4 active torsions:
REMARK  status: ('A' for Active; 'I' for Inactive)
REMARK    1  A    between atoms: C2_2  and  N1_3 
REMARK    2  A    between atoms: C2_2  and  C14_25 
REMARK       I    between atoms: N1_3  and  C3_4 
REMARK       I    between atoms: C3_4  and  N2_6 
REMARK    3  A    between atoms: N2_6  and  C4_7 
REMARK    4  A    between atoms: N5_14  and  C8_15 
ROOT
HETATM    1  C4  UNL     1      -3.195  49.038 -25.046  1.00  0.00     0.111 A 
HETATM    2  C5  UNL     1      -4.529  48.767 -24.767  1.00  0.00     0.080 A 
HETATM    3  C6  UNL     1      -5.293  48.364 -25.861  1.00  0.00     0.067 A 
HETATM    4  N3  UNL     1      -6.611  48.025 -25.982  1.00  0.00    -0.298 N 
HETATM    5  N4  UNL     1      -6.977  47.676 -27.227  1.00  0.00    -0.284 N 
ATOM      6  H4  UNL     1      -7.897  47.378 -27.549  1.00  0.00     0.188 HD
HETATM    7  C7  UNL     1      -5.859  47.808 -27.944  1.00  0.00     0.130 A 
HETATM    8  N5  UNL     1      -5.752  47.568 -29.268  1.00  0.00    -0.369 N 
HETATM    9  C12 UNL     1      -4.767  48.234 -27.138  1.00  0.00     0.052 A 
HETATM   10  C13 UNL     1      -3.416  48.524 -27.329  1.00  0.00     0.107 A 
HETATM   11  N6  UNL     1      -2.647  48.918 -26.279  1.00  0.00    -0.351 N 
ATOM     12  H6  UNL     1      -1.658  49.125 -26.419  1.00  0.00     0.166 HD
HETATM   13  H8  UNL     1      -7.314  48.011 -25.253  1.00  0.00     0.187 HD
HETATM   14  H9  UNL     1      -4.832  47.540 -29.716  1.00  0.00     0.161 HD
ENDROOT
BRANCH   1  15
HETATM   15  N2  UNL     1      -2.274  49.447 -24.082  1.00  0.00    -0.295 N 
HETATM   16  C3  UNL     1      -1.987  50.717 -23.659  1.00  0.00     0.322 C 
HETATM   17  N1  UNL     1      -1.034  50.701 -22.662  1.00  0.00    -0.335 N 
HETATM   18  O1  UNL     1      -2.481  51.753 -24.086  1.00  0.00    -0.247 OA
HETATM   19  H5  UNL     1      -1.059  49.884 -22.071  1.00  0.00     0.165 HD
HETATM   20  H6  UNL     1      -1.689  48.691 -23.764  1.00  0.00     0.172 HD
BRANCH  17  21
HETATM   21  C2  UNL     1      -0.619  51.934 -22.007  1.00  0.00     0.115 C 
HETATM   22  C1  UNL     1       0.598  52.563 -22.695  1.00  0.00     0.037 C 
BRANCH  21  23
HETATM   23  C14 UNL     1      -0.342  51.659 -20.539  1.00  0.00    -0.036 A 
HETATM   24  C15 UNL     1      -0.679  50.431 -19.946  1.00  0.00     0.009 A 
HETATM   25  C16 UNL     1      -0.432  50.201 -18.591  1.00  0.00     0.001 A 
HETATM   26  C17 UNL     1       0.151  51.196 -17.810  1.00  0.00     0.000 A 
HETATM   27  C18 UNL     1       0.486  52.421 -18.381  1.00  0.00     0.001 A 
HETATM   28  C19 UNL     1       0.240  52.653 -19.737  1.00  0.00     0.009 A 
ENDBRANCH  21  23
ENDBRANCH  17  21
ENDBRANCH   1  15
BRANCH   8  29
HETATM   29  C8  UNL     1      -6.835  46.954 -30.027  1.00  0.00     0.095 C 
HETATM   30  C9  UNL     1      -6.441  45.584 -30.569  1.00  0.00     0.038 C 
HETATM   31  C10 UNL     1      -5.426  45.809 -31.676  1.00  0.00     0.111 C 
HETATM   32  S1  UNL     1      -5.793  47.425 -32.465  1.00  0.00     0.017 S 
HETATM   33  O2  UNL     1      -4.541  48.440 -32.046  1.00  0.00    -0.258 OA
HETATM   34  C11 UNL     1      -7.146  47.772 -31.276  1.00  0.00     0.133 C 
ENDBRANCH   8  29
TORSDOF 4
ENDMDL
MODEL 5
REMARK minimizedAffinity -8.6337862
REMARK  4 active torsions:
REMARK  status: ('A' for Active; 'I' for Inactive)
REMARK    1  A    between atoms: C2_2  and  N1_3 
REMARK    2  A    between atoms: C2_2  and  C14_25 
REMARK       I    between atoms: N1_3  and  C3_4 
REMARK       I    between atoms: C3_4  and  N2_6 
REMARK    3  A    between atoms: N2_6  and  C4_7 
REMARK    4  A    between atoms: N5_14  and  C8_15 
ROOT
HETATM    1  C4  UNL     1      -2.833  49.813 -26.394  1.00  0.00     0.111 A 
HETATM    2  C5  UNL     1      -2.940  50.463 -27.617  1.00  0.00     0.080 A 
HETATM    3  C6  UNL     1      -3.786  49.849 -28.540  1.00  0.00     0.067 A 
HETATM    4  N3  UNL     1      -4.135  50.176 -29.821  1.00  0.00    -0.298 N 
HETATM    5  N4  UNL     1      -5.001  49.322 -30.390  1.00  0.00    -0.284 N 
ATOM      6  H4  UNL     1      -5.406  49.369 -31.325  1.00  0.00     0.188 HD
HETATM    7  C7  UNL     1      -5.211  48.396 -29.451  1.00  0.00     0.130 A 
HETATM    8  N5  UNL     1      -6.018  47.323 -29.583  1.00  0.00    -0.369 N 
HETATM    9  C12 UNL     1      -4.476  48.678 -28.265  1.00  0.00     0.052 A 
HETATM   10  C13 UNL     1      -4.311  48.093 -27.010  1.00  0.00     0.107 A 
HETATM   11  N6  UNL     1      -3.494  48.672 -26.089  1.00  0.00    -0.351 N 
ATOM     12  H6  UNL     1      -3.378  48.245 -25.170  1.00  0.00     0.166 HD
HETATM   13  H8  UNL     1      -3.817  50.970 -30.364  1.00  0.00     0.187 HD
HETATM   14  H9  UNL     1      -6.249  46.746 -28.770  1.00  0.00     0.161 HD
ENDROOT
BRANCH   1  15
HETATM   15  N2  UNL     1      -2.041  50.277 -25.343  1.00  0.00    -0.295 N 
HETATM   16  C3  UNL     1      -2.300  50.244 -23.999  1.00  0.00     0.322 C 
HETATM   17  N1  UNL     1      -1.250  50.776 -23.282  1.00  0.00    -0.335 N 
HETATM   18  O1  UNL     1      -3.315  49.814 -23.466  1.00  0.00    -0.247 OA
HETATM   19  H5  UNL     1      -0.342  50.641 -23.702  1.00  0.00     0.165 HD
HETATM   20  H6  UNL     1      -1.240  50.797 -25.666  1.00  0.00     0.172 HD
BRANCH  17  21
HETATM   21  C2  UNL     1      -1.269  50.784 -21.826  1.00  0.00     0.115 C 
HETATM   22  C1  UNL     1      -2.685  50.975 -21.274  1.00  0.00     0.037 C 
BRANCH  21  23
HETATM   23  C14 UNL     1      -0.328  51.861 -21.312  1.00  0.00    -0.036 A 
HETATM   24  C15 UNL     1       0.343  52.729 -22.191  1.00  0.00     0.009 A 
HETATM   25  C16 UNL     1       1.217  53.703 -21.703  1.00  0.00     0.001 A 
HETATM   26  C17 UNL     1       1.435  53.820 -20.332  1.00  0.00     0.000 A 
HETATM   27  C18 UNL     1       0.782  52.964 -19.448  1.00  0.00     0.001 A 
HETATM   28  C19 UNL     1      -0.093  51.989 -19.934  1.00  0.00     0.009 A 
ENDBRANCH  21  23
ENDBRANCH  17  21
ENDBRANCH   1  15
BRANCH   8  29
HETATM   29  C8  UNL     1      -6.900  47.162 -30.734  1.00  0.00     0.095 C 
HETATM   30  C9  UNL     1      -7.313  45.707 -30.931  1.00  0.00     0.038 C 
HETATM   31  C10 UNL     1      -6.090  44.951 -31.418  1.00  0.00     0.111 C 
HETATM   32  S1  UNL     1      -5.047  46.114 -32.384  1.00  0.00     0.017 S 
HETATM   33  O2  UNL     1      -3.678  46.374 -31.473  1.00  0.00    -0.258 OA
HETATM   34  C11 UNL     1      -6.170  47.520 -32.024  1.00  0.00     0.133 C 
ENDBRANCH   8  29
TORSDOF 4
ENDMDL
MODEL 6
REMARK minimizedAffinity -8.45647621
REMARK  4 active torsions:
REMARK  status: ('A' for Active; 'I' for Inactive)
REMARK    1  A    between atoms: C2_2  and  N1_3 
REMARK    2  A    between atoms: C2_2  and  C14_25 
REMARK       I    between atoms: N1_3  and  C3_4 
REMARK       I    between atoms: C3_4  and  N2_6 
REMARK    3  A    between atoms: N2_6  and  C4_7 
REMARK    4  A    between atoms: N5_14  and  C8_15 
ROOT
HETATM    1  C4  UNL     1       0.758  52.942 -19.797  1.00  0.00     0.111 A 
HETATM    2  C5  UNL     1       1.246  53.987 -20.573  1.00  0.00     0.080 A 
HETATM    3  C6  UNL     1       1.113  53.814 -21.950  1.00  0.00     0.067 A 
HETATM    4  N3  UNL     1       1.470  54.598 -23.010  1.00  0.00    -0.298 N 
HETATM    5  N4  UNL     1       1.159  54.079 -24.209  1.00  0.00    -0.284 N 
ATOM      6  H4  UNL     1       1.318  54.487 -25.130  1.00  0.00     0.188 HD
HETATM    7  C7  UNL     1       0.593  52.905 -23.918  1.00  0.00     0.130 A 
HETATM    8  N5  UNL     1       0.123  52.023 -24.824  1.00  0.00    -0.369 N 
HETATM    9  C12 UNL     1       0.533  52.686 -22.514  1.00  0.00     0.052 A 
HETATM   10  C13 UNL     1       0.068  51.686 -21.660  1.00  0.00     0.107 A 
HETATM   11  N6  UNL     1       0.183  51.830 -20.313  1.00  0.00    -0.351 N 
ATOM     12  H6  UNL     1      -0.162  51.099 -19.690  1.00  0.00     0.166 HD
HETATM   13  H8  UNL     1       1.929  55.501 -22.983  1.00  0.00     0.187 HD
HETATM   14  H9  UNL     1      -0.436  51.220 -24.524  1.00  0.00     0.161 HD
ENDROOT
BRANCH   1  15
HETATM   15  N2  UNL     1       0.795  52.936 -18.403  1.00  0.00    -0.295 N 
HETATM   16  C3  UNL     1       0.520  51.904 -17.546  1.00  0.00     0.322 C 
HETATM   17  N1  UNL     1       0.703  52.291 -16.235  1.00  0.00    -0.335 N 
HETATM   18  O1  UNL     1       0.152  50.779 -17.858  1.00  0.00    -0.247 OA
HETATM   19  H5  UNL     1       1.425  52.984 -16.098  1.00  0.00     0.165 HD
HETATM   20  H6  UNL     1       0.937  53.856 -18.018  1.00  0.00     0.172 HD
BRANCH  17  21
HETATM   21  C2  UNL     1       0.537  51.340 -15.145  1.00  0.00     0.115 C 
HETATM   22  C1  UNL     1      -0.239  51.947 -13.971  1.00  0.00     0.037 C 
BRANCH  21  23
HETATM   23  C14 UNL     1       1.899  50.831 -14.703  1.00  0.00    -0.036 A 
HETATM   24  C15 UNL     1       2.031  49.661 -13.937  1.00  0.00     0.009 A 
HETATM   25  C16 UNL     1       3.289  49.216 -13.525  1.00  0.00     0.001 A 
HETATM   26  C17 UNL     1       4.430  49.937 -13.869  1.00  0.00     0.000 A 
HETATM   27  C18 UNL     1       4.315  51.102 -14.623  1.00  0.00     0.001 A 
HETATM   28  C19 UNL     1       3.058  51.549 -15.036  1.00  0.00     0.009 A 
ENDBRANCH  21  23
ENDBRANCH  17  21
ENDBRANCH   1  15
BRANCH   8  29
HETATM   29  C8  UNL     1       0.027  52.355 -26.241  1.00  0.00     0.095 C 
HETATM   30  C9  UNL     1      -1.208  53.200 -26.542  1.00  0.00     0.038 C 
HETATM   31  C10 UNL     1      -2.420  52.299 -26.390  1.00  0.00     0.111 C 
HETATM   32  S1  UNL     1      -1.919  50.588 -26.829  1.00  0.00     0.017 S 
HETATM   33  O2  UNL     1      -1.949  49.719 -25.410  1.00  0.00    -0.258 OA
HETATM   34  C11 UNL     1      -0.173  51.094 -27.076  1.00  0.00     0.133 C 
ENDBRANCH   8  29
TORSDOF 4
ENDMDL
MODEL 7
REMARK minimizedAffinity -8.38728333
REMARK  4 active torsions:
REMARK  status: ('A' for Active; 'I' for Inactive)
REMARK    1  A    between atoms: C2_2  and  N1_3 
REMARK    2  A    between atoms: C2_2  and  C14_25 
REMARK       I    between atoms: N1_3  and  C3_4 
REMARK       I    between atoms: C3_4  and  N2_6 
REMARK    3  A    between atoms: N2_6  and  C4_7 
REMARK    4  A    between atoms: N5_14  and  C8_15 
ROOT
HETATM    1  C4  UNL     1      -1.120  49.790 -21.178  1.00  0.00     0.111 A 
HETATM    2  C5  UNL     1      -1.640  48.724 -20.453  1.00  0.00     0.080 A 
HETATM    3  C6  UNL     1      -1.352  48.740 -19.089  1.00  0.00     0.067 A 
HETATM    4  N3  UNL     1      -1.674  47.882 -18.075  1.00  0.00    -0.298 N 
HETATM    5  N4  UNL     1      -1.209  48.254 -16.871  1.00  0.00    -0.284 N 
ATOM      6  H4  UNL     1      -1.334  47.780 -15.977  1.00  0.00     0.188 HD
HETATM    7  C7  UNL     1      -0.547  49.387 -17.113  1.00  0.00     0.130 A 
HETATM    8  N5  UNL     1       0.100  50.124 -16.186  1.00  0.00    -0.369 N 
HETATM    9  C12 UNL     1      -0.605  49.744 -18.490  1.00  0.00     0.052 A 
HETATM   10  C13 UNL     1      -0.124  50.778 -19.293  1.00  0.00     0.107 A 
HETATM   11  N6  UNL     1      -0.392  50.788 -20.626  1.00  0.00    -0.351 N 
ATOM     12  H6  UNL     1      -0.043  51.548 -21.211  1.00  0.00     0.166 HD
HETATM   13  H8  UNL     1      -2.209  47.024 -18.139  1.00  0.00     0.187 HD
HETATM   14  H9  UNL     1       0.450  51.057 -16.418  1.00  0.00     0.161 HD
ENDROOT
BRANCH   1  15
HETATM   15  N2  UNL     1      -1.308  49.951 -22.551  1.00  0.00    -0.295 N 
HETATM   16  C3  UNL     1      -1.304  51.107 -23.283  1.00  0.00     0.322 C 
HETATM   17  N1  UNL     1      -1.495  50.842 -24.623  1.00  0.00    -0.335 N 
HETATM   18  O1  UNL     1      -1.160  52.242 -22.848  1.00  0.00    -0.247 OA
HETATM   19  H5  UNL     1      -1.123  49.956 -24.933  1.00  0.00     0.165 HD
HETATM   20  H6  UNL     1      -1.591  49.096 -23.003  1.00  0.00     0.172 HD
BRANCH  17  21
HETATM   21  C2  UNL     1      -1.459  51.913 -25.609  1.00  0.00     0.115 C 
HETATM   22  C1  UNL     1      -2.673  51.870 -26.543  1.00  0.00     0.037 C 
BRANCH  21  23
HETATM   23  C14 UNL     1      -0.158  51.841 -26.391  1.00  0.00    -0.036 A 
HETATM   24  C15 UNL     1      -0.139  51.935 -27.793  1.00  0.00     0.009 A 
HETATM   25  C16 UNL     1       1.063  51.851 -28.497  1.00  0.00     0.001 A 
HETATM   26  C17 UNL     1       2.262  51.666 -27.811  1.00  0.00     0.000 A 
HETATM   27  C18 UNL     1       2.259  51.564 -26.422  1.00  0.00     0.001 A 
HETATM   28  C19 UNL     1       1.057  51.649 -25.716  1.00  0.00     0.009 A 
ENDBRANCH  21  23
ENDBRANCH  17  21
ENDBRANCH   1  15
BRANCH   8  29
HETATM   29  C8  UNL     1      -0.016  49.837 -14.761  1.00  0.00     0.095 C 
HETATM   30  C9  UNL     1      -0.708  50.970 -14.010  1.00  0.00     0.038 C 
HETATM   31  C10 UNL     1       0.255  52.144 -13.974  1.00  0.00     0.111 C 
HETATM   32  S1  UNL     1       1.966  51.478 -13.966  1.00  0.00     0.017 S 
HETATM   33  O2  UNL     1       2.621  51.867 -15.446  1.00  0.00    -0.258 OA
HETATM   34  C11 UNL     1       1.364  49.751 -14.116  1.00  0.00     0.133 C 
ENDBRANCH   8  29
TORSDOF 4
ENDMDL
MODEL 8
REMARK minimizedAffinity -8.38000393
REMARK  4 active torsions:
REMARK  status: ('A' for Active; 'I' for Inactive)
REMARK    1  A    between atoms: C2_2  and  N1_3 
REMARK    2  A    between atoms: C2_2  and  C14_25 
REMARK       I    between atoms: N1_3  and  C3_4 
REMARK       I    between atoms: C3_4  and  N2_6 
REMARK    3  A    between atoms: N2_6  and  C4_7 
REMARK    4  A    between atoms: N5_14  and  C8_15 
ROOT
HETATM    1  C4  UNL     1      -4.647  48.316 -27.105  1.00  0.00     0.111 A 
HETATM    2  C5  UNL     1      -4.729  48.183 -28.485  1.00  0.00     0.080 A 
HETATM    3  C6  UNL     1      -5.976  47.785 -28.968  1.00  0.00     0.067 A 
HETATM    4  N3  UNL     1      -6.434  47.545 -30.232  1.00  0.00    -0.298 N 
HETATM    5  N4  UNL     1      -7.726  47.181 -30.290  1.00  0.00    -0.284 N 
ATOM      6  H4  UNL     1      -8.280  46.965 -31.118  1.00  0.00     0.188 HD
HETATM    7  C7  UNL     1      -8.118  47.168 -29.014  1.00  0.00     0.130 A 
HETATM    8  N5  UNL     1      -9.356  46.848 -28.583  1.00  0.00    -0.369 N 
HETATM    9  C12 UNL     1      -7.061  47.542 -28.138  1.00  0.00     0.052 A 
HETATM   10  C13 UNL     1      -6.890  47.703 -26.763  1.00  0.00     0.107 A 
HETATM   11  N6  UNL     1      -5.685  48.091 -26.265  1.00  0.00    -0.351 N 
ATOM     12  H6  UNL     1      -5.563  48.213 -25.260  1.00  0.00     0.166 HD
HETATM   13  H8  UNL     1      -5.916  47.613 -31.100  1.00  0.00     0.187 HD
HETATM   14  H9  UNL     1      -9.624  47.011 -27.609  1.00  0.00     0.161 HD
ENDROOT
BRANCH   1  15
HETATM   15  N2  UNL     1      -3.487  48.710 -26.438  1.00  0.00    -0.295 N 
HETATM   16  C3  UNL     1      -2.971  49.970 -26.293  1.00  0.00     0.322 C 
HETATM   17  N1  UNL     1      -1.819  49.947 -25.535  1.00  0.00    -0.335 N 
HETATM   18  O1  UNL     1      -3.434  51.002 -26.761  1.00  0.00    -0.247 OA
HETATM   19  H5  UNL     1      -1.794  49.224 -24.831  1.00  0.00     0.165 HD
HETATM   20  H6  UNL     1      -2.930  47.925 -26.138  1.00  0.00     0.172 HD
BRANCH  17  21
HETATM   21  C2  UNL     1      -1.129  51.181 -25.188  1.00  0.00     0.115 C 
HETATM   22  C1  UNL     1      -2.077  52.385 -25.191  1.00  0.00     0.037 C 
BRANCH  21  23
HETATM   23  C14 UNL     1       0.037  51.395 -26.138  1.00  0.00    -0.036 A 
HETATM   24  C15 UNL     1      -0.168  51.631 -27.508  1.00  0.00     0.009 A 
HETATM   25  C16 UNL     1       0.916  51.811 -28.371  1.00  0.00     0.001 A 
HETATM   26  C17 UNL     1       2.217  51.752 -27.877  1.00  0.00     0.000 A 
HETATM   27  C18 UNL     1       2.437  51.513 -26.522  1.00  0.00     0.001 A 
HETATM   28  C19 UNL     1       1.354  51.334 -25.658  1.00  0.00     0.009 A 
ENDBRANCH  21  23
ENDBRANCH  17  21
ENDBRANCH   1  15
BRANCH   8  29
HETATM   29  C8  UNL     1     -10.464  46.652 -29.511  1.00  0.00     0.095 C 
HETATM   30  C9  UNL     1     -11.405  47.854 -29.530  1.00  0.00     0.038 C 
HETATM   31  C10 UNL     1     -12.154  47.863 -28.210  1.00  0.00     0.111 C 
HETATM   32  S1  UNL     1     -12.329  46.126 -27.640  1.00  0.00     0.017 S 
HETATM   33  O2  UNL     1     -11.351  45.978 -26.301  1.00  0.00    -0.258 OA
HETATM   34  C11 UNL     1     -11.348  45.495 -29.057  1.00  0.00     0.133 C 
ENDBRANCH   8  29
TORSDOF 4
ENDMDL
MODEL 9
REMARK minimizedAffinity -8.28395939
REMARK  4 active torsions:
REMARK  status: ('A' for Active; 'I' for Inactive)
REMARK    1  A    between atoms: C2_2  and  N1_3 
REMARK    2  A    between atoms: C2_2  and  C14_25 
REMARK       I    between atoms: N1_3  and  C3_4 
REMARK       I    between atoms: C3_4  and  N2_6 
REMARK    3  A    between atoms: N2_6  and  C4_7 
REMARK    4  A    between atoms: N5_14  and  C8_15 
ROOT
HETATM    1  C4  UNL     1      -0.029  51.640 -20.447  1.00  0.00     0.111 A 
HETATM    2  C5  UNL     1      -0.471  50.325 -20.381  1.00  0.00     0.080 A 
HETATM    3  C6  UNL     1      -0.617  49.814 -19.091  1.00  0.00     0.067 A 
HETATM    4  N3  UNL     1      -1.013  48.590 -18.630  1.00  0.00    -0.298 N 
HETATM    5  N4  UNL     1      -1.034  48.486 -17.291  1.00  0.00    -0.284 N 
ATOM      6  H4  UNL     1      -1.304  47.680 -16.729  1.00  0.00     0.188 HD
HETATM    7  C7  UNL     1      -0.621  49.682 -16.866  1.00  0.00     0.130 A 
HETATM    8  N5  UNL     1      -0.477  50.041 -15.573  1.00  0.00    -0.369 N 
HETATM    9  C12 UNL     1      -0.347  50.559 -17.953  1.00  0.00     0.052 A 
HETATM   10  C13 UNL     1       0.090  51.874 -18.112  1.00  0.00     0.107 A 
HETATM   11  N6  UNL     1       0.240  52.398 -19.358  1.00  0.00    -0.351 N 
ATOM     12  H6  UNL     1       0.555  53.361 -19.472  1.00  0.00     0.166 HD
HETATM   13  H8  UNL     1      -1.284  47.782 -19.179  1.00  0.00     0.187 HD
HETATM   14  H9  UNL     1      -0.307  51.018 -15.322  1.00  0.00     0.161 HD
ENDROOT
BRANCH   1  15
HETATM   15  N2  UNL     1       0.170  52.325 -21.646  1.00  0.00    -0.295 N 
HETATM   16  C3  UNL     1      -0.470  52.154 -22.844  1.00  0.00     0.322 C 
HETATM   17  N1  UNL     1      -0.006  53.051 -23.783  1.00  0.00    -0.335 N 
HETATM   18  O1  UNL     1      -1.337  51.326 -23.093  1.00  0.00    -0.247 OA
HETATM   19  H5  UNL     1       0.292  53.938 -23.404  1.00  0.00     0.165 HD
HETATM   20  H6  UNL     1       0.973  52.934 -21.612  1.00  0.00     0.172 HD
BRANCH  17  21
HETATM   21  C2  UNL     1      -0.590  53.106 -25.116  1.00  0.00     0.115 C 
HETATM   22  C1  UNL     1      -1.954  52.410 -25.170  1.00  0.00     0.037 C 
BRANCH  21  23
HETATM   23  C14 UNL     1       0.378  52.500 -26.119  1.00  0.00    -0.036 A 
HETATM   24  C15 UNL     1       1.597  51.932 -25.710  1.00  0.00     0.009 A 
HETATM   25  C16 UNL     1       2.483  51.394 -26.646  1.00  0.00     0.001 A 
HETATM   26  C17 UNL     1       2.165  51.421 -28.002  1.00  0.00     0.000 A 
HETATM   27  C18 UNL     1       0.963  51.985 -28.424  1.00  0.00     0.001 A 
HETATM   28  C19 UNL     1       0.076  52.524 -27.489  1.00  0.00     0.009 A 
ENDBRANCH  21  23
ENDBRANCH  17  21
ENDBRANCH   1  15
BRANCH   8  29
HETATM   29  C8  UNL     1      -0.942  49.189 -14.484  1.00  0.00     0.095 C 
HETATM   30  C9  UNL     1      -2.451  49.292 -14.289  1.00  0.00     0.038 C 
HETATM   31  C10 UNL     1      -2.739  50.663 -13.704  1.00  0.00     0.111 C 
HETATM   32  S1  UNL     1      -1.294  51.166 -12.690  1.00  0.00     0.017 S 
HETATM   33  O2  UNL     1      -0.569  52.422 -13.508  1.00  0.00    -0.258 OA
HETATM   34  C11 UNL     1      -0.362  49.655 -13.152  1.00  0.00     0.133 C 
ENDBRANCH   8  29
TORSDOF 4
ENDMDL
