MODEL 1
REMARK minimizedAffinity -9.50537109
REMARK  5 active torsions:
REMARK  status: ('A' for Active; 'I' for Inactive)
REMARK    1  A    between atoms: C4_4  and  C5_5 
REMARK    2  A    between atoms: C8_11  and  N3_12 
REMARK       I    between atoms: N3_12  and  C9_13 
REMARK       I    between atoms: C9_13  and  N4_15 
REMARK    3  A    between atoms: N4_15  and  C10_16 
REMARK    4  A    between atoms: C10_16  and  C11_17 
REMARK    5  A    between atoms: C15_23  and  C16_24 
ROOT
HETATM    1  C5  UNL     1      -0.049  52.028 -23.456  1.00  0.00     0.072 A 
HETATM    2  N1  UNL     1       0.798  52.182 -24.489  1.00  0.00    -0.299 N 
ATOM      3  H1  UNL     1       1.714  52.630 -24.485  1.00  0.00     0.187 HD
HETATM    4  N2  UNL     1       0.165  51.613 -25.528  1.00  0.00    -0.299 N 
HETATM    5  C6  UNL     1      -1.074  51.124 -25.228  1.00  0.00     0.065 A 
HETATM    6  C7  UNL     1      -2.037  50.489 -26.011  1.00  0.00     0.080 A 
HETATM    7  C8  UNL     1      -3.202  50.135 -25.344  1.00  0.00     0.111 A 
HETATM    8  N6  UNL     1      -3.421  50.390 -24.032  1.00  0.00    -0.351 N 
ATOM      9  H6  UNL     1      -4.302  50.113 -23.598  1.00  0.00     0.166 HD
HETATM   10  C17 UNL     1      -2.466  51.014 -23.293  1.00  0.00     0.105 A 
HETATM   11  C18 UNL     1      -1.254  51.386 -23.877  1.00  0.00     0.036 A 
HETATM   12  H5  UNL     1       0.635  51.599 -26.426  1.00  0.00     0.187 HD
ENDROOT
BRANCH   7  13
HETATM   13  N3  UNL     1      -4.279  49.497 -25.959  1.00  0.00    -0.295 N 
HETATM   14  C9  UNL     1      -4.274  48.711 -27.079  1.00  0.00     0.322 C 
HETATM   15  O1  UNL     1      -3.295  48.384 -27.738  1.00  0.00    -0.247 OA
HETATM   16  N4  UNL     1      -5.550  48.292 -27.398  1.00  0.00    -0.339 N 
HETATM   17  H8  UNL     1      -6.271  48.960 -27.156  1.00  0.00     0.164 HD
HETATM   18  H7  UNL     1      -5.125  49.552 -25.414  1.00  0.00     0.172 HD
BRANCH  16  19
HETATM   19  C10 UNL     1      -5.756  47.529 -28.609  1.00  0.00     0.165 C 
BRANCH  19  20
HETATM   20  C11 UNL     1      -6.975  48.000 -29.356  1.00  0.00    -0.010 A 
HETATM   21  C12 UNL     1      -8.151  48.245 -28.650  1.00  0.00     0.097 A 
HETATM   22  N5  UNL     1      -9.304  48.667 -29.213  1.00  0.00    -0.375 N 
HETATM   23  C13 UNL     1      -9.298  48.867 -30.545  1.00  0.00     0.088 A 
ATOM     24  H5  UNL     1     -10.142  48.826 -28.655  1.00  0.00     0.164 HD
HETATM   25  C14 UNL     1      -8.185  48.668 -31.342  1.00  0.00     0.034 A 
HETATM   26  C15 UNL     1      -6.992  48.230 -30.746  1.00  0.00     0.058 A 
BRANCH  26  27
HETATM   27  C16 UNL     1      -5.764  48.028 -31.596  1.00  0.00     0.418 C 
HETATM   28  F1  UNL     1      -5.146  46.841 -31.352  1.00  0.00    -0.166 F 
HETATM   29  F2  UNL     1      -6.012  48.052 -32.934  1.00  0.00    -0.166 F 
HETATM   30  F3  UNL     1      -4.825  48.993 -31.377  1.00  0.00    -0.166 F 
ENDBRANCH  26  27
ENDBRANCH  19  20
ENDBRANCH  16  19
ENDBRANCH   7  13
BRANCH   1  31
HETATM   31  C4  UNL     1       0.310  52.507 -22.122  1.00  0.00    -0.004 A 
HETATM   32  C3  UNL     1      -0.058  51.799 -20.977  1.00  0.00     0.038 A 
HETATM   33  C2  UNL     1       0.304  52.300 -19.729  1.00  0.00     0.005 A 
HETATM   34  C1  UNL     1      -0.071  51.558 -18.481  1.00  0.00     0.068 C 
HETATM   35  N7  UNL     1       1.002  53.450 -19.580  1.00  0.00    -0.369 N 
HETATM   36  C20 UNL     1       1.364  54.107 -20.702  1.00  0.00     0.089 A 
ATOM     37  H7  UNL     1       1.246  53.805 -18.656  1.00  0.00     0.165 HD
HETATM   38  C19 UNL     1       1.048  53.682 -21.978  1.00  0.00     0.031 A 
ENDBRANCH   1  31
TORSDOF 5
ENDMDL
MODEL 2
REMARK minimizedAffinity -9.35772419
REMARK  5 active torsions:
REMARK  status: ('A' for Active; 'I' for Inactive)
REMARK    1  A    between atoms: C4_4  and  C5_5 
REMARK    2  A    between atoms: C8_11  and  N3_12 
REMARK       I    between atoms: N3_12  and  C9_13 
REMARK       I    between atoms: C9_13  and  N4_15 
REMARK    3  A    between atoms: N4_15  and  C10_16 
REMARK    4  A    between atoms: C10_16  and  C11_17 
REMARK    5  A    between atoms: C15_23  and  C16_24 
ROOT
HETATM    1  C5  UNL     1       0.649  53.207 -23.740  1.00  0.00     0.072 A 
HETATM    2  N1  UNL     1       1.214  54.400 -23.998  1.00  0.00    -0.299 N 
ATOM      3  H1  UNL     1       1.359  54.840 -24.907  1.00  0.00     0.187 HD
HETATM    4  N2  UNL     1       1.544  54.882 -22.789  1.00  0.00    -0.299 N 
HETATM    5  C6  UNL     1       1.253  54.041 -21.754  1.00  0.00     0.065 A 
HETATM    6  C7  UNL     1       1.448  54.159 -20.378  1.00  0.00     0.080 A 
HETATM    7  C8  UNL     1       1.020  53.073 -19.625  1.00  0.00     0.111 A 
HETATM    8  N6  UNL     1       0.465  51.961 -20.163  1.00  0.00    -0.351 N 
ATOM      9  H6  UNL     1       0.177  51.191 -19.559  1.00  0.00     0.166 HD
HETATM   10  C17 UNL     1       0.290  51.872 -21.507  1.00  0.00     0.105 A 
HETATM   11  C18 UNL     1       0.671  52.926 -22.340  1.00  0.00     0.036 A 
HETATM   12  H5  UNL     1       1.979  55.797 -22.740  1.00  0.00     0.187 HD
ENDROOT
BRANCH   7  13
HETATM   13  N3  UNL     1       1.135  53.006 -18.237  1.00  0.00    -0.295 N 
HETATM   14  C9  UNL     1       0.794  51.974 -17.405  1.00  0.00     0.322 C 
HETATM   15  O1  UNL     1       0.352  50.882 -17.739  1.00  0.00    -0.247 OA
HETATM   16  N4  UNL     1       1.022  52.305 -16.084  1.00  0.00    -0.339 N 
HETATM   17  H8  UNL     1       0.890  53.288 -15.881  1.00  0.00     0.164 HD
HETATM   18  H7  UNL     1       1.642  53.786 -17.852  1.00  0.00     0.172 HD
BRANCH  16  19
HETATM   19  C10 UNL     1       0.630  51.374 -15.051  1.00  0.00     0.165 C 
BRANCH  19  20
HETATM   20  C11 UNL     1       1.057  51.851 -13.688  1.00  0.00    -0.010 A 
HETATM   21  C12 UNL     1       0.187  52.646 -12.945  1.00  0.00     0.097 A 
HETATM   22  N5  UNL     1       0.463  53.132 -11.715  1.00  0.00    -0.375 N 
HETATM   23  C13 UNL     1       1.658  52.813 -11.183  1.00  0.00     0.088 A 
ATOM     24  H5  UNL     1      -0.205  53.717 -11.211  1.00  0.00     0.164 HD
HETATM   25  C14 UNL     1       2.592  52.021 -11.826  1.00  0.00     0.034 A 
HETATM   26  C15 UNL     1       2.295  51.520 -13.103  1.00  0.00     0.058 A 
BRANCH  26  27
HETATM   27  C16 UNL     1       3.294  50.639 -13.809  1.00  0.00     0.418 C 
HETATM   28  F1  UNL     1       3.825  51.229 -14.913  1.00  0.00    -0.166 F 
HETATM   29  F2  UNL     1       4.351  50.275 -13.033  1.00  0.00    -0.166 F 
HETATM   30  F3  UNL     1       2.732  49.472 -14.239  1.00  0.00    -0.166 F 
ENDBRANCH  26  27
ENDBRANCH  19  20
ENDBRANCH  16  19
ENDBRANCH   7  13
BRANCH   1  31
HETATM   31  C4  UNL     1       0.129  52.380 -24.827  1.00  0.00    -0.004 A 
HETATM   32  C3  UNL     1       0.691  52.427 -26.104  1.00  0.00     0.038 A 
HETATM   33  C2  UNL     1       0.156  51.622 -27.107  1.00  0.00     0.005 A 
HETATM   34  C1  UNL     1       0.743  51.648 -28.486  1.00  0.00     0.068 C 
HETATM   35  N7  UNL     1      -0.890  50.792 -26.894  1.00  0.00    -0.369 N 
HETATM   36  C20 UNL     1      -1.405  50.748 -25.647  1.00  0.00     0.089 A 
ATOM     37  H7  UNL     1      -1.275  50.221 -27.646  1.00  0.00     0.165 HD
HETATM   38  C19 UNL     1      -0.937  51.509 -24.594  1.00  0.00     0.031 A 
ENDBRANCH   1  31
TORSDOF 5
ENDMDL
MODEL 3
REMARK minimizedAffinity -9.28561592
REMARK  5 active torsions:
REMARK  status: ('A' for Active; 'I' for Inactive)
REMARK    1  A    between atoms: C4_4  and  C5_5 
REMARK    2  A    between atoms: C8_11  and  N3_12 
REMARK       I    between atoms: N3_12  and  C9_13 
REMARK       I    between atoms: C9_13  and  N4_15 
REMARK    3  A    between atoms: N4_15  and  C10_16 
REMARK    4  A    between atoms: C10_16  and  C11_17 
REMARK    5  A    between atoms: C15_23  and  C16_24 
ROOT
HETATM    1  C5  UNL     1      -0.402  51.677 -24.351  1.00  0.00     0.072 A 
HETATM    2  N1  UNL     1       0.615  52.159 -25.087  1.00  0.00    -0.299 N 
ATOM      3  H1  UNL     1       1.473  52.600 -24.755  1.00  0.00     0.187 HD
HETATM    4  N2  UNL     1       0.246  51.931 -26.358  1.00  0.00    -0.299 N 
HETATM    5  C6  UNL     1      -0.983  51.351 -26.487  1.00  0.00     0.065 A 
HETATM    6  C7  UNL     1      -1.720  50.975 -27.610  1.00  0.00     0.080 A 
HETATM    7  C8  UNL     1      -2.960  50.411 -27.342  1.00  0.00     0.111 A 
HETATM    8  N6  UNL     1      -3.450  50.240 -26.091  1.00  0.00    -0.351 N 
ATOM      9  H6  UNL     1      -4.373  49.826 -25.956  1.00  0.00     0.166 HD
HETATM   10  C17 UNL     1      -2.712  50.620 -25.015  1.00  0.00     0.105 A 
HETATM   11  C18 UNL     1      -1.444  51.177 -25.190  1.00  0.00     0.036 A 
HETATM   12  H5  UNL     1       0.882  52.205 -27.099  1.00  0.00     0.187 HD
ENDROOT
BRANCH   7  13
HETATM   13  N3  UNL     1      -3.839  49.976 -28.333  1.00  0.00    -0.295 N 
HETATM   14  C9  UNL     1      -4.635  48.863 -28.336  1.00  0.00     0.322 C 
HETATM   15  O1  UNL     1      -4.752  48.048 -27.431  1.00  0.00    -0.247 OA
HETATM   16  N4  UNL     1      -5.337  48.756 -29.520  1.00  0.00    -0.339 N 
HETATM   17  H8  UNL     1      -4.840  49.121 -30.323  1.00  0.00     0.164 HD
HETATM   18  H7  UNL     1      -3.959  50.655 -29.069  1.00  0.00     0.172 HD
BRANCH  16  19
HETATM   19  C10 UNL     1      -6.158  47.589 -29.745  1.00  0.00     0.165 C 
BRANCH  19  20
HETATM   20  C11 UNL     1      -6.639  47.520 -31.170  1.00  0.00    -0.010 A 
HETATM   21  C12 UNL     1      -5.885  46.816 -32.107  1.00  0.00     0.097 A 
HETATM   22  N5  UNL     1      -6.216  46.689 -33.411  1.00  0.00    -0.375 N 
HETATM   23  C13 UNL     1      -7.356  47.281 -33.814  1.00  0.00     0.088 A 
ATOM     24  H5  UNL     1      -5.628  46.168 -34.061  1.00  0.00     0.164 HD
HETATM   25  C14 UNL     1      -8.187  47.993 -32.968  1.00  0.00     0.034 A 
HETATM   26  C15 UNL     1      -7.834  48.118 -31.616  1.00  0.00     0.058 A 
BRANCH  26  27
HETATM   27  C16 UNL     1      -8.739  48.874 -30.676  1.00  0.00     0.418 C 
HETATM   28  F1  UNL     1     -10.039  48.488 -30.775  1.00  0.00    -0.166 F 
HETATM   29  F2  UNL     1      -8.405  48.735 -29.364  1.00  0.00    -0.166 F 
HETATM   30  F3  UNL     1      -8.725  50.216 -30.921  1.00  0.00    -0.166 F 
ENDBRANCH  26  27
ENDBRANCH  19  20
ENDBRANCH  16  19
ENDBRANCH   7  13
BRANCH   1  31
HETATM   31  C4  UNL     1      -0.351  51.723 -22.891  1.00  0.00    -0.004 A 
HETATM   32  C3  UNL     1       0.281  52.773 -22.223  1.00  0.00     0.038 A 
HETATM   33  C2  UNL     1       0.306  52.768 -20.831  1.00  0.00     0.005 A 
HETATM   34  C1  UNL     1       0.973  53.886 -20.086  1.00  0.00     0.068 C 
HETATM   35  N7  UNL     1      -0.259  51.784 -20.095  1.00  0.00    -0.369 N 
HETATM   36  C20 UNL     1      -0.882  50.789 -20.761  1.00  0.00     0.089 A 
ATOM     37  H7  UNL     1      -0.218  51.794 -19.076  1.00  0.00     0.165 HD
HETATM   38  C19 UNL     1      -0.956  50.715 -22.139  1.00  0.00     0.031 A 
ENDBRANCH   1  31
TORSDOF 5
ENDMDL
MODEL 4
REMARK minimizedAffinity -9.26926994
REMARK  5 active torsions:
REMARK  status: ('A' for Active; 'I' for Inactive)
REMARK    1  A    between atoms: C4_4  and  C5_5 
REMARK    2  A    between atoms: C8_11  and  N3_12 
REMARK       I    between atoms: N3_12  and  C9_13 
REMARK       I    between atoms: C9_13  and  N4_15 
REMARK    3  A    between atoms: N4_15  and  C10_16 
REMARK    4  A    between atoms: C10_16  and  C11_17 
REMARK    5  A    between atoms: C15_23  and  C16_24 
ROOT
HETATM    1  C5  UNL     1       0.746  53.364 -23.746  1.00  0.00     0.072 A 
HETATM    2  N1  UNL     1       1.390  54.532 -23.917  1.00  0.00    -0.299 N 
ATOM      3  H1  UNL     1       1.610  55.002 -24.796  1.00  0.00     0.187 HD
HETATM    4  N2  UNL     1       1.677  54.941 -22.671  1.00  0.00    -0.299 N 
HETATM    5  C6  UNL     1       1.281  54.075 -21.693  1.00  0.00     0.065 A 
HETATM    6  C7  UNL     1       1.405  54.121 -20.305  1.00  0.00     0.080 A 
HETATM    7  C8  UNL     1       0.876  53.031 -19.627  1.00  0.00     0.111 A 
HETATM    8  N6  UNL     1       0.291  51.977 -20.245  1.00  0.00    -0.351 N 
ATOM      9  H6  UNL     1      -0.073  51.199 -19.694  1.00  0.00     0.166 HD
HETATM   10  C17 UNL     1       0.187  51.957 -21.600  1.00  0.00     0.105 A 
HETATM   11  C18 UNL     1       0.673  53.022 -22.361  1.00  0.00     0.036 A 
HETATM   12  H5  UNL     1       2.159  55.827 -22.556  1.00  0.00     0.187 HD
ENDROOT
BRANCH   7  13
HETATM   13  N3  UNL     1       0.908  52.896 -18.240  1.00  0.00    -0.295 N 
HETATM   14  C9  UNL     1       0.595  51.799 -17.485  1.00  0.00     0.322 C 
HETATM   15  O1  UNL     1       0.261  50.698 -17.901  1.00  0.00    -0.247 OA
HETATM   16  N4  UNL     1       0.715  52.074 -16.136  1.00  0.00    -0.339 N 
HETATM   17  H8  UNL     1       0.496  53.032 -15.894  1.00  0.00     0.164 HD
HETATM   18  H7  UNL     1       1.330  53.690 -17.784  1.00  0.00     0.172 HD
BRANCH  16  19
HETATM   19  C10 UNL     1       0.331  51.061 -15.179  1.00  0.00     0.165 C 
BRANCH  19  20
HETATM   20  C11 UNL     1      -0.299  51.671 -13.956  1.00  0.00    -0.010 A 
HETATM   21  C12 UNL     1       0.506  52.350 -13.043  1.00  0.00     0.097 A 
HETATM   22  N5  UNL     1       0.052  52.934 -11.913  1.00  0.00    -0.375 N 
HETATM   23  C13 UNL     1      -1.270  52.852 -11.669  1.00  0.00     0.088 A 
ATOM     24  H5  UNL     1       0.683  53.415 -11.272  1.00  0.00     0.164 HD
HETATM   25  C14 UNL     1      -2.163  52.214 -12.511  1.00  0.00     0.034 A 
HETATM   26  C15 UNL     1      -1.681  51.612 -13.683  1.00  0.00     0.058 A 
BRANCH  26  27
HETATM   27  C16 UNL     1      -2.643  50.930 -14.622  1.00  0.00     0.418 C 
HETATM   28  F1  UNL     1      -3.739  51.689 -14.893  1.00  0.00    -0.166 F 
HETATM   29  F2  UNL     1      -2.101  50.611 -15.828  1.00  0.00    -0.166 F 
HETATM   30  F3  UNL     1      -3.116  49.758 -14.108  1.00  0.00    -0.166 F 
ENDBRANCH  26  27
ENDBRANCH  19  20
ENDBRANCH  16  19
ENDBRANCH   7  13
BRANCH   1  31
HETATM   31  C4  UNL     1       0.242  52.616 -24.897  1.00  0.00    -0.004 A 
HETATM   32  C3  UNL     1      -1.120  52.586 -25.199  1.00  0.00     0.038 A 
HETATM   33  C2  UNL     1      -1.549  51.855 -26.304  1.00  0.00     0.005 A 
HETATM   34  C1  UNL     1      -3.006  51.809 -26.658  1.00  0.00     0.068 C 
HETATM   35  N7  UNL     1      -0.696  51.170 -27.101  1.00  0.00    -0.369 N 
HETATM   36  C20 UNL     1       0.618  51.230 -26.801  1.00  0.00     0.089 A 
ATOM     37  H7  UNL     1      -1.034  50.631 -27.898  1.00  0.00     0.165 HD
HETATM   38  C19 UNL     1       1.131  51.931 -25.726  1.00  0.00     0.031 A 
ENDBRANCH   1  31
TORSDOF 5
ENDMDL
MODEL 5
REMARK minimizedAffinity -9.24224567
REMARK  5 active torsions:
REMARK  status: ('A' for Active; 'I' for Inactive)
REMARK    1  A    between atoms: C4_4  and  C5_5 
REMARK    2  A    between atoms: C8_11  and  N3_12 
REMARK       I    between atoms: N3_12  and  C9_13 
REMARK       I    between atoms: C9_13  and  N4_15 
REMARK    3  A    between atoms: N4_15  and  C10_16 
REMARK    4  A    between atoms: C10_16  and  C11_17 
REMARK    5  A    between atoms: C15_23  and  C16_24 
ROOT
HETATM    1  C5  UNL     1       0.183  52.101 -23.548  1.00  0.00     0.072 A 
HETATM    2  N1  UNL     1       0.979  52.547 -24.535  1.00  0.00    -0.299 N 
ATOM      3  H1  UNL     1       1.762  53.196 -24.462  1.00  0.00     0.187 HD
HETATM    4  N2  UNL     1       0.511  51.946 -25.641  1.00  0.00    -0.299 N 
HETATM    5  C6  UNL     1      -0.580  51.153 -25.426  1.00  0.00     0.065 A 
HETATM    6  C7  UNL     1      -1.356  50.385 -26.293  1.00  0.00     0.080 A 
HETATM    7  C8  UNL     1      -2.411  49.705 -25.698  1.00  0.00     0.111 A 
HETATM    8  N6  UNL     1      -2.696  49.775 -24.376  1.00  0.00    -0.351 N 
ATOM      9  H6  UNL     1      -3.490  49.259 -23.997  1.00  0.00     0.166 HD
HETATM   10  C17 UNL     1      -1.924  50.534 -23.554  1.00  0.00     0.105 A 
HETATM   11  C18 UNL     1      -0.830  51.236 -24.063  1.00  0.00     0.036 A 
HETATM   12  H5  UNL     1       0.979  52.128 -26.521  1.00  0.00     0.187 HD
ENDROOT
BRANCH   7  13
HETATM   13  N3  UNL     1      -3.298  48.892 -26.402  1.00  0.00    -0.295 N 
HETATM   14  C9  UNL     1      -3.802  49.074 -27.661  1.00  0.00     0.322 C 
HETATM   15  O1  UNL     1      -3.530  49.985 -28.432  1.00  0.00    -0.247 OA
HETATM   16  N4  UNL     1      -4.686  48.066 -27.993  1.00  0.00    -0.339 N 
HETATM   17  H8  UNL     1      -5.203  47.700 -27.203  1.00  0.00     0.164 HD
HETATM   18  H7  UNL     1      -3.472  48.015 -25.936  1.00  0.00     0.172 HD
BRANCH  16  19
HETATM   19  C10 UNL     1      -5.395  48.141 -29.250  1.00  0.00     0.165 C 
BRANCH  19  20
HETATM   20  C11 UNL     1      -6.150  46.871 -29.534  1.00  0.00    -0.010 A 
HETATM   21  C12 UNL     1      -7.079  46.411 -28.603  1.00  0.00     0.097 A 
HETATM   22  N5  UNL     1      -7.812  45.285 -28.749  1.00  0.00    -0.375 N 
HETATM   23  C13 UNL     1      -7.625  44.575 -29.878  1.00  0.00     0.088 A 
ATOM     24  H5  UNL     1      -8.476  44.986 -28.036  1.00  0.00     0.164 HD
HETATM   25  C14 UNL     1      -6.739  44.944 -30.874  1.00  0.00     0.034 A 
HETATM   26  C15 UNL     1      -5.984  46.116 -30.712  1.00  0.00     0.058 A 
BRANCH  26  27
HETATM   27  C16 UNL     1      -5.029  46.543 -31.797  1.00  0.00     0.418 C 
HETATM   28  F1  UNL     1      -5.009  47.891 -31.977  1.00  0.00    -0.166 F 
HETATM   29  F2  UNL     1      -3.739  46.177 -31.568  1.00  0.00    -0.166 F 
HETATM   30  F3  UNL     1      -5.356  46.007 -33.008  1.00  0.00    -0.166 F 
ENDBRANCH  26  27
ENDBRANCH  19  20
ENDBRANCH  16  19
ENDBRANCH   7  13
BRANCH   1  31
HETATM   31  C4  UNL     1       0.405  52.522 -22.166  1.00  0.00    -0.004 A 
HETATM   32  C3  UNL     1      -0.012  51.732 -21.093  1.00  0.00     0.038 A 
HETATM   33  C2  UNL     1       0.219  52.181 -19.796  1.00  0.00     0.005 A 
HETATM   34  C1  UNL     1      -0.212  51.350 -18.623  1.00  0.00     0.068 C 
HETATM   35  N7  UNL     1       0.833  53.356 -19.530  1.00  0.00    -0.369 N 
HETATM   36  C20 UNL     1       1.245  54.095 -20.581  1.00  0.00     0.089 A 
ATOM     37  H7  UNL     1       0.980  53.672 -18.571  1.00  0.00     0.165 HD
HETATM   38  C19 UNL     1       1.059  53.726 -21.900  1.00  0.00     0.031 A 
ENDBRANCH   1  31
TORSDOF 5
ENDMDL
MODEL 6
REMARK minimizedAffinity -9.20979023
REMARK  5 active torsions:
REMARK  status: ('A' for Active; 'I' for Inactive)
REMARK    1  A    between atoms: C4_4  and  C5_5 
REMARK    2  A    between atoms: C8_11  and  N3_12 
REMARK       I    between atoms: N3_12  and  C9_13 
REMARK       I    between atoms: C9_13  and  N4_15 
REMARK    3  A    between atoms: N4_15  and  C10_16 
REMARK    4  A    between atoms: C10_16  and  C11_17 
REMARK    5  A    between atoms: C15_23  and  C16_24 
ROOT
HETATM    1  C5  UNL     1       0.295  53.383 -24.453  1.00  0.00     0.072 A 
HETATM    2  N1  UNL     1       0.769  54.592 -24.803  1.00  0.00    -0.299 N 
ATOM      3  H1  UNL     1       0.730  55.037 -25.720  1.00  0.00     0.187 HD
HETATM    4  N2  UNL     1       1.305  55.081 -23.674  1.00  0.00    -0.299 N 
HETATM    5  C6  UNL     1       1.235  54.232 -22.608  1.00  0.00     0.065 A 
HETATM    6  C7  UNL     1       1.679  54.353 -21.292  1.00  0.00     0.080 A 
HETATM    7  C8  UNL     1       1.430  53.254 -20.480  1.00  0.00     0.111 A 
HETATM    8  N6  UNL     1       0.815  52.128 -20.912  1.00  0.00    -0.351 N 
ATOM      9  H6  UNL     1       0.666  51.349 -20.270  1.00  0.00     0.166 HD
HETATM   10  C17 UNL     1       0.395  52.036 -22.201  1.00  0.00     0.105 A 
HETATM   11  C18 UNL     1       0.585  53.101 -23.083  1.00  0.00     0.036 A 
HETATM   12  H5  UNL     1       1.716  56.008 -23.700  1.00  0.00     0.187 HD
ENDROOT
BRANCH   7  13
HETATM   13  N3  UNL     1       1.803  53.188 -19.137  1.00  0.00    -0.295 N 
HETATM   14  C9  UNL     1       1.103  52.663 -18.086  1.00  0.00     0.322 C 
HETATM   15  O1  UNL     1       0.014  52.107 -18.138  1.00  0.00    -0.247 OA
HETATM   16  N4  UNL     1       1.794  52.821 -16.900  1.00  0.00    -0.339 N 
HETATM   17  H8  UNL     1       2.357  53.661 -16.866  1.00  0.00     0.164 HD
HETATM   18  H7  UNL     1       2.760  53.466 -18.987  1.00  0.00     0.172 HD
BRANCH  16  19
HETATM   19  C10 UNL     1       1.166  52.414 -15.664  1.00  0.00     0.165 C 
BRANCH  19  20
HETATM   20  C11 UNL     1       2.014  51.418 -14.918  1.00  0.00    -0.010 A 
HETATM   21  C12 UNL     1       1.394  50.479 -14.097  1.00  0.00     0.097 A 
HETATM   22  N5  UNL     1       2.051  49.541 -13.380  1.00  0.00    -0.375 N 
HETATM   23  C13 UNL     1       3.394  49.522 -13.482  1.00  0.00     0.088 A 
ATOM     24  H5  UNL     1       1.553  48.878 -12.787  1.00  0.00     0.164 HD
HETATM   25  C14 UNL     1       4.112  50.398 -14.277  1.00  0.00     0.034 A 
HETATM   26  C15 UNL     1       3.419  51.367 -15.017  1.00  0.00     0.058 A 
BRANCH  26  27
HETATM   27  C16 UNL     1       4.184  52.316 -15.904  1.00  0.00     0.418 C 
HETATM   28  F1  UNL     1       5.521  52.305 -15.655  1.00  0.00    -0.166 F 
HETATM   29  F2  UNL     1       4.049  52.057 -17.233  1.00  0.00    -0.166 F 
HETATM   30  F3  UNL     1       3.781  53.609 -15.737  1.00  0.00    -0.166 F 
ENDBRANCH  26  27
ENDBRANCH  19  20
ENDBRANCH  16  19
ENDBRANCH   7  13
BRANCH   1  31
HETATM   31  C4  UNL     1      -0.395  52.543 -25.429  1.00  0.00    -0.004 A 
HETATM   32  C3  UNL     1      -1.203  51.478 -25.025  1.00  0.00     0.038 A 
HETATM   33  C2  UNL     1      -1.835  50.706 -25.996  1.00  0.00     0.005 A 
HETATM   34  C1  UNL     1      -2.713  49.559 -25.591  1.00  0.00     0.068 C 
HETATM   35  N7  UNL     1      -1.700  50.945 -27.320  1.00  0.00    -0.369 N 
HETATM   36  C20 UNL     1      -0.930  51.991 -27.688  1.00  0.00     0.089 A 
ATOM     37  H7  UNL     1      -2.162  50.357 -28.014  1.00  0.00     0.165 HD
HETATM   38  C19 UNL     1      -0.268  52.810 -26.794  1.00  0.00     0.031 A 
ENDBRANCH   1  31
TORSDOF 5
ENDMDL
MODEL 7
REMARK minimizedAffinity -9.08621979
REMARK  5 active torsions:
REMARK  status: ('A' for Active; 'I' for Inactive)
REMARK    1  A    between atoms: C4_4  and  C5_5 
REMARK    2  A    between atoms: C8_11  and  N3_12 
REMARK       I    between atoms: N3_12  and  C9_13 
REMARK       I    between atoms: C9_13  and  N4_15 
REMARK    3  A    between atoms: N4_15  and  C10_16 
REMARK    4  A    between atoms: C10_16  and  C11_17 
REMARK    5  A    between atoms: C15_23  and  C16_24 
ROOT
HETATM    1  C5  UNL     1       0.976  53.571 -23.746  1.00  0.00     0.072 A 
HETATM    2  N1  UNL     1       1.623  54.737 -23.566  1.00  0.00    -0.299 N 
ATOM      3  H1  UNL     1       2.008  55.354 -24.281  1.00  0.00     0.187 HD
HETATM    4  N2  UNL     1       1.647  54.904 -22.234  1.00  0.00    -0.299 N 
HETATM    5  C6  UNL     1       1.076  53.881 -21.532  1.00  0.00     0.065 A 
HETATM    6  C7  UNL     1       0.917  53.669 -20.163  1.00  0.00     0.080 A 
HETATM    7  C8  UNL     1       0.281  52.485 -19.818  1.00  0.00     0.111 A 
HETATM    8  N6  UNL     1      -0.152  51.576 -20.724  1.00  0.00    -0.351 N 
ATOM      9  H6  UNL     1      -0.607  50.718 -20.410  1.00  0.00     0.166 HD
HETATM   10  C17 UNL     1       0.020  51.807 -22.052  1.00  0.00     0.105 A 
HETATM   11  C18 UNL     1       0.631  52.982 -22.491  1.00  0.00     0.036 A 
HETATM   12  H5  UNL     1       2.082  55.742 -21.864  1.00  0.00     0.187 HD
ENDROOT
BRANCH   7  13
HETATM   13  N3  UNL     1       0.035  52.097 -18.501  1.00  0.00    -0.295 N 
HETATM   14  C9  UNL     1       0.902  52.084 -17.443  1.00  0.00     0.322 C 
HETATM   15  O1  UNL     1       2.068  52.456 -17.450  1.00  0.00    -0.247 OA
HETATM   16  N4  UNL     1       0.291  51.594 -16.306  1.00  0.00    -0.339 N 
HETATM   17  H8  UNL     1      -0.415  50.893 -16.492  1.00  0.00     0.164 HD
HETATM   18  H7  UNL     1      -0.942  51.923 -18.325  1.00  0.00     0.172 HD
BRANCH  16  19
HETATM   19  C10 UNL     1       1.079  51.415 -15.108  1.00  0.00     0.165 C 
BRANCH  19  20
HETATM   20  C11 UNL     1       1.368  49.960 -14.852  1.00  0.00    -0.010 A 
HETATM   21  C12 UNL     1       0.475  48.998 -15.318  1.00  0.00     0.097 A 
HETATM   22  N5  UNL     1       0.630  47.667 -15.146  1.00  0.00    -0.375 N 
HETATM   23  C13 UNL     1       1.729  47.259 -14.483  1.00  0.00     0.088 A 
ATOM     24  H5  UNL     1      -0.056  47.001 -15.501  1.00  0.00     0.164 HD
HETATM   25  C14 UNL     1       2.687  48.124 -13.988  1.00  0.00     0.034 A 
HETATM   26  C15 UNL     1       2.517  49.504 -14.174  1.00  0.00     0.058 A 
BRANCH  26  27
HETATM   27  C16 UNL     1       3.562  50.461 -13.658  1.00  0.00     0.418 C 
HETATM   28  F1  UNL     1       4.086  51.245 -14.639  1.00  0.00    -0.166 F 
HETATM   29  F2  UNL     1       3.102  51.314 -12.702  1.00  0.00    -0.166 F 
HETATM   30  F3  UNL     1       4.619  49.808 -13.093  1.00  0.00    -0.166 F 
ENDBRANCH  26  27
ENDBRANCH  19  20
ENDBRANCH  16  19
ENDBRANCH   7  13
BRANCH   1  31
HETATM   31  C4  UNL     1       0.727  53.058 -25.092  1.00  0.00    -0.004 A 
HETATM   32  C3  UNL     1      -0.059  53.768 -26.002  1.00  0.00     0.038 A 
HETATM   33  C2  UNL     1      -0.270  53.234 -27.270  1.00  0.00     0.005 A 
HETATM   34  C1  UNL     1      -1.104  53.977 -28.271  1.00  0.00     0.068 C 
HETATM   35  N7  UNL     1       0.258  52.051 -27.660  1.00  0.00    -0.369 N 
HETATM   36  C20 UNL     1       1.030  51.392 -26.771  1.00  0.00     0.089 A 
ATOM     37  H7  UNL     1       0.079  51.673 -28.590  1.00  0.00     0.165 HD
HETATM   38  C19 UNL     1       1.293  51.847 -25.493  1.00  0.00     0.031 A 
ENDBRANCH   1  31
TORSDOF 5
ENDMDL
MODEL 8
REMARK minimizedAffinity -9.03356743
REMARK  5 active torsions:
REMARK  status: ('A' for Active; 'I' for Inactive)
REMARK    1  A    between atoms: C4_4  and  C5_5 
REMARK    2  A    between atoms: C8_11  and  N3_12 
REMARK       I    between atoms: N3_12  and  C9_13 
REMARK       I    between atoms: C9_13  and  N4_15 
REMARK    3  A    between atoms: N4_15  and  C10_16 
REMARK    4  A    between atoms: C10_16  and  C11_17 
REMARK    5  A    between atoms: C15_23  and  C16_24 
ROOT
HETATM    1  C5  UNL     1      -1.440  50.652 -23.208  1.00  0.00     0.072 A 
HETATM    2  N1  UNL     1      -1.491  49.771 -22.192  1.00  0.00    -0.299 N 
ATOM      3  H1  UNL     1      -0.948  49.781 -21.329  1.00  0.00     0.187 HD
HETATM    4  N2  UNL     1      -2.417  48.876 -22.572  1.00  0.00    -0.299 N 
HETATM    5  C6  UNL     1      -2.949  49.112 -23.807  1.00  0.00     0.065 A 
HETATM    6  C7  UNL     1      -3.905  48.424 -24.554  1.00  0.00     0.080 A 
HETATM    7  C8  UNL     1      -4.192  48.974 -25.796  1.00  0.00     0.111 A 
HETATM    8  N6  UNL     1      -3.592  50.088 -26.279  1.00  0.00    -0.351 N 
ATOM      9  H6  UNL     1      -3.839  50.440 -27.205  1.00  0.00     0.166 HD
HETATM   10  C17 UNL     1      -2.662  50.736 -25.531  1.00  0.00     0.105 A 
HETATM   11  C18 UNL     1      -2.326  50.266 -24.260  1.00  0.00     0.036 A 
HETATM   12  H5  UNL     1      -2.635  48.115 -21.939  1.00  0.00     0.187 HD
ENDROOT
BRANCH   7  13
HETATM   13  N3  UNL     1      -5.116  48.426 -26.686  1.00  0.00    -0.295 N 
HETATM   14  C9  UNL     1      -4.946  48.127 -28.010  1.00  0.00     0.322 C 
HETATM   15  O1  UNL     1      -3.917  48.251 -28.661  1.00  0.00    -0.247 OA
HETATM   16  N4  UNL     1      -6.112  47.633 -28.561  1.00  0.00    -0.339 N 
HETATM   17  H8  UNL     1      -6.953  48.022 -28.153  1.00  0.00     0.164 HD
HETATM   18  H7  UNL     1      -5.960  48.121 -26.228  1.00  0.00     0.172 HD
BRANCH  16  19
HETATM   19  C10 UNL     1      -6.153  47.351 -29.978  1.00  0.00     0.165 C 
BRANCH  19  20
HETATM   20  C11 UNL     1      -6.549  45.924 -30.245  1.00  0.00    -0.010 A 
HETATM   21  C12 UNL     1      -7.536  45.334 -29.457  1.00  0.00     0.097 A 
HETATM   22  N5  UNL     1      -7.969  44.063 -29.602  1.00  0.00    -0.375 N 
HETATM   23  C13 UNL     1      -7.406  43.332 -30.583  1.00  0.00     0.088 A 
ATOM     24  H5  UNL     1      -8.691  43.674 -28.996  1.00  0.00     0.164 HD
HETATM   25  C14 UNL     1      -6.428  43.819 -31.432  1.00  0.00     0.034 A 
HETATM   26  C15 UNL     1      -5.986  45.141 -31.273  1.00  0.00     0.058 A 
BRANCH  26  27
HETATM   27  C16 UNL     1      -4.936  45.693 -32.202  1.00  0.00     0.418 C 
HETATM   28  F1  UNL     1      -5.410  46.689 -32.998  1.00  0.00    -0.166 F 
HETATM   29  F2  UNL     1      -3.852  46.211 -31.561  1.00  0.00    -0.166 F 
HETATM   30  F3  UNL     1      -4.445  44.739 -33.045  1.00  0.00    -0.166 F 
ENDBRANCH  26  27
ENDBRANCH  19  20
ENDBRANCH  16  19
ENDBRANCH   7  13
BRANCH   1  31
HETATM   31  C4  UNL     1      -0.548  51.808 -23.146  1.00  0.00    -0.004 A 
HETATM   32  C3  UNL     1      -0.027  52.255 -21.930  1.00  0.00     0.038 A 
HETATM   33  C2  UNL     1       0.815  53.364 -21.925  1.00  0.00     0.005 A 
HETATM   34  C1  UNL     1       1.395  53.863 -20.635  1.00  0.00     0.068 C 
HETATM   35  N7  UNL     1       1.152  54.028 -23.054  1.00  0.00    -0.369 N 
HETATM   36  C20 UNL     1       0.653  53.567 -24.220  1.00  0.00     0.089 A 
ATOM     37  H7  UNL     1       1.761  54.847 -23.025  1.00  0.00     0.165 HD
HETATM   38  C19 UNL     1      -0.188  52.475 -24.318  1.00  0.00     0.031 A 
ENDBRANCH   1  31
TORSDOF 5
ENDMDL
MODEL 9
REMARK minimizedAffinity -8.94721222
REMARK  5 active torsions:
REMARK  status: ('A' for Active; 'I' for Inactive)
REMARK    1  A    between atoms: C4_4  and  C5_5 
REMARK    2  A    between atoms: C8_11  and  N3_12 
REMARK       I    between atoms: N3_12  and  C9_13 
REMARK       I    between atoms: C9_13  and  N4_15 
REMARK    3  A    between atoms: N4_15  and  C10_16 
REMARK    4  A    between atoms: C10_16  and  C11_17 
REMARK    5  A    between atoms: C15_23  and  C16_24 
ROOT
HETATM    1  C5  UNL     1      -1.882  50.270 -24.921  1.00  0.00     0.072 A 
HETATM    2  N1  UNL     1      -2.118  49.654 -23.749  1.00  0.00    -0.299 N 
ATOM      3  H1  UNL     1      -1.599  49.751 -22.876  1.00  0.00     0.187 HD
HETATM    4  N2  UNL     1      -3.191  48.883 -23.986  1.00  0.00    -0.299 N 
HETATM    5  C6  UNL     1      -3.647  48.940 -25.272  1.00  0.00     0.065 A 
HETATM    6  C7  UNL     1      -4.702  48.293 -25.913  1.00  0.00     0.080 A 
HETATM    7  C8  UNL     1      -4.857  48.603 -27.257  1.00  0.00     0.111 A 
HETATM    8  N6  UNL     1      -4.047  49.457 -27.927  1.00  0.00    -0.351 N 
ATOM      9  H6  UNL     1      -4.206  49.640 -28.918  1.00  0.00     0.166 HD
HETATM   10  C17 UNL     1      -3.023  50.071 -27.277  1.00  0.00     0.105 A 
HETATM   11  C18 UNL     1      -2.806  49.834 -25.919  1.00  0.00     0.036 A 
HETATM   12  H5  UNL     1      -3.562  48.329 -23.222  1.00  0.00     0.187 HD
ENDROOT
BRANCH   7  13
HETATM   13  N3  UNL     1      -5.853  48.054 -28.065  1.00  0.00    -0.295 N 
HETATM   14  C9  UNL     1      -5.903  47.997 -29.431  1.00  0.00     0.322 C 
HETATM   15  O1  UNL     1      -5.046  48.390 -30.211  1.00  0.00    -0.247 OA
HETATM   16  N4  UNL     1      -7.076  47.407 -29.860  1.00  0.00    -0.339 N 
HETATM   17  H8  UNL     1      -7.867  47.582 -29.253  1.00  0.00     0.164 HD
HETATM   18  H7  UNL     1      -6.543  47.545 -27.536  1.00  0.00     0.172 HD
BRANCH  16  19
HETATM   19  C10 UNL     1      -7.352  47.346 -31.278  1.00  0.00     0.165 C 
BRANCH  19  20
HETATM   20  C11 UNL     1      -6.091  47.147 -32.076  1.00  0.00    -0.010 A 
HETATM   21  C12 UNL     1      -5.452  48.257 -32.623  1.00  0.00     0.097 A 
HETATM   22  N5  UNL     1      -4.319  48.199 -33.358  1.00  0.00    -0.375 N 
HETATM   23  C13 UNL     1      -3.781  46.981 -33.558  1.00  0.00     0.088 A 
ATOM     24  H5  UNL     1      -3.891  49.040 -33.743  1.00  0.00     0.164 HD
HETATM   25  C14 UNL     1      -4.323  45.813 -33.052  1.00  0.00     0.034 A 
HETATM   26  C15 UNL     1      -5.499  45.886 -32.290  1.00  0.00     0.058 A 
BRANCH  26  27
HETATM   27  C16 UNL     1      -6.093  44.626 -31.713  1.00  0.00     0.418 C 
HETATM   28  F1  UNL     1      -5.320  43.530 -31.940  1.00  0.00    -0.166 F 
HETATM   29  F2  UNL     1      -6.287  44.676 -30.367  1.00  0.00    -0.166 F 
HETATM   30  F3  UNL     1      -7.314  44.343 -32.252  1.00  0.00    -0.166 F 
ENDBRANCH  26  27
ENDBRANCH  19  20
ENDBRANCH  16  19
ENDBRANCH   7  13
BRANCH   1  31
HETATM   31  C4  UNL     1      -0.786  51.229 -25.050  1.00  0.00    -0.004 A 
HETATM   32  C3  UNL     1       0.265  51.010 -25.942  1.00  0.00     0.038 A 
HETATM   33  C2  UNL     1       1.287  51.952 -26.024  1.00  0.00     0.005 A 
HETATM   34  C1  UNL     1       2.426  51.746 -26.978  1.00  0.00     0.068 C 
HETATM   35  N7  UNL     1       1.304  53.076 -25.273  1.00  0.00    -0.369 N 
HETATM   36  C20 UNL     1       0.268  53.277 -24.431  1.00  0.00     0.089 A 
ATOM     37  H7  UNL     1       2.069  53.746 -25.339  1.00  0.00     0.165 HD
HETATM   38  C19 UNL     1      -0.788  52.397 -24.287  1.00  0.00     0.031 A 
ENDBRANCH   1  31
TORSDOF 5
ENDMDL
