MODEL 1
REMARK minimizedAffinity -7.86027479
REMARK  7 active torsions:
REMARK  status: ('A' for Active; 'I' for Inactive)
REMARK    1  A    between atoms: O1_2  and  C2_3 
REMARK    2  A    between atoms: C2_3  and  C3_4 
REMARK    3  A    between atoms: C3_4  and  O2_5 
REMARK    4  A    between atoms: O2_5  and  C4_6 
REMARK    5  A    between atoms: C7_12  and  N3_13 
REMARK       I    between atoms: N3_13  and  C8_14 
REMARK       I    between atoms: C8_14  and  N4_16 
REMARK    6  A    between atoms: N4_16  and  C9_17 
REMARK    7  A    between atoms: C9_17  and  C11_19 
ROOT
HETATM    1  C4  UNL     1       0.726  53.501 -23.828  1.00  0.00     0.171 A 
HETATM    2  N1  UNL     1       1.356  54.664 -24.011  1.00  0.00    -0.279 N 
ATOM      3  H1  UNL     1       1.521  55.165 -24.884  1.00  0.00     0.189 HD
HETATM    4  N2  UNL     1       1.720  55.014 -22.762  1.00  0.00    -0.298 N 
HETATM    5  C5  UNL     1       1.333  54.122 -21.796  1.00  0.00     0.067 A 
HETATM    6  C6  UNL     1       1.499  54.110 -20.412  1.00  0.00     0.080 A 
HETATM    7  C7  UNL     1       0.958  53.007 -19.761  1.00  0.00     0.111 A 
HETATM    8  N5  UNL     1       0.303  52.006 -20.396  1.00  0.00    -0.351 N 
ATOM      9  H5  UNL     1      -0.077  51.225 -19.862  1.00  0.00     0.166 HD
HETATM   10  C17 UNL     1       0.154  52.041 -21.748  1.00  0.00     0.108 A 
HETATM   11  C18 UNL     1       0.671  53.109 -22.476  1.00  0.00     0.060 A 
HETATM   12  H8  UNL     1       2.233  55.880 -22.631  1.00  0.00     0.187 HD
ENDROOT
BRANCH   7  13
HETATM   13  N3  UNL     1       1.020  52.822 -18.379  1.00  0.00    -0.295 N 
HETATM   14  C8  UNL     1       0.601  51.747 -17.644  1.00  0.00     0.322 C 
HETATM   15  O3  UNL     1       0.051  50.742 -18.074  1.00  0.00    -0.247 OA
HETATM   16  N4  UNL     1       0.870  51.933 -16.303  1.00  0.00    -0.335 N 
HETATM   17  H11 UNL     1       1.700  52.477 -16.117  1.00  0.00     0.165 HD
HETATM   18  H10 UNL     1       1.306  53.657 -17.892  1.00  0.00     0.172 HD
BRANCH  16  19
HETATM   19  C9  UNL     1       0.569  50.889 -15.333  1.00  0.00     0.115 C 
HETATM   20  C10 UNL     1       0.247  49.554 -16.011  1.00  0.00     0.037 C 
BRANCH  19  21
HETATM   21  C11 UNL     1      -0.574  51.341 -14.437  1.00  0.00    -0.036 A 
HETATM   22  C12 UNL     1      -0.337  52.072 -13.259  1.00  0.00     0.011 A 
HETATM   23  C13 UNL     1      -1.397  52.469 -12.442  1.00  0.00     0.024 A 
HETATM   24  C14 UNL     1      -2.703  52.137 -12.792  1.00  0.00     0.034 A 
HETATM   25 CL1  UNL     1      -4.009  52.625 -11.784  1.00  0.00    -0.084 Cl
HETATM   26  C15 UNL     1      -2.958  51.408 -13.951  1.00  0.00     0.024 A 
HETATM   27  C16 UNL     1      -1.898  51.011 -14.769  1.00  0.00     0.011 A 
ENDBRANCH  19  21
ENDBRANCH  16  19
ENDBRANCH   7  13
BRANCH   1  28
HETATM   28  O2  UNL     1       0.194  52.816 -24.865  1.00  0.00    -0.332 OA
BRANCH  28  29
HETATM   29  C3  UNL     1      -0.015  53.576 -26.057  1.00  0.00     0.203 C 
BRANCH  29  30
HETATM   30  C2  UNL     1      -0.954  52.858 -27.028  1.00  0.00     0.193 C 
BRANCH  30  31
HETATM   31  O1  UNL     1      -2.330  53.125 -26.744  1.00  0.00    -0.394 OA
HETATM   32  C1  UNL     1      -3.036  51.962 -26.328  1.00  0.00     0.201 C 
ENDBRANCH  30  31
ENDBRANCH  29  30
ENDBRANCH  28  29
ENDBRANCH   1  28
TORSDOF 7
ENDMDL
MODEL 2
REMARK minimizedAffinity -7.72680902
REMARK  7 active torsions:
REMARK  status: ('A' for Active; 'I' for Inactive)
REMARK    1  A    between atoms: O1_2  and  C2_3 
REMARK    2  A    between atoms: C2_3  and  C3_4 
REMARK    3  A    between atoms: C3_4  and  O2_5 
REMARK    4  A    between atoms: O2_5  and  C4_6 
REMARK    5  A    between atoms: C7_12  and  N3_13 
REMARK       I    between atoms: N3_13  and  C8_14 
REMARK       I    between atoms: C8_14  and  N4_16 
REMARK    6  A    between atoms: N4_16  and  C9_17 
REMARK    7  A    between atoms: C9_17  and  C11_19 
ROOT
HETATM    1  C4  UNL     1      -4.886  48.429 -27.884  1.00  0.00     0.171 A 
HETATM    2  N1  UNL     1      -5.997  47.946 -27.324  1.00  0.00    -0.279 N 
ATOM      3  H1  UNL     1      -6.825  47.566 -27.783  1.00  0.00     0.189 HD
HETATM    4  N2  UNL     1      -5.759  48.085 -26.005  1.00  0.00    -0.298 N 
HETATM    5  C5  UNL     1      -4.535  48.625 -25.712  1.00  0.00     0.067 A 
HETATM    6  C6  UNL     1      -3.909  48.924 -24.502  1.00  0.00     0.080 A 
HETATM    7  C7  UNL     1      -2.639  49.480 -24.615  1.00  0.00     0.111 A 
HETATM    8  N5  UNL     1      -2.026  49.719 -25.798  1.00  0.00    -0.351 N 
ATOM      9  H5  UNL     1      -1.090  50.124 -25.816  1.00  0.00     0.166 HD
HETATM   10  C17 UNL     1      -2.658  49.419 -26.965  1.00  0.00     0.108 A 
HETATM   11  C18 UNL     1      -3.934  48.863 -26.940  1.00  0.00     0.060 A 
HETATM   12  H8  UNL     1      -6.476  47.789 -25.350  1.00  0.00     0.187 HD
ENDROOT
BRANCH   7  13
HETATM   13  N3  UNL     1      -1.857  49.839 -23.517  1.00  0.00    -0.295 N 
HETATM   14  C8  UNL     1      -1.563  51.093 -23.053  1.00  0.00     0.322 C 
HETATM   15  O3  UNL     1      -1.916  52.153 -23.552  1.00  0.00    -0.247 OA
HETATM   16  N4  UNL     1      -0.783  51.028 -21.917  1.00  0.00    -0.335 N 
HETATM   17  H11 UNL     1      -0.959  50.220 -21.337  1.00  0.00     0.165 HD
HETATM   18  H10 UNL     1      -1.371  49.052 -23.117  1.00  0.00     0.172 HD
BRANCH  16  19
HETATM   19  C9  UNL     1      -0.398  52.241 -21.209  1.00  0.00     0.115 C 
HETATM   20  C10 UNL     1       0.763  52.962 -21.899  1.00  0.00     0.037 C 
BRANCH  19  21
HETATM   21  C11 UNL     1      -0.055  51.900 -19.767  1.00  0.00    -0.036 A 
HETATM   22  C12 UNL     1       0.702  52.776 -18.967  1.00  0.00     0.011 A 
HETATM   23  C13 UNL     1       1.019  52.443 -17.649  1.00  0.00     0.024 A 
HETATM   24  C14 UNL     1       0.586  51.230 -17.118  1.00  0.00     0.034 A 
HETATM   25 CL1  UNL     1       0.978  50.819 -15.494  1.00  0.00    -0.084 Cl
HETATM   26  C15 UNL     1      -0.158  50.347 -17.895  1.00  0.00     0.024 A 
HETATM   27  C16 UNL     1      -0.477  50.680 -19.214  1.00  0.00     0.011 A 
ENDBRANCH  19  21
ENDBRANCH  16  19
ENDBRANCH   7  13
BRANCH   1  28
HETATM   28  O2  UNL     1      -4.728  48.458 -29.227  1.00  0.00    -0.332 OA
BRANCH  28  29
HETATM   29  C3  UNL     1      -5.689  47.710 -29.972  1.00  0.00     0.203 C 
BRANCH  29  30
HETATM   30  C2  UNL     1      -5.282  47.570 -31.441  1.00  0.00     0.193 C 
BRANCH  30  31
HETATM   31  O1  UNL     1      -4.136  46.732 -31.604  1.00  0.00    -0.394 OA
HETATM   32  C1  UNL     1      -4.412  45.578 -32.389  1.00  0.00     0.201 C 
ENDBRANCH  30  31
ENDBRANCH  29  30
ENDBRANCH  28  29
ENDBRANCH   1  28
TORSDOF 7
ENDMDL
MODEL 3
REMARK minimizedAffinity -7.71828318
REMARK  7 active torsions:
REMARK  status: ('A' for Active; 'I' for Inactive)
REMARK    1  A    between atoms: O1_2  and  C2_3 
REMARK    2  A    between atoms: C2_3  and  C3_4 
REMARK    3  A    between atoms: C3_4  and  O2_5 
REMARK    4  A    between atoms: O2_5  and  C4_6 
REMARK    5  A    between atoms: C7_12  and  N3_13 
REMARK       I    between atoms: N3_13  and  C8_14 
REMARK       I    between atoms: C8_14  and  N4_16 
REMARK    6  A    between atoms: N4_16  and  C9_17 
REMARK    7  A    between atoms: C9_17  and  C11_19 
ROOT
HETATM    1  C4  UNL     1      -0.256  53.584 -25.751  1.00  0.00     0.171 A 
HETATM    2  N1  UNL     1       0.596  54.576 -25.481  1.00  0.00    -0.279 N 
ATOM      3  H1  UNL     1       0.868  55.358 -26.077  1.00  0.00     0.189 HD
HETATM    4  N2  UNL     1       1.009  54.291 -24.231  1.00  0.00    -0.298 N 
HETATM    5  C5  UNL     1       0.441  53.165 -23.697  1.00  0.00     0.067 A 
HETATM    6  C6  UNL     1       0.588  52.539 -22.460  1.00  0.00     0.080 A 
HETATM    7  C7  UNL     1      -0.171  51.386 -22.287  1.00  0.00     0.111 A 
HETATM    8  N5  UNL     1      -1.007  50.888 -23.229  1.00  0.00    -0.351 N 
ATOM      9  H5  UNL     1      -1.542  50.040 -23.040  1.00  0.00     0.166 HD
HETATM   10  C17 UNL     1      -1.132  51.517 -24.428  1.00  0.00     0.108 A 
HETATM   11  C18 UNL     1      -0.403  52.676 -24.684  1.00  0.00     0.060 A 
HETATM   12  H8  UNL     1       1.685  54.909 -23.792  1.00  0.00     0.187 HD
ENDROOT
BRANCH   7  13
HETATM   13  N3  UNL     1      -0.161  50.628 -21.116  1.00  0.00    -0.295 N 
HETATM   14  C8  UNL     1      -0.727  50.923 -19.905  1.00  0.00     0.322 C 
HETATM   15  O3  UNL     1      -1.331  51.947 -19.615  1.00  0.00    -0.247 OA
HETATM   16  N4  UNL     1      -0.526  49.897 -19.004  1.00  0.00    -0.335 N 
HETATM   17  H11 UNL     1      -0.491  48.978 -19.421  1.00  0.00     0.165 HD
HETATM   18  H10 UNL     1       0.450  49.829 -21.179  1.00  0.00     0.172 HD
BRANCH  16  19
HETATM   19  C9  UNL     1      -1.096  49.960 -17.665  1.00  0.00     0.115 C 
HETATM   20  C10 UNL     1      -2.250  50.964 -17.582  1.00  0.00     0.037 C 
BRANCH  19  21
HETATM   21  C11 UNL     1      -0.002  50.295 -16.663  1.00  0.00    -0.036 A 
HETATM   22  C12 UNL     1       0.338  49.408 -15.626  1.00  0.00     0.011 A 
HETATM   23  C13 UNL     1       1.336  49.736 -14.707  1.00  0.00     0.024 A 
HETATM   24  C14 UNL     1       2.001  50.955 -14.811  1.00  0.00     0.034 A 
HETATM   25 CL1  UNL     1       3.230  51.360 -13.677  1.00  0.00    -0.084 Cl
HETATM   26  C15 UNL     1       1.674  51.850 -15.827  1.00  0.00     0.024 A 
HETATM   27  C16 UNL     1       0.676  51.522 -16.748  1.00  0.00     0.011 A 
ENDBRANCH  19  21
ENDBRANCH  16  19
ENDBRANCH   7  13
BRANCH   1  28
HETATM   28  O2  UNL     1      -0.905  53.514 -26.936  1.00  0.00    -0.332 OA
BRANCH  28  29
HETATM   29  C3  UNL     1      -0.074  53.278 -28.074  1.00  0.00     0.203 C 
BRANCH  29  30
HETATM   30  C2  UNL     1       0.512  51.864 -28.063  1.00  0.00     0.193 C 
BRANCH  30  31
HETATM   31  O1  UNL     1       1.941  51.874 -28.082  1.00  0.00    -0.394 OA
HETATM   32  C1  UNL     1       2.505  51.529 -26.822  1.00  0.00     0.201 C 
ENDBRANCH  30  31
ENDBRANCH  29  30
ENDBRANCH  28  29
ENDBRANCH   1  28
TORSDOF 7
ENDMDL
MODEL 4
REMARK minimizedAffinity -7.6239233
REMARK  7 active torsions:
REMARK  status: ('A' for Active; 'I' for Inactive)
REMARK    1  A    between atoms: O1_2  and  C2_3 
REMARK    2  A    between atoms: C2_3  and  C3_4 
REMARK    3  A    between atoms: C3_4  and  O2_5 
REMARK    4  A    between atoms: O2_5  and  C4_6 
REMARK    5  A    between atoms: C7_12  and  N3_13 
REMARK       I    between atoms: N3_13  and  C8_14 
REMARK       I    between atoms: C8_14  and  N4_16 
REMARK    6  A    between atoms: N4_16  and  C9_17 
REMARK    7  A    between atoms: C9_17  and  C11_19 
ROOT
HETATM    1  C4  UNL     1       1.690  51.347 -15.497  1.00  0.00     0.171 A 
HETATM    2  N1  UNL     1       2.480  52.419 -15.396  1.00  0.00    -0.279 N 
ATOM      3  H1  UNL     1       3.135  52.656 -14.651  1.00  0.00     0.189 HD
HETATM    4  N2  UNL     1       2.200  53.110 -16.518  1.00  0.00    -0.298 N 
HETATM    5  C5  UNL     1       1.274  52.510 -17.328  1.00  0.00     0.067 A 
HETATM    6  C6  UNL     1       0.722  52.880 -18.554  1.00  0.00     0.080 A 
HETATM    7  C7  UNL     1      -0.213  51.992 -19.075  1.00  0.00     0.111 A 
HETATM    8  N5  UNL     1      -0.576  50.839 -18.463  1.00  0.00    -0.351 N 
ATOM      9  H5  UNL     1      -1.264  50.225 -18.898  1.00  0.00     0.166 HD
HETATM   10  C17 UNL     1      -0.023  50.500 -17.268  1.00  0.00     0.108 A 
HETATM   11  C18 UNL     1       0.919  51.338 -16.675  1.00  0.00     0.060 A 
HETATM   12  H8  UNL     1       2.679  53.992 -16.676  1.00  0.00     0.187 HD
ENDROOT
BRANCH   7  13
HETATM   13  N3  UNL     1      -0.867  52.189 -20.291  1.00  0.00    -0.295 N 
HETATM   14  C8  UNL     1      -0.981  51.325 -21.347  1.00  0.00     0.322 C 
HETATM   15  O3  UNL     1      -0.489  50.208 -21.428  1.00  0.00    -0.247 OA
HETATM   16  N4  UNL     1      -1.739  51.881 -22.358  1.00  0.00    -0.335 N 
HETATM   17  H11 UNL     1      -2.463  52.508 -22.038  1.00  0.00     0.165 HD
HETATM   18  H10 UNL     1      -1.177  53.140 -20.412  1.00  0.00     0.172 HD
BRANCH  16  19
HETATM   19  C9  UNL     1      -2.050  51.118 -23.559  1.00  0.00     0.115 C 
HETATM   20  C10 UNL     1      -2.299  49.639 -23.248  1.00  0.00     0.037 C 
BRANCH  19  21
HETATM   21  C11 UNL     1      -0.928  51.286 -24.572  1.00  0.00    -0.036 A 
HETATM   22  C12 UNL     1      -0.908  50.551 -25.771  1.00  0.00     0.011 A 
HETATM   23  C13 UNL     1       0.136  50.708 -26.686  1.00  0.00     0.024 A 
HETATM   24  C14 UNL     1       1.170  51.598 -26.409  1.00  0.00     0.034 A 
HETATM   25 CL1  UNL     1       2.457  51.791 -27.535  1.00  0.00    -0.084 Cl
HETATM   26  C15 UNL     1       1.171  52.331 -25.225  1.00  0.00     0.024 A 
HETATM   27  C16 UNL     1       0.127  52.175 -24.310  1.00  0.00     0.011 A 
ENDBRANCH  19  21
ENDBRANCH  16  19
ENDBRANCH   7  13
BRANCH   1  28
HETATM   28  O2  UNL     1       1.683  50.384 -14.547  1.00  0.00    -0.332 OA
BRANCH  28  29
HETATM   29  C3  UNL     1       2.775  50.423 -13.628  1.00  0.00     0.203 C 
BRANCH  29  30
HETATM   30  C2  UNL     1       3.501  49.078 -13.554  1.00  0.00     0.193 C 
BRANCH  30  31
HETATM   31  O1  UNL     1       3.972  48.792 -12.235  1.00  0.00    -0.394 OA
HETATM   32  C1  UNL     1       4.331  49.967 -11.518  1.00  0.00     0.201 C 
ENDBRANCH  30  31
ENDBRANCH  29  30
ENDBRANCH  28  29
ENDBRANCH   1  28
TORSDOF 7
ENDMDL
MODEL 5
REMARK minimizedAffinity -7.60128069
REMARK  7 active torsions:
REMARK  status: ('A' for Active; 'I' for Inactive)
REMARK    1  A    between atoms: O1_2  and  C2_3 
REMARK    2  A    between atoms: C2_3  and  C3_4 
REMARK    3  A    between atoms: C3_4  and  O2_5 
REMARK    4  A    between atoms: O2_5  and  C4_6 
REMARK    5  A    between atoms: C7_12  and  N3_13 
REMARK       I    between atoms: N3_13  and  C8_14 
REMARK       I    between atoms: C8_14  and  N4_16 
REMARK    6  A    between atoms: N4_16  and  C9_17 
REMARK    7  A    between atoms: C9_17  and  C11_19 
ROOT
HETATM    1  C4  UNL     1       0.086  52.313 -22.887  1.00  0.00     0.171 A 
HETATM    2  N1  UNL     1      -0.794  51.310 -22.891  1.00  0.00    -0.279 N 
ATOM      3  H1  UNL     1      -1.240  50.859 -23.690  1.00  0.00     0.189 HD
HETATM    4  N2  UNL     1      -0.952  51.038 -21.581  1.00  0.00    -0.298 N 
HETATM    5  C5  UNL     1      -0.195  51.823 -20.752  1.00  0.00     0.067 A 
HETATM    6  C6  UNL     1      -0.061  51.862 -19.365  1.00  0.00     0.080 A 
HETATM    7  C7  UNL     1       0.822  52.823 -18.883  1.00  0.00     0.111 A 
HETATM    8  N5  UNL     1       1.521  53.668 -19.679  1.00  0.00    -0.351 N 
ATOM      9  H5  UNL     1       2.158  54.348 -19.265  1.00  0.00     0.166 HD
HETATM   10  C17 UNL     1       1.372  53.609 -21.029  1.00  0.00     0.108 A 
HETATM   11  C18 UNL     1       0.504  52.678 -21.593  1.00  0.00     0.060 A 
HETATM   12  H8  UNL     1      -1.594  50.298 -21.313  1.00  0.00     0.187 HD
ENDROOT
BRANCH   7  13
HETATM   13  N3  UNL     1       1.091  53.010 -17.527  1.00  0.00    -0.295 N 
HETATM   14  C8  UNL     1       0.995  52.102 -16.506  1.00  0.00     0.322 C 
HETATM   15  O3  UNL     1       0.614  50.943 -16.599  1.00  0.00    -0.247 OA
HETATM   16  N4  UNL     1       1.383  52.665 -15.308  1.00  0.00    -0.335 N 
HETATM   17  H11 UNL     1       2.101  53.371 -15.393  1.00  0.00     0.165 HD
HETATM   18  H10 UNL     1       1.257  53.976 -17.296  1.00  0.00     0.172 HD
BRANCH  16  19
HETATM   19  C9  UNL     1       1.425  51.867 -14.090  1.00  0.00     0.115 C 
HETATM   20  C10 UNL     1       1.585  50.374 -14.391  1.00  0.00     0.037 C 
BRANCH  19  21
HETATM   21  C11 UNL     1       0.175  52.132 -13.266  1.00  0.00    -0.036 A 
HETATM   22  C12 UNL     1      -1.074  51.605 -13.640  1.00  0.00     0.011 A 
HETATM   23  C13 UNL     1      -2.215  51.868 -12.879  1.00  0.00     0.024 A 
HETATM   24  C14 UNL     1      -2.120  52.663 -11.740  1.00  0.00     0.034 A 
HETATM   25 CL1  UNL     1      -3.526  52.988 -10.803  1.00  0.00    -0.084 Cl
HETATM   26  C15 UNL     1      -0.893  53.200 -11.356  1.00  0.00     0.024 A 
HETATM   27  C16 UNL     1       0.249  52.936 -12.117  1.00  0.00     0.011 A 
ENDBRANCH  19  21
ENDBRANCH  16  19
ENDBRANCH   7  13
BRANCH   1  28
HETATM   28  O2  UNL     1       0.518  52.876 -24.039  1.00  0.00    -0.332 OA
BRANCH  28  29
HETATM   29  C3  UNL     1       0.605  51.992 -25.157  1.00  0.00     0.203 C 
BRANCH  29  30
HETATM   30  C2  UNL     1       0.566  52.753 -26.484  1.00  0.00     0.193 C 
BRANCH  30  31
HETATM   31  O1  UNL     1       1.720  52.493 -27.288  1.00  0.00    -0.394 OA
HETATM   32  C1  UNL     1       2.563  51.495 -26.724  1.00  0.00     0.201 C 
ENDBRANCH  30  31
ENDBRANCH  29  30
ENDBRANCH  28  29
ENDBRANCH   1  28
TORSDOF 7
ENDMDL
MODEL 6
REMARK minimizedAffinity -7.58298922
REMARK  7 active torsions:
REMARK  status: ('A' for Active; 'I' for Inactive)
REMARK    1  A    between atoms: O1_2  and  C2_3 
REMARK    2  A    between atoms: C2_3  and  C3_4 
REMARK    3  A    between atoms: C3_4  and  O2_5 
REMARK    4  A    between atoms: O2_5  and  C4_6 
REMARK    5  A    between atoms: C7_12  and  N3_13 
REMARK       I    between atoms: N3_13  and  C8_14 
REMARK       I    between atoms: C8_14  and  N4_16 
REMARK    6  A    between atoms: N4_16  and  C9_17 
REMARK    7  A    between atoms: C9_17  and  C11_19 
ROOT
HETATM    1  C4  UNL     1       2.033  51.554 -15.403  1.00  0.00     0.171 A 
HETATM    2  N1  UNL     1       2.922  52.549 -15.383  1.00  0.00    -0.279 N 
ATOM      3  H1  UNL     1       3.610  52.770 -14.663  1.00  0.00     0.189 HD
HETATM    4  N2  UNL     1       2.689  53.191 -16.544  1.00  0.00    -0.298 N 
HETATM    5  C5  UNL     1       1.695  52.630 -17.302  1.00  0.00     0.067 A 
HETATM    6  C6  UNL     1       1.159  52.972 -18.543  1.00  0.00     0.080 A 
HETATM    7  C7  UNL     1       0.135  52.145 -18.993  1.00  0.00     0.111 A 
HETATM    8  N5  UNL     1      -0.324  51.074 -18.302  1.00  0.00    -0.351 N 
ATOM      9  H5  UNL     1      -1.075  50.502 -18.688  1.00  0.00     0.166 HD
HETATM   10  C17 UNL     1       0.216  50.762 -17.094  1.00  0.00     0.108 A 
HETATM   11  C18 UNL     1       1.243  51.542 -16.569  1.00  0.00     0.060 A 
HETATM   12  H8  UNL     1       3.246  54.010 -16.765  1.00  0.00     0.187 HD
ENDROOT
BRANCH   7  13
HETATM   13  N3  UNL     1      -0.519  52.325 -20.212  1.00  0.00    -0.295 N 
HETATM   14  C8  UNL     1      -0.768  51.400 -21.190  1.00  0.00     0.322 C 
HETATM   15  O3  UNL     1      -0.421  50.227 -21.185  1.00  0.00    -0.247 OA
HETATM   16  N4  UNL     1      -1.475  51.964 -22.233  1.00  0.00    -0.335 N 
HETATM   17  H11 UNL     1      -2.106  52.702 -21.956  1.00  0.00     0.165 HD
HETATM   18  H10 UNL     1      -0.710  53.295 -20.407  1.00  0.00     0.172 HD
BRANCH  16  19
HETATM   19  C9  UNL     1      -1.909  51.153 -23.362  1.00  0.00     0.115 C 
HETATM   20  C10 UNL     1      -2.089  49.682 -22.972  1.00  0.00     0.037 C 
BRANCH  19  21
HETATM   21  C11 UNL     1      -0.918  51.302 -24.506  1.00  0.00    -0.036 A 
HETATM   22  C12 UNL     1      -1.149  50.703 -25.757  1.00  0.00     0.011 A 
HETATM   23  C13 UNL     1      -0.223  50.839 -26.794  1.00  0.00     0.024 A 
HETATM   24  C14 UNL     1       0.943  51.571 -26.588  1.00  0.00     0.034 A 
HETATM   25 CL1  UNL     1       2.085  51.738 -27.865  1.00  0.00    -0.084 Cl
HETATM   26  C15 UNL     1       1.193  52.166 -25.354  1.00  0.00     0.024 A 
HETATM   27  C16 UNL     1       0.267  52.031 -24.317  1.00  0.00     0.011 A 
ENDBRANCH  19  21
ENDBRANCH  16  19
ENDBRANCH   7  13
BRANCH   1  28
HETATM   28  O2  UNL     1       1.952  50.659 -14.392  1.00  0.00    -0.332 OA
BRANCH  28  29
HETATM   29  C3  UNL     1       1.188  51.082 -13.262  1.00  0.00     0.203 C 
BRANCH  29  30
HETATM   30  C2  UNL     1       0.356  52.328 -13.575  1.00  0.00     0.193 C 
BRANCH  30  31
HETATM   31  O1  UNL     1      -1.047  52.052 -13.578  1.00  0.00    -0.394 OA
HETATM   32  C1  UNL     1      -1.478  51.411 -12.384  1.00  0.00     0.201 C 
ENDBRANCH  30  31
ENDBRANCH  29  30
ENDBRANCH  28  29
ENDBRANCH   1  28
TORSDOF 7
ENDMDL
MODEL 7
REMARK minimizedAffinity -7.54694366
REMARK  7 active torsions:
REMARK  status: ('A' for Active; 'I' for Inactive)
REMARK    1  A    between atoms: O1_2  and  C2_3 
REMARK    2  A    between atoms: C2_3  and  C3_4 
REMARK    3  A    between atoms: C3_4  and  O2_5 
REMARK    4  A    between atoms: O2_5  and  C4_6 
REMARK    5  A    between atoms: C7_12  and  N3_13 
REMARK       I    between atoms: N3_13  and  C8_14 
REMARK       I    between atoms: C8_14  and  N4_16 
REMARK    6  A    between atoms: N4_16  and  C9_17 
REMARK    7  A    between atoms: C9_17  and  C11_19 
ROOT
HETATM    1  C4  UNL     1      -7.964  47.063 -28.712  1.00  0.00     0.171 A 
HETATM    2  N1  UNL     1      -7.704  47.003 -30.020  1.00  0.00    -0.279 N 
ATOM      3  H1  UNL     1      -8.328  46.727 -30.779  1.00  0.00     0.189 HD
HETATM    4  N2  UNL     1      -6.418  47.396 -30.094  1.00  0.00    -0.298 N 
HETATM    5  C5  UNL     1      -5.860  47.714 -28.885  1.00  0.00     0.067 A 
HETATM    6  C6  UNL     1      -4.588  48.160 -28.529  1.00  0.00     0.080 A 
HETATM    7  C7  UNL     1      -4.395  48.375 -27.168  1.00  0.00     0.111 A 
HETATM    8  N5  UNL     1      -5.357  48.181 -26.234  1.00  0.00    -0.351 N 
ATOM      9  H5  UNL     1      -5.156  48.361 -25.250  1.00  0.00     0.166 HD
HETATM   10  C17 UNL     1      -6.590  47.746 -26.606  1.00  0.00     0.108 A 
HETATM   11  C18 UNL     1      -6.864  47.503 -27.950  1.00  0.00     0.060 A 
HETATM   12  H8  UNL     1      -5.973  47.429 -31.006  1.00  0.00     0.187 HD
ENDROOT
BRANCH   7  13
HETATM   13  N3  UNL     1      -3.193  48.825 -26.623  1.00  0.00    -0.295 N 
HETATM   14  C8  UNL     1      -2.611  50.058 -26.746  1.00  0.00     0.322 C 
HETATM   15  O3  UNL     1      -3.035  51.000 -27.401  1.00  0.00    -0.247 OA
HETATM   16  N4  UNL     1      -1.435  50.121 -26.026  1.00  0.00    -0.335 N 
HETATM   17  H11 UNL     1      -1.429  49.556 -25.189  1.00  0.00     0.165 HD
HETATM   18  H10 UNL     1      -2.663  48.084 -26.193  1.00  0.00     0.172 HD
BRANCH  16  19
HETATM   19  C9  UNL     1      -0.672  51.360 -25.956  1.00  0.00     0.115 C 
HETATM   20  C10 UNL     1       0.662  51.252 -26.702  1.00  0.00     0.037 C 
BRANCH  19  21
HETATM   21  C11 UNL     1      -0.459  51.744 -24.500  1.00  0.00    -0.036 A 
HETATM   22  C12 UNL     1       0.496  52.708 -24.129  1.00  0.00     0.011 A 
HETATM   23  C13 UNL     1       0.688  53.041 -22.787  1.00  0.00     0.024 A 
HETATM   24  C14 UNL     1      -0.069  52.411 -21.802  1.00  0.00     0.034 A 
HETATM   25 CL1  UNL     1       0.169  52.820 -20.148  1.00  0.00    -0.084 Cl
HETATM   26  C15 UNL     1      -1.015  51.450 -22.148  1.00  0.00     0.024 A 
HETATM   27  C16 UNL     1      -1.208  51.117 -23.491  1.00  0.00     0.011 A 
ENDBRANCH  19  21
ENDBRANCH  16  19
ENDBRANCH   7  13
BRANCH   1  28
HETATM   28  O2  UNL     1      -9.182  46.744 -28.219  1.00  0.00    -0.332 OA
BRANCH  28  29
HETATM   29  C3  UNL     1     -10.113  47.824 -28.142  1.00  0.00     0.203 C 
BRANCH  29  30
HETATM   30  C2  UNL     1     -10.391  48.230 -26.693  1.00  0.00     0.193 C 
BRANCH  30  31
HETATM   31  O1  UNL     1     -11.779  48.481 -26.461  1.00  0.00    -0.394 OA
HETATM   32  C1  UNL     1     -12.590  48.128 -27.575  1.00  0.00     0.201 C 
ENDBRANCH  30  31
ENDBRANCH  29  30
ENDBRANCH  28  29
ENDBRANCH   1  28
TORSDOF 7
ENDMDL
MODEL 8
REMARK minimizedAffinity -7.36283112
REMARK  7 active torsions:
REMARK  status: ('A' for Active; 'I' for Inactive)
REMARK    1  A    between atoms: O1_2  and  C2_3 
REMARK    2  A    between atoms: C2_3  and  C3_4 
REMARK    3  A    between atoms: C3_4  and  O2_5 
REMARK    4  A    between atoms: O2_5  and  C4_6 
REMARK    5  A    between atoms: C7_12  and  N3_13 
REMARK       I    between atoms: N3_13  and  C8_14 
REMARK       I    between atoms: C8_14  and  N4_16 
REMARK    6  A    between atoms: N4_16  and  C9_17 
REMARK    7  A    between atoms: C9_17  and  C11_19 
ROOT
HETATM    1  C4  UNL     1       1.717  68.121 -41.470  1.00  0.00     0.171 A 
HETATM    2  N1  UNL     1       2.920  68.627 -41.752  1.00  0.00    -0.279 N 
ATOM      3  H1  UNL     1       3.206  69.165 -42.570  1.00  0.00     0.189 HD
HETATM    4  N2  UNL     1       3.663  68.255 -40.692  1.00  0.00    -0.298 N 
HETATM    5  C5  UNL     1       2.973  67.544 -39.747  1.00  0.00     0.067 A 
HETATM    6  C6  UNL     1       3.357  66.990 -38.526  1.00  0.00     0.080 A 
HETATM    7  C7  UNL     1       2.351  66.323 -37.836  1.00  0.00     0.111 A 
HETATM    8  N5  UNL     1       1.078  66.210 -38.287  1.00  0.00    -0.351 N 
ATOM      9  H5  UNL     1       0.382  65.712 -37.732  1.00  0.00     0.166 HD
HETATM   10  C17 UNL     1       0.728  66.759 -39.481  1.00  0.00     0.108 A 
HETATM   11  C18 UNL     1       1.678  67.441 -40.237  1.00  0.00     0.060 A 
HETATM   12  H8  UNL     1       4.643  68.520 -40.671  1.00  0.00     0.187 HD
ENDROOT
BRANCH   7  13
HETATM   13  N3  UNL     1       2.543  65.710 -36.598  1.00  0.00    -0.295 N 
HETATM   14  C8  UNL     1       3.695  65.613 -35.865  1.00  0.00     0.322 C 
HETATM   15  O3  UNL     1       4.799  66.029 -36.189  1.00  0.00    -0.247 OA
HETATM   16  N4  UNL     1       3.466  64.959 -34.672  1.00  0.00    -0.335 N 
HETATM   17  H11 UNL     1       2.543  65.103 -34.288  1.00  0.00     0.165 HD
HETATM   18  H10 UNL     1       1.737  65.184 -36.299  1.00  0.00     0.172 HD
BRANCH  16  19
HETATM   19  C9  UNL     1       4.535  64.794 -33.697  1.00  0.00     0.115 C 
HETATM   20  C10 UNL     1       5.451  66.021 -33.641  1.00  0.00     0.037 C 
BRANCH  19  21
HETATM   21  C11 UNL     1       5.323  63.533 -34.015  1.00  0.00    -0.036 A 
HETATM   22  C12 UNL     1       6.709  63.575 -34.254  1.00  0.00     0.011 A 
HETATM   23  C13 UNL     1       7.416  62.410 -34.557  1.00  0.00     0.024 A 
HETATM   24  C14 UNL     1       6.745  61.192 -34.627  1.00  0.00     0.034 A 
HETATM   25 CL1  UNL     1       7.615  59.756 -35.002  1.00  0.00    -0.084 Cl
HETATM   26  C15 UNL     1       5.372  61.130 -34.400  1.00  0.00     0.024 A 
HETATM   27  C16 UNL     1       4.664  62.295 -34.096  1.00  0.00     0.011 A 
ENDBRANCH  19  21
ENDBRANCH  16  19
ENDBRANCH   7  13
BRANCH   1  28
HETATM   28  O2  UNL     1       0.667  68.289 -42.306  1.00  0.00    -0.332 OA
BRANCH  28  29
HETATM   29  C3  UNL     1      -0.478  68.919 -41.731  1.00  0.00     0.203 C 
BRANCH  29  30
HETATM   30  C2  UNL     1      -1.777  68.425 -42.372  1.00  0.00     0.193 C 
BRANCH  30  31
HETATM   31  O1  UNL     1      -2.835  69.378 -42.244  1.00  0.00    -0.394 OA
HETATM   32  C1  UNL     1      -4.082  68.872 -42.706  1.00  0.00     0.201 C 
ENDBRANCH  30  31
ENDBRANCH  29  30
ENDBRANCH  28  29
ENDBRANCH   1  28
TORSDOF 7
ENDMDL
MODEL 9
REMARK minimizedAffinity -7.27872801
REMARK  7 active torsions:
REMARK  status: ('A' for Active; 'I' for Inactive)
REMARK    1  A    between atoms: O1_2  and  C2_3 
REMARK    2  A    between atoms: C2_3  and  C3_4 
REMARK    3  A    between atoms: C3_4  and  O2_5 
REMARK    4  A    between atoms: O2_5  and  C4_6 
REMARK    5  A    between atoms: C7_12  and  N3_13 
REMARK       I    between atoms: N3_13  and  C8_14 
REMARK       I    between atoms: C8_14  and  N4_16 
REMARK    6  A    between atoms: N4_16  and  C9_17 
REMARK    7  A    between atoms: C9_17  and  C11_19 
ROOT
HETATM    1  C4  UNL     1       1.408  51.468 -15.259  1.00  0.00     0.171 A 
HETATM    2  N1  UNL     1       2.358  52.393 -15.113  1.00  0.00    -0.279 N 
ATOM      3  H1  UNL     1       2.952  52.570 -14.302  1.00  0.00     0.189 HD
HETATM    4  N2  UNL     1       2.343  53.036 -16.297  1.00  0.00    -0.298 N 
HETATM    5  C5  UNL     1       1.428  52.544 -17.189  1.00  0.00     0.067 A 
HETATM    6  C6  UNL     1       1.102  52.910 -18.494  1.00  0.00     0.080 A 
HETATM    7  C7  UNL     1       0.091  52.158 -19.084  1.00  0.00     0.111 A 
HETATM    8  N5  UNL     1      -0.542  51.134 -18.465  1.00  0.00    -0.351 N 
ATOM      9  H5  UNL     1      -1.273  50.615 -18.954  1.00  0.00     0.166 HD
HETATM   10  C17 UNL     1      -0.206  50.796 -17.191  1.00  0.00     0.108 A 
HETATM   11  C18 UNL     1       0.793  51.502 -16.526  1.00  0.00     0.060 A 
HETATM   12  H8  UNL     1       2.987  53.808 -16.437  1.00  0.00     0.187 HD
ENDROOT
BRANCH   7  13
HETATM   13  N3  UNL     1      -0.367  52.372 -20.384  1.00  0.00    -0.295 N 
HETATM   14  C8  UNL     1       0.292  52.163 -21.566  1.00  0.00     0.322 C 
HETATM   15  O3  UNL     1       1.445  51.771 -21.695  1.00  0.00    -0.247 OA
HETATM   16  N4  UNL     1      -0.518  52.464 -22.642  1.00  0.00    -0.335 N 
HETATM   17  H11 UNL     1      -1.499  52.289 -22.485  1.00  0.00     0.165 HD
HETATM   18  H10 UNL     1      -1.252  52.853 -20.406  1.00  0.00     0.172 HD
BRANCH  16  19
HETATM   19  C9  UNL     1      -0.050  52.256 -24.005  1.00  0.00     0.115 C 
HETATM   20  C10 UNL     1       0.029  53.570 -24.789  1.00  0.00     0.037 C 
BRANCH  19  21
HETATM   21  C11 UNL     1      -0.952  51.252 -24.705  1.00  0.00    -0.036 A 
HETATM   22  C12 UNL     1      -0.860  51.024 -26.090  1.00  0.00     0.011 A 
HETATM   23  C13 UNL     1      -1.704  50.107 -26.719  1.00  0.00     0.024 A 
HETATM   24  C14 UNL     1      -2.651  49.412 -25.971  1.00  0.00     0.034 A 
HETATM   25 CL1  UNL     1      -3.692  48.283 -26.747  1.00  0.00    -0.084 Cl
HETATM   26  C15 UNL     1      -2.762  49.627 -24.600  1.00  0.00     0.024 A 
HETATM   27  C16 UNL     1      -1.917  50.544 -23.970  1.00  0.00     0.011 A 
ENDBRANCH  19  21
ENDBRANCH  16  19
ENDBRANCH   7  13
BRANCH   1  28
HETATM   28  O2  UNL     1       1.114  50.594 -14.269  1.00  0.00    -0.332 OA
BRANCH  28  29
HETATM   29  C3  UNL     1       0.895  51.178 -12.984  1.00  0.00     0.203 C 
BRANCH  29  30
HETATM   30  C2  UNL     1      -0.308  52.124 -12.990  1.00  0.00     0.193 C 
BRANCH  30  31
HETATM   31  O1  UNL     1      -0.668  52.544 -11.672  1.00  0.00    -0.394 OA
HETATM   32  C1  UNL     1      -0.076  53.788 -11.315  1.00  0.00     0.201 C 
ENDBRANCH  30  31
ENDBRANCH  29  30
ENDBRANCH  28  29
ENDBRANCH   1  28
TORSDOF 7
ENDMDL
