MODEL 1
REMARK minimizedAffinity -8.87348366
REMARK CNNscore 0.528398395
REMARK CNNaffinity 6.52619505
REMARK  8 active torsions:
REMARK  status: ('A' for Active; 'I' for Inactive)
REMARK       I    between atoms: C1_2  and  N1_3 
REMARK    1  A    between atoms: C1_2  and  C9_15 
REMARK    2  A    between atoms: N1_3  and  C2_4 
REMARK    3  A    between atoms: C5_7  and  O2_8 
REMARK    4  A    between atoms: C6_9  and  C7_10 
REMARK    5  A    between atoms: N2_18  and  C12_19 
REMARK    6  A    between atoms: C12_19  and  C13_20 
REMARK       I    between atoms: C13_20  and  N3_22 
REMARK    7  A    between atoms: N4_25  and  C16_26 
REMARK    8  A    between atoms: C19_29  and  C20_30 
ROOT
HETATM    1  C12 UNL     1      -6.763  49.030 -24.111  1.00  0.00     0.374 C 
ENDROOT
BRANCH   1   2
HETATM    2  N2  UNL     1      -5.354  49.293 -24.469  1.00  0.00     0.098 N 
HETATM    3  C11 UNL     1      -4.897  48.504 -25.623  1.00  0.00     0.274 C 
HETATM    4  C10 UNL     1      -3.373  48.496 -25.492  1.00  0.00     0.046 C 
HETATM    5  C9  UNL     1      -3.089  48.956 -24.059  1.00  0.00     0.108 C 
HETATM    6  C28 UNL     1      -4.447  48.911 -23.376  1.00  0.00     0.287 C 
BRANCH   5   7
HETATM    7  C1  UNL     1      -2.482  50.358 -24.004  1.00  0.00     0.228 C 
HETATM    8  O1  UNL     1      -3.069  51.302 -24.527  1.00  0.00    -0.273 OA
HETATM    9  N1  UNL     1      -1.279  50.414 -23.324  1.00  0.00    -0.327 N 
HETATM   10  H1  UNL     1      -0.920  49.512 -23.009  1.00  0.00     0.169 HD
BRANCH   9  11
HETATM   11  C2  UNL     1      -0.493  51.542 -23.034  1.00  0.00     0.035 A 
HETATM   12  C3  UNL     1       0.133  52.329 -23.996  1.00  0.00     0.032 A 
HETATM   13  C4  UNL     1       0.888  53.442 -23.615  1.00  0.00     0.039 A 
HETATM   14  C5  UNL     1       1.016  53.781 -22.270  1.00  0.00     0.080 A 
HETATM   15  C6  UNL     1       0.409  53.004 -21.283  1.00  0.00     0.083 A 
HETATM   16  C8  UNL     1      -0.338  51.877 -21.683  1.00  0.00     0.048 A 
BRANCH  14  17
HETATM   17  O2  UNL     1       1.762  54.896 -22.007  1.00  0.00    -0.360 OA
HETATM   18  H4  UNL     1       1.666  55.166 -21.076  1.00  0.00     0.217 HD
ENDBRANCH  14  17
BRANCH  15  19
HETATM   19  C7  UNL     1       0.548  53.296 -19.818  1.00  0.00     0.420 C 
HETATM   20  F1  UNL     1      -0.007  52.337 -19.029  1.00  0.00    -0.166 F 
HETATM   21  F2  UNL     1      -0.053  54.467 -19.449  1.00  0.00    -0.166 F 
HETATM   22  F3  UNL     1       1.845  53.408 -19.426  1.00  0.00    -0.166 F 
ENDBRANCH  15  19
ENDBRANCH   9  11
ENDBRANCH   5   7
ENDBRANCH   1   2
BRANCH   1  23
HETATM   23  C13 UNL     1      -7.085  47.529 -23.970  1.00  0.00     0.248 C 
HETATM   24  O3  UNL     1      -6.488  46.792 -23.180  1.00  0.00    -0.271 OA
HETATM   25  N3  UNL     1      -8.105  47.038 -24.778  1.00  0.00    -0.348 N 
HETATM   26  C14 UNL     1      -8.561  45.661 -24.552  1.00  0.00     0.145 C 
HETATM   27  C27 UNL     1      -8.844  47.790 -25.795  1.00  0.00     0.145 C 
HETATM   28  C15 UNL     1      -9.644  45.181 -25.540  1.00  0.00     0.143 C 
HETATM   29  N4  UNL     1     -10.739  46.160 -25.652  1.00  0.00    -0.378 N 
HETATM   30  C26 UNL     1     -10.363  47.587 -25.662  1.00  0.00     0.143 C 
BRANCH  29  31
HETATM   31  C16 UNL     1     -12.009  45.798 -26.084  1.00  0.00     0.030 A 
HETATM   32  C17 UNL     1     -12.672  46.517 -27.093  1.00  0.00     0.030 A 
HETATM   33  C18 UNL     1     -13.957  46.172 -27.541  1.00  0.00     0.017 A 
HETATM   34  C19 UNL     1     -14.659  45.088 -26.995  1.00  0.00     0.008 A 
HETATM   35  C24 UNL     1     -14.003  44.369 -25.983  1.00  0.00     0.017 A 
HETATM   36  C25 UNL     1     -12.715  44.717 -25.539  1.00  0.00     0.030 A 
BRANCH  34  37
HETATM   37  C20 UNL     1     -16.015  44.734 -27.457  1.00  0.00     0.115 A 
HETATM   38  N5  UNL     1     -16.132  44.009 -28.589  1.00  0.00    -0.352 N 
HETATM   39  C21 UNL     1     -17.380  43.680 -28.970  1.00  0.00     0.091 A 
ATOM     40  H5  UNL     1     -15.316  43.725 -29.130  1.00  0.00     0.166 HD
HETATM   41  C22 UNL     1     -18.508  44.046 -28.277  1.00  0.00     0.034 A 
HETATM   42  C23 UNL     1     -18.287  44.788 -27.141  1.00  0.00     0.091 A 
HETATM   43  N6  UNL     1     -17.063  45.141 -26.708  1.00  0.00    -0.352 N 
ATOM     44  H6  UNL     1     -16.932  45.688 -25.857  1.00  0.00     0.166 HD
ENDBRANCH  34  37
ENDBRANCH  29  31
ENDBRANCH   1  23
TORSDOF 8
ENDMDL
MODEL 2
REMARK minimizedAffinity -8.88936234
REMARK CNNscore 0.466174752
REMARK CNNaffinity 6.35544348
REMARK  8 active torsions:
REMARK  status: ('A' for Active; 'I' for Inactive)
REMARK       I    between atoms: C1_2  and  N1_3 
REMARK    1  A    between atoms: C1_2  and  C9_15 
REMARK    2  A    between atoms: N1_3  and  C2_4 
REMARK    3  A    between atoms: C5_7  and  O2_8 
REMARK    4  A    between atoms: C6_9  and  C7_10 
REMARK    5  A    between atoms: N2_18  and  C12_19 
REMARK    6  A    between atoms: C12_19  and  C13_20 
REMARK       I    between atoms: C13_20  and  N3_22 
REMARK    7  A    between atoms: N4_25  and  C16_26 
REMARK    8  A    between atoms: C19_29  and  C20_30 
ROOT
HETATM    1  C12 UNL     1      -6.030  47.655 -21.699  1.00  0.00     0.374 C 
ENDROOT
BRANCH   1   2
HETATM    2  N2  UNL     1      -5.164  48.440 -22.603  1.00  0.00     0.098 N 
HETATM    3  C11 UNL     1      -5.511  48.271 -24.022  1.00  0.00     0.274 C 
HETATM    4  C10 UNL     1      -4.242  48.684 -24.770  1.00  0.00     0.046 C 
HETATM    5  C9  UNL     1      -3.135  48.693 -23.712  1.00  0.00     0.108 C 
HETATM    6  C28 UNL     1      -3.763  48.006 -22.509  1.00  0.00     0.287 C 
BRANCH   5   7
HETATM    7  C1  UNL     1      -2.667  50.106 -23.367  1.00  0.00     0.228 C 
HETATM    8  O1  UNL     1      -3.485  51.017 -23.267  1.00  0.00    -0.273 OA
HETATM    9  N1  UNL     1      -1.300  50.207 -23.184  1.00  0.00    -0.327 N 
HETATM   10  H1  UNL     1      -0.776  49.350 -23.368  1.00  0.00     0.169 HD
BRANCH   9  11
HETATM   11  C2  UNL     1      -0.552  51.332 -22.799  1.00  0.00     0.035 A 
HETATM   12  C3  UNL     1       0.058  52.210 -23.691  1.00  0.00     0.032 A 
HETATM   13  C4  UNL     1       0.774  53.313 -23.217  1.00  0.00     0.039 A 
HETATM   14  C5  UNL     1       0.880  53.551 -21.848  1.00  0.00     0.080 A 
HETATM   15  C6  UNL     1       0.289  52.682 -20.931  1.00  0.00     0.083 A 
HETATM   16  C8  UNL     1      -0.419  51.566 -21.425  1.00  0.00     0.048 A 
BRANCH  14  17
HETATM   17  O2  UNL     1       1.589  54.664 -21.493  1.00  0.00    -0.360 OA
HETATM   18  H4  UNL     1       1.476  54.858 -20.544  1.00  0.00     0.217 HD
ENDBRANCH  14  17
BRANCH  15  19
HETATM   19  C7  UNL     1       0.406  52.864 -19.446  1.00  0.00     0.420 C 
HETATM   20  F1  UNL     1      -0.250  53.965 -18.992  1.00  0.00    -0.166 F 
HETATM   21  F2  UNL     1       1.699  53.009 -19.029  1.00  0.00    -0.166 F 
HETATM   22  F3  UNL     1      -0.090  51.809 -18.747  1.00  0.00    -0.166 F 
ENDBRANCH  15  19
ENDBRANCH   9  11
ENDBRANCH   5   7
ENDBRANCH   1   2
BRANCH   1  23
HETATM   23  C13 UNL     1      -6.743  48.518 -20.639  1.00  0.00     0.248 C 
HETATM   24  O3  UNL     1      -6.284  49.591 -20.235  1.00  0.00    -0.271 OA
HETATM   25  N3  UNL     1      -7.955  48.032 -20.160  1.00  0.00    -0.348 N 
HETATM   26  C14 UNL     1      -8.749  48.902 -19.284  1.00  0.00     0.145 C 
HETATM   27  C27 UNL     1      -8.574  46.750 -20.509  1.00  0.00     0.145 C 
HETATM   28  C15 UNL     1     -10.041  48.252 -18.747  1.00  0.00     0.143 C 
HETATM   29  N4  UNL     1     -10.819  47.627 -19.831  1.00  0.00    -0.378 N 
HETATM   30  C26 UNL     1     -10.058  46.916 -20.877  1.00  0.00     0.143 C 
BRANCH  29  31
HETATM   31  C16 UNL     1     -12.183  47.393 -19.717  1.00  0.00     0.030 A 
HETATM   32  C17 UNL     1     -12.682  46.344 -18.926  1.00  0.00     0.030 A 
HETATM   33  C18 UNL     1     -14.056  46.086 -18.801  1.00  0.00     0.017 A 
HETATM   34  C19 UNL     1     -15.014  46.861 -19.470  1.00  0.00     0.008 A 
HETATM   35  C24 UNL     1     -14.521  47.908 -20.266  1.00  0.00     0.017 A 
HETATM   36  C25 UNL     1     -13.143  48.164 -20.387  1.00  0.00     0.030 A 
BRANCH  34  37
HETATM   37  C20 UNL     1     -16.458  46.581 -19.348  1.00  0.00     0.115 A 
HETATM   38  N5  UNL     1     -17.312  47.625 -19.377  1.00  0.00    -0.352 N 
HETATM   39  C21 UNL     1     -18.623  47.336 -19.290  1.00  0.00     0.091 A 
ATOM     40  H5  UNL     1     -16.981  48.586 -19.461  1.00  0.00     0.166 HD
HETATM   41  C22 UNL     1     -19.113  46.059 -19.171  1.00  0.00     0.034 A 
HETATM   42  C23 UNL     1     -18.166  45.063 -19.143  1.00  0.00     0.091 A 
HETATM   43  N6  UNL     1     -16.843  45.292 -19.233  1.00  0.00    -0.352 N 
ATOM     44  H6  UNL     1     -16.165  44.530 -19.215  1.00  0.00     0.166 HD
ENDBRANCH  34  37
ENDBRANCH  29  31
ENDBRANCH   1  23
TORSDOF 8
ENDMDL
MODEL 3
REMARK minimizedAffinity -8.95146751
REMARK CNNscore 0.398114532
REMARK CNNaffinity 6.90671206
REMARK  8 active torsions:
REMARK  status: ('A' for Active; 'I' for Inactive)
REMARK       I    between atoms: C1_2  and  N1_3 
REMARK    1  A    between atoms: C1_2  and  C9_15 
REMARK    2  A    between atoms: N1_3  and  C2_4 
REMARK    3  A    between atoms: C5_7  and  O2_8 
REMARK    4  A    between atoms: C6_9  and  C7_10 
REMARK    5  A    between atoms: N2_18  and  C12_19 
REMARK    6  A    between atoms: C12_19  and  C13_20 
REMARK       I    between atoms: C13_20  and  N3_22 
REMARK    7  A    between atoms: N4_25  and  C16_26 
REMARK    8  A    between atoms: C19_29  and  C20_30 
ROOT
HETATM    1  C12 UNL     1      -1.065  50.086 -14.424  1.00  0.00     0.374 C 
ENDROOT
BRANCH   1   2
HETATM    2  N2  UNL     1      -1.626  50.345 -15.766  1.00  0.00     0.098 N 
HETATM    3  C11 UNL     1      -2.999  49.841 -15.923  1.00  0.00     0.274 C 
HETATM    4  C10 UNL     1      -3.181  49.711 -17.436  1.00  0.00     0.046 C 
HETATM    5  C9  UNL     1      -1.767  49.785 -18.019  1.00  0.00     0.108 C 
HETATM    6  C28 UNL     1      -0.856  49.651 -16.809  1.00  0.00     0.287 C 
BRANCH   5   7
HETATM    7  C1  UNL     1      -1.511  51.091 -18.770  1.00  0.00     0.228 C 
HETATM    8  O1  UNL     1      -2.317  52.014 -18.689  1.00  0.00    -0.273 OA
HETATM    9  N1  UNL     1      -0.329  51.094 -19.489  1.00  0.00    -0.327 N 
HETATM   10  H1  UNL     1       0.182  50.210 -19.482  1.00  0.00     0.169 HD
BRANCH   9  11
HETATM   11  C2  UNL     1       0.237  52.143 -20.231  1.00  0.00     0.035 A 
HETATM   12  C3  UNL     1       0.933  53.212 -19.674  1.00  0.00     0.032 A 
HETATM   13  C4  UNL     1       1.474  54.206 -20.494  1.00  0.00     0.039 A 
HETATM   14  C5  UNL     1       1.331  54.136 -21.878  1.00  0.00     0.080 A 
HETATM   15  C6  UNL     1       0.629  53.082 -22.464  1.00  0.00     0.083 A 
HETATM   16  C8  UNL     1       0.077  52.094 -21.622  1.00  0.00     0.048 A 
BRANCH  14  17
HETATM   17  O2  UNL     1       1.910  55.151 -22.587  1.00  0.00    -0.360 OA
HETATM   18  H4  UNL     1       1.918  54.947 -23.540  1.00  0.00     0.217 HD
ENDBRANCH  14  17
BRANCH  15  19
HETATM   19  C7  UNL     1       0.405  52.978 -23.944  1.00  0.00     0.420 C 
HETATM   20  F1  UNL     1      -0.884  52.693 -24.268  1.00  0.00    -0.166 F 
HETATM   21  F2  UNL     1       1.156  51.996 -24.527  1.00  0.00    -0.166 F 
HETATM   22  F3  UNL     1       0.720  54.123 -24.605  1.00  0.00    -0.166 F 
ENDBRANCH  15  19
ENDBRANCH   9  11
ENDBRANCH   5   7
ENDBRANCH   1   2
BRANCH   1  23
HETATM   23  C13 UNL     1      -1.625  51.027 -13.339  1.00  0.00     0.248 C 
HETATM   24  O3  UNL     1      -2.782  50.942 -12.917  1.00  0.00    -0.271 OA
HETATM   25  N3  UNL     1      -0.749  51.984 -12.839  1.00  0.00    -0.348 N 
HETATM   26  C14 UNL     1      -1.183  52.782 -11.686  1.00  0.00     0.145 C 
HETATM   27  C27 UNL     1       0.622  52.228 -13.297  1.00  0.00     0.145 C 
HETATM   28  C15 UNL     1      -0.175  53.863 -11.247  1.00  0.00     0.143 C 
HETATM   29  N4  UNL     1       1.182  53.308 -11.108  1.00  0.00    -0.378 N 
HETATM   30  C26 UNL     1       1.608  52.321 -12.120  1.00  0.00     0.143 C 
BRANCH  29  31
HETATM   31  C16 UNL     1       2.147  53.911 -10.312  1.00  0.00     0.030 A 
HETATM   32  C17 UNL     1       3.485  53.483 -10.332  1.00  0.00     0.030 A 
HETATM   33  C18 UNL     1       4.476  54.074  -9.532  1.00  0.00     0.017 A 
HETATM   34  C19 UNL     1       4.180  55.127  -8.655  1.00  0.00     0.008 A 
HETATM   35  C24 UNL     1       2.843  55.557  -8.627  1.00  0.00     0.017 A 
HETATM   36  C25 UNL     1       1.855  54.961  -9.432  1.00  0.00     0.030 A 
BRANCH  34  37
HETATM   37  C20 UNL     1       5.219  55.740  -7.805  1.00  0.00     0.115 A 
HETATM   38  N5  UNL     1       4.921  56.892  -7.167  1.00  0.00    -0.352 N 
HETATM   39  C21 UNL     1       5.879  57.412  -6.380  1.00  0.00     0.091 A 
ATOM     40  H5  UNL     1       4.014  57.345  -7.277  1.00  0.00     0.166 HD
HETATM   41  C22 UNL     1       7.115  56.839  -6.207  1.00  0.00     0.034 A 
HETATM   42  C23 UNL     1       7.327  55.673  -6.903  1.00  0.00     0.091 A 
HETATM   43  N6  UNL     1       6.404  55.103  -7.699  1.00  0.00    -0.352 N 
ATOM     44  H6  UNL     1       6.591  54.233  -8.198  1.00  0.00     0.166 HD
ENDBRANCH  34  37
ENDBRANCH  29  31
ENDBRANCH   1  23
TORSDOF 8
ENDMDL
MODEL 4
REMARK minimizedAffinity -9.08869362
REMARK CNNscore 0.328311414
REMARK CNNaffinity 6.37098837
REMARK  8 active torsions:
REMARK  status: ('A' for Active; 'I' for Inactive)
REMARK       I    between atoms: C1_2  and  N1_3 
REMARK    1  A    between atoms: C1_2  and  C9_15 
REMARK    2  A    between atoms: N1_3  and  C2_4 
REMARK    3  A    between atoms: C5_7  and  O2_8 
REMARK    4  A    between atoms: C6_9  and  C7_10 
REMARK    5  A    between atoms: N2_18  and  C12_19 
REMARK    6  A    between atoms: C12_19  and  C13_20 
REMARK       I    between atoms: C13_20  and  N3_22 
REMARK    7  A    between atoms: N4_25  and  C16_26 
REMARK    8  A    between atoms: C19_29  and  C20_30 
ROOT
HETATM    1  C12 UNL     1      -0.202  50.839 -13.824  1.00  0.00     0.374 C 
ENDROOT
BRANCH   1   2
HETATM    2  N2  UNL     1      -0.469  51.049 -15.261  1.00  0.00     0.098 N 
HETATM    3  C11 UNL     1      -1.856  50.737 -15.641  1.00  0.00     0.274 C 
HETATM    4  C10 UNL     1      -1.786  50.493 -17.149  1.00  0.00     0.046 C 
HETATM    5  C9  UNL     1      -0.299  50.305 -17.459  1.00  0.00     0.108 C 
HETATM    6  C28 UNL     1       0.352  50.155 -16.092  1.00  0.00     0.287 C 
BRANCH   5   7
HETATM    7  C1  UNL     1       0.291  51.483 -18.233  1.00  0.00     0.228 C 
HETATM    8  O1  UNL     1       0.990  52.310 -17.654  1.00  0.00    -0.273 OA
HETATM    9  N1  UNL     1      -0.036  51.481 -19.577  1.00  0.00    -0.327 N 
HETATM   10  H1  UNL     1      -0.678  50.741 -19.864  1.00  0.00     0.169 HD
BRANCH   9  11
HETATM   11  C2  UNL     1       0.386  52.372 -20.578  1.00  0.00     0.035 A 
HETATM   12  C3  UNL     1       1.017  53.587 -20.332  1.00  0.00     0.032 A 
HETATM   13  C4  UNL     1       1.413  54.405 -21.394  1.00  0.00     0.039 A 
HETATM   14  C5  UNL     1       1.190  54.010 -22.711  1.00  0.00     0.080 A 
HETATM   15  C6  UNL     1       0.549  52.802 -22.988  1.00  0.00     0.083 A 
HETATM   16  C8  UNL     1       0.143  51.995 -21.906  1.00  0.00     0.048 A 
BRANCH  14  17
HETATM   17  O2  UNL     1       1.630  54.876 -23.673  1.00  0.00    -0.360 OA
HETATM   18  H4  UNL     1       1.595  54.461 -24.554  1.00  0.00     0.217 HD
ENDBRANCH  14  17
BRANCH  15  19
HETATM   19  C7  UNL     1       0.243  52.347 -24.384  1.00  0.00     0.420 C 
HETATM   20  F1  UNL     1      -0.487  53.251 -25.091  1.00  0.00    -0.166 F 
HETATM   21  F2  UNL     1      -0.478  51.186 -24.419  1.00  0.00    -0.166 F 
HETATM   22  F3  UNL     1       1.363  52.106 -25.116  1.00  0.00    -0.166 F 
ENDBRANCH  15  19
ENDBRANCH   9  11
ENDBRANCH   5   7
ENDBRANCH   1   2
BRANCH   1  23
HETATM   23  C13 UNL     1      -1.280  51.452 -12.909  1.00  0.00     0.248 C 
HETATM   24  O3  UNL     1      -2.413  50.973 -12.801  1.00  0.00    -0.271 OA
HETATM   25  N3  UNL     1      -0.909  52.582 -12.188  1.00  0.00    -0.348 N 
HETATM   26  C14 UNL     1      -1.843  53.094 -11.178  1.00  0.00     0.145 C 
HETATM   27  C27 UNL     1       0.375  53.283 -12.274  1.00  0.00     0.145 C 
HETATM   28  C15 UNL     1      -1.377  54.388 -10.481  1.00  0.00     0.143 C 
HETATM   29  N4  UNL     1       0.012  54.271 -10.003  1.00  0.00    -0.378 N 
HETATM   30  C26 UNL     1       0.964  53.565 -10.882  1.00  0.00     0.143 C 
BRANCH  29  31
HETATM   31  C16 UNL     1       0.507  55.066  -8.977  1.00  0.00     0.030 A 
HETATM   32  C17 UNL     1       1.881  55.340  -8.862  1.00  0.00     0.030 A 
HETATM   33  C18 UNL     1       2.404  56.136  -7.831  1.00  0.00     0.017 A 
HETATM   34  C19 UNL     1       1.579  56.699  -6.847  1.00  0.00     0.008 A 
HETATM   35  C24 UNL     1       0.206  56.426  -6.955  1.00  0.00     0.017 A 
HETATM   36  C25 UNL     1      -0.314  55.628  -7.991  1.00  0.00     0.030 A 
BRANCH  34  37
HETATM   37  C20 UNL     1       2.131  57.526  -5.756  1.00  0.00     0.115 A 
HETATM   38  N5  UNL     1       3.339  58.099  -5.940  1.00  0.00    -0.352 N 
HETATM   39  C21 UNL     1       3.803  58.867  -4.938  1.00  0.00     0.091 A 
ATOM     40  H5  UNL     1       3.874  57.957  -6.797  1.00  0.00     0.166 HD
HETATM   41  C22 UNL     1       3.120  59.082  -3.766  1.00  0.00     0.034 A 
HETATM   42  C23 UNL     1       1.903  58.450  -3.668  1.00  0.00     0.091 A 
HETATM   43  N6  UNL     1       1.385  57.677  -4.640  1.00  0.00    -0.352 N 
ATOM     44  H6  UNL     1       0.476  57.226  -4.539  1.00  0.00     0.166 HD
ENDBRANCH  34  37
ENDBRANCH  29  31
ENDBRANCH   1  23
TORSDOF 8
ENDMDL
MODEL 5
REMARK minimizedAffinity -8.63788128
REMARK CNNscore 0.326767713
REMARK CNNaffinity 5.92719793
REMARK  8 active torsions:
REMARK  status: ('A' for Active; 'I' for Inactive)
REMARK       I    between atoms: C1_2  and  N1_3 
REMARK    1  A    between atoms: C1_2  and  C9_15 
REMARK    2  A    between atoms: N1_3  and  C2_4 
REMARK    3  A    between atoms: C5_7  and  O2_8 
REMARK    4  A    between atoms: C6_9  and  C7_10 
REMARK    5  A    between atoms: N2_18  and  C12_19 
REMARK    6  A    between atoms: C12_19  and  C13_20 
REMARK       I    between atoms: C13_20  and  N3_22 
REMARK    7  A    between atoms: N4_25  and  C16_26 
REMARK    8  A    between atoms: C19_29  and  C20_30 
ROOT
HETATM    1  C12 UNL     1      -6.632  47.850 -24.393  1.00  0.00     0.374 C 
ENDROOT
BRANCH   1   2
HETATM    2  N2  UNL     1      -5.318  48.524 -24.354  1.00  0.00     0.098 N 
HETATM    3  C11 UNL     1      -4.606  48.470 -25.640  1.00  0.00     0.274 C 
HETATM    4  C10 UNL     1      -3.141  48.706 -25.268  1.00  0.00     0.046 C 
HETATM    5  C9  UNL     1      -3.070  48.495 -23.754  1.00  0.00     0.108 C 
HETATM    6  C28 UNL     1      -4.410  47.867 -23.401  1.00  0.00     0.287 C 
BRANCH   5   7
HETATM    7  C1  UNL     1      -2.846  49.799 -22.990  1.00  0.00     0.228 C 
HETATM    8  O1  UNL     1      -3.593  50.757 -23.177  1.00  0.00    -0.273 OA
HETATM    9  N1  UNL     1      -1.775  49.752 -22.116  1.00  0.00    -0.327 N 
HETATM   10  H1  UNL     1      -1.236  48.886 -22.142  1.00  0.00     0.169 HD
BRANCH   9  11
HETATM   11  C2  UNL     1      -1.334  50.742 -21.223  1.00  0.00     0.035 A 
HETATM   12  C3  UNL     1      -1.803  50.889 -19.920  1.00  0.00     0.032 A 
HETATM   13  C4  UNL     1      -1.296  51.898 -19.097  1.00  0.00     0.039 A 
HETATM   14  C5  UNL     1      -0.311  52.764 -19.567  1.00  0.00     0.080 A 
HETATM   15  C6  UNL     1       0.170  52.648 -20.871  1.00  0.00     0.083 A 
HETATM   16  C8  UNL     1      -0.361  51.633 -21.694  1.00  0.00     0.048 A 
BRANCH  14  17
HETATM   17  O2  UNL     1       0.126  53.705 -18.677  1.00  0.00    -0.360 OA
HETATM   18  H4  UNL     1       0.923  54.155 -19.011  1.00  0.00     0.217 HD
ENDBRANCH  14  17
BRANCH  15  19
HETATM   19  C7  UNL     1       1.198  53.579 -21.445  1.00  0.00     0.420 C 
HETATM   20  F1  UNL     1       0.963  54.884 -21.141  1.00  0.00    -0.166 F 
HETATM   21  F2  UNL     1       1.262  53.526 -22.809  1.00  0.00    -0.166 F 
HETATM   22  F3  UNL     1       2.456  53.307 -21.006  1.00  0.00    -0.166 F 
ENDBRANCH  15  19
ENDBRANCH   9  11
ENDBRANCH   5   7
ENDBRANCH   1   2
BRANCH   1  23
HETATM   23  C13 UNL     1      -7.203  47.713 -25.818  1.00  0.00     0.248 C 
HETATM   24  O3  UNL     1      -6.485  47.564 -26.811  1.00  0.00    -0.271 OA
HETATM   25  N3  UNL     1      -8.588  47.751 -25.935  1.00  0.00    -0.348 N 
HETATM   26  C14 UNL     1      -9.179  47.451 -27.245  1.00  0.00     0.145 C 
HETATM   27  C27 UNL     1      -9.544  47.984 -24.849  1.00  0.00     0.145 C 
HETATM   28  C15 UNL     1     -10.714  47.586 -27.295  1.00  0.00     0.143 C 
HETATM   29  N4  UNL     1     -11.353  46.873 -26.176  1.00  0.00    -0.378 N 
HETATM   30  C26 UNL     1     -10.684  46.952 -24.863  1.00  0.00     0.143 C 
BRANCH  29  31
HETATM   31  C16 UNL     1     -12.676  46.450 -26.231  1.00  0.00     0.030 A 
HETATM   32  C17 UNL     1     -13.633  46.920 -25.316  1.00  0.00     0.030 A 
HETATM   33  C18 UNL     1     -14.973  46.502 -25.350  1.00  0.00     0.017 A 
HETATM   34  C19 UNL     1     -15.431  45.580 -26.301  1.00  0.00     0.008 A 
HETATM   35  C24 UNL     1     -14.478  45.104 -27.216  1.00  0.00     0.017 A 
HETATM   36  C25 UNL     1     -13.136  45.526 -27.178  1.00  0.00     0.030 A 
BRANCH  34  37
HETATM   37  C20 UNL     1     -16.837  45.131 -26.328  1.00  0.00     0.115 A 
HETATM   38  N5  UNL     1     -17.445  45.019 -27.527  1.00  0.00    -0.352 N 
HETATM   39  C21 UNL     1     -18.718  44.584 -27.521  1.00  0.00     0.091 A 
ATOM     40  H5  UNL     1     -16.965  45.254 -28.396  1.00  0.00     0.166 HD
HETATM   41  C22 UNL     1     -19.406  44.262 -26.377  1.00  0.00     0.034 A 
HETATM   42  C23 UNL     1     -18.705  44.416 -25.204  1.00  0.00     0.091 A 
HETATM   43  N6  UNL     1     -17.429  44.840 -25.150  1.00  0.00    -0.352 N 
ATOM     44  H6  UNL     1     -16.934  44.938 -24.263  1.00  0.00     0.166 HD
ENDBRANCH  34  37
ENDBRANCH  29  31
ENDBRANCH   1  23
TORSDOF 8
ENDMDL
MODEL 6
REMARK minimizedAffinity -8.58786774
REMARK CNNscore 0.326002806
REMARK CNNaffinity 6.87635183
REMARK  8 active torsions:
REMARK  status: ('A' for Active; 'I' for Inactive)
REMARK       I    between atoms: C1_2  and  N1_3 
REMARK    1  A    between atoms: C1_2  and  C9_15 
REMARK    2  A    between atoms: N1_3  and  C2_4 
REMARK    3  A    between atoms: C5_7  and  O2_8 
REMARK    4  A    between atoms: C6_9  and  C7_10 
REMARK    5  A    between atoms: N2_18  and  C12_19 
REMARK    6  A    between atoms: C12_19  and  C13_20 
REMARK       I    between atoms: C13_20  and  N3_22 
REMARK    7  A    between atoms: N4_25  and  C16_26 
REMARK    8  A    between atoms: C19_29  and  C20_30 
ROOT
HETATM    1  C12 UNL     1      -5.149  48.226 -25.603  1.00  0.00     0.374 C 
ENDROOT
BRANCH   1   2
HETATM    2  N2  UNL     1      -4.439  48.971 -24.544  1.00  0.00     0.098 N 
HETATM    3  C11 UNL     1      -3.836  48.095 -23.528  1.00  0.00     0.274 C 
HETATM    4  C10 UNL     1      -3.650  49.003 -22.312  1.00  0.00     0.046 C 
HETATM    5  C9  UNL     1      -4.513  50.236 -22.593  1.00  0.00     0.108 C 
HETATM    6  C28 UNL     1      -5.361  49.833 -23.789  1.00  0.00     0.287 C 
BRANCH   5   7
HETATM    7  C1  UNL     1      -3.678  51.479 -22.893  1.00  0.00     0.228 C 
HETATM    8  O1  UNL     1      -4.200  52.591 -22.873  1.00  0.00    -0.273 OA
HETATM    9  N1  UNL     1      -2.348  51.202 -23.157  1.00  0.00    -0.327 N 
HETATM   10  H1  UNL     1      -2.113  50.209 -23.186  1.00  0.00     0.169 HD
BRANCH   9  11
HETATM   11  C2  UNL     1      -1.302  52.105 -23.407  1.00  0.00     0.035 A 
HETATM   12  C3  UNL     1      -1.013  52.646 -24.657  1.00  0.00     0.032 A 
HETATM   13  C4  UNL     1       0.043  53.549 -24.808  1.00  0.00     0.039 A 
HETATM   14  C5  UNL     1       0.813  53.925 -23.711  1.00  0.00     0.080 A 
HETATM   15  C6  UNL     1       0.555  53.391 -22.448  1.00  0.00     0.083 A 
HETATM   16  C8  UNL     1      -0.505  52.471 -22.314  1.00  0.00     0.048 A 
BRANCH  14  17
HETATM   17  O2  UNL     1       1.811  54.824 -23.966  1.00  0.00    -0.360 OA
HETATM   18  H4  UNL     1       2.190  55.166 -23.136  1.00  0.00     0.217 HD
ENDBRANCH  14  17
BRANCH  15  19
HETATM   19  C7  UNL     1       1.379  53.726 -21.240  1.00  0.00     0.420 C 
HETATM   20  F1  UNL     1       2.478  54.469 -21.535  1.00  0.00    -0.166 F 
HETATM   21  F2  UNL     1       1.848  52.617 -20.592  1.00  0.00    -0.166 F 
HETATM   22  F3  UNL     1       0.682  54.429 -20.308  1.00  0.00    -0.166 F 
ENDBRANCH  15  19
ENDBRANCH   9  11
ENDBRANCH   5   7
ENDBRANCH   1   2
BRANCH   1  23
HETATM   23  C13 UNL     1      -4.579  48.482 -27.013  1.00  0.00     0.248 C 
HETATM   24  O3  UNL     1      -3.485  49.021 -27.200  1.00  0.00    -0.271 OA
HETATM   25  N3  UNL     1      -5.362  48.059 -28.082  1.00  0.00    -0.348 N 
HETATM   26  C14 UNL     1      -4.783  48.124 -29.429  1.00  0.00     0.145 C 
HETATM   27  C27 UNL     1      -6.700  47.467 -27.996  1.00  0.00     0.145 C 
HETATM   28  C15 UNL     1      -5.748  47.701 -30.556  1.00  0.00     0.143 C 
HETATM   29  N4  UNL     1      -6.401  46.417 -30.249  1.00  0.00    -0.378 N 
HETATM   30  C26 UNL     1      -6.814  46.193 -28.850  1.00  0.00     0.143 C 
BRANCH  29  31
HETATM   31  C16 UNL     1      -6.931  45.605 -31.244  1.00  0.00     0.030 A 
HETATM   32  C17 UNL     1      -6.166  44.589 -31.844  1.00  0.00     0.030 A 
HETATM   33  C18 UNL     1      -6.680  43.761 -32.855  1.00  0.00     0.017 A 
HETATM   34  C19 UNL     1      -7.990  43.908 -33.331  1.00  0.00     0.008 A 
HETATM   35  C24 UNL     1      -8.757  44.924 -32.738  1.00  0.00     0.017 A 
HETATM   36  C25 UNL     1      -8.238  45.751 -31.725  1.00  0.00     0.030 A 
BRANCH  34  37
HETATM   37  C20 UNL     1      -8.525  43.046 -34.403  1.00  0.00     0.115 A 
HETATM   38  N5  UNL     1      -7.649  42.467 -35.250  1.00  0.00    -0.352 N 
HETATM   39  C21 UNL     1      -8.166  41.667 -36.200  1.00  0.00     0.091 A 
ATOM     40  H5  UNL     1      -6.645  42.629 -35.175  1.00  0.00     0.166 HD
HETATM   41  C22 UNL     1      -9.510  41.425 -36.342  1.00  0.00     0.034 A 
HETATM   42  C23 UNL     1     -10.323  42.064 -35.436  1.00  0.00     0.091 A 
HETATM   43  N6  UNL     1      -9.862  42.870 -34.462  1.00  0.00    -0.352 N 
ATOM     44  H6  UNL     1     -10.492  43.326 -33.801  1.00  0.00     0.166 HD
ENDBRANCH  34  37
ENDBRANCH  29  31
ENDBRANCH   1  23
TORSDOF 8
ENDMDL
MODEL 7
REMARK minimizedAffinity -9.203969
REMARK CNNscore 0.268818617
REMARK CNNaffinity 5.35246134
REMARK  8 active torsions:
REMARK  status: ('A' for Active; 'I' for Inactive)
REMARK       I    between atoms: C1_2  and  N1_3 
REMARK    1  A    between atoms: C1_2  and  C9_15 
REMARK    2  A    between atoms: N1_3  and  C2_4 
REMARK    3  A    between atoms: C5_7  and  O2_8 
REMARK    4  A    between atoms: C6_9  and  C7_10 
REMARK    5  A    between atoms: N2_18  and  C12_19 
REMARK    6  A    between atoms: C12_19  and  C13_20 
REMARK       I    between atoms: C13_20  and  N3_22 
REMARK    7  A    between atoms: N4_25  and  C16_26 
REMARK    8  A    between atoms: C19_29  and  C20_30 
ROOT
HETATM    1  C12 UNL     1      -9.789  45.523 -29.150  1.00  0.00     0.374 C 
ENDROOT
BRANCH   1   2
HETATM    2  N2  UNL     1     -11.041  46.190 -28.738  1.00  0.00     0.098 N 
HETATM    3  C11 UNL     1     -10.907  47.651 -28.629  1.00  0.00     0.274 C 
HETATM    4  C10 UNL     1     -12.061  48.066 -27.714  1.00  0.00     0.046 C 
HETATM    5  C9  UNL     1     -12.541  46.770 -27.057  1.00  0.00     0.108 C 
HETATM    6  C28 UNL     1     -11.460  45.755 -27.397  1.00  0.00     0.287 C 
BRANCH   5   7
HETATM    7  C1  UNL     1     -13.909  46.324 -27.573  1.00  0.00     0.228 C 
HETATM    8  O1  UNL     1     -14.114  46.246 -28.781  1.00  0.00    -0.273 OA
HETATM    9  N1  UNL     1     -14.811  46.030 -26.566  1.00  0.00    -0.327 N 
HETATM   10  H1  UNL     1     -14.475  46.212 -25.619  1.00  0.00     0.169 HD
BRANCH   9  11
HETATM   11  C2  UNL     1     -16.121  45.537 -26.686  1.00  0.00     0.035 A 
HETATM   12  C3  UNL     1     -16.545  44.673 -27.692  1.00  0.00     0.032 A 
HETATM   13  C4  UNL     1     -17.867  44.223 -27.725  1.00  0.00     0.039 A 
HETATM   14  C5  UNL     1     -18.775  44.626 -26.747  1.00  0.00     0.080 A 
HETATM   15  C6  UNL     1     -18.381  45.499 -25.733  1.00  0.00     0.083 A 
HETATM   16  C8  UNL     1     -17.047  45.955 -25.722  1.00  0.00     0.048 A 
BRANCH  14  17
HETATM   17  O2  UNL     1     -20.038  44.116 -26.864  1.00  0.00    -0.360 OA
HETATM   18  H4  UNL     1     -20.561  44.300 -26.063  1.00  0.00     0.217 HD
ENDBRANCH  14  17
BRANCH  15  19
HETATM   19  C7  UNL     1     -19.325  46.001 -24.680  1.00  0.00     0.420 C 
HETATM   20  F1  UNL     1     -20.531  46.379 -25.183  1.00  0.00    -0.166 F 
HETATM   21  F2  UNL     1     -18.847  47.094 -24.014  1.00  0.00    -0.166 F 
HETATM   22  F3  UNL     1     -19.586  45.071 -23.723  1.00  0.00    -0.166 F 
ENDBRANCH  15  19
ENDBRANCH   9  11
ENDBRANCH   5   7
ENDBRANCH   1   2
BRANCH   1  23
HETATM   23  C13 UNL     1      -8.936  46.374 -30.112  1.00  0.00     0.248 C 
HETATM   24  O3  UNL     1      -9.363  46.786 -31.194  1.00  0.00    -0.271 OA
HETATM   25  N3  UNL     1      -7.645  46.674 -29.691  1.00  0.00    -0.348 N 
HETATM   26  C14 UNL     1      -6.861  47.623 -30.491  1.00  0.00     0.145 C 
HETATM   27  C27 UNL     1      -6.999  46.196 -28.465  1.00  0.00     0.145 C 
HETATM   28  C15 UNL     1      -5.419  47.839 -29.987  1.00  0.00     0.143 C 
HETATM   29  N4  UNL     1      -5.392  48.114 -28.540  1.00  0.00    -0.378 N 
HETATM   30  C26 UNL     1      -6.323  47.342 -27.694  1.00  0.00     0.143 C 
BRANCH  29  31
HETATM   31  C16 UNL     1      -4.332  48.780 -27.938  1.00  0.00     0.030 A 
HETATM   32  C17 UNL     1      -3.768  48.320 -26.735  1.00  0.00     0.030 A 
HETATM   33  C18 UNL     1      -2.700  48.980 -26.106  1.00  0.00     0.017 A 
HETATM   34  C19 UNL     1      -2.139  50.147 -26.642  1.00  0.00     0.008 A 
HETATM   35  C24 UNL     1      -2.701  50.614 -27.842  1.00  0.00     0.017 A 
HETATM   36  C25 UNL     1      -3.770  49.948 -28.469  1.00  0.00     0.030 A 
BRANCH  34  37
HETATM   37  C20 UNL     1      -1.025  50.848 -25.974  1.00  0.00     0.115 A 
HETATM   38  N5  UNL     1       0.151  50.943 -26.629  1.00  0.00    -0.352 N 
HETATM   39  C21 UNL     1       1.139  51.609 -26.004  1.00  0.00     0.091 A 
ATOM     40  H5  UNL     1       0.284  50.530 -27.552  1.00  0.00     0.166 HD
HETATM   41  C22 UNL     1       1.005  52.175 -24.761  1.00  0.00     0.034 A 
HETATM   42  C23 UNL     1      -0.226  52.019 -24.170  1.00  0.00     0.091 A 
HETATM   43  N6  UNL     1      -1.252  51.370 -24.749  1.00  0.00    -0.352 N 
ATOM     44  H6  UNL     1      -2.157  51.276 -24.287  1.00  0.00     0.166 HD
ENDBRANCH  34  37
ENDBRANCH  29  31
ENDBRANCH   1  23
TORSDOF 8
ENDMDL
MODEL 8
REMARK minimizedAffinity -8.45386314
REMARK CNNscore 0.200900152
REMARK CNNaffinity 5.62499619
REMARK  8 active torsions:
REMARK  status: ('A' for Active; 'I' for Inactive)
REMARK       I    between atoms: C1_2  and  N1_3 
REMARK    1  A    between atoms: C1_2  and  C9_15 
REMARK    2  A    between atoms: N1_3  and  C2_4 
REMARK    3  A    between atoms: C5_7  and  O2_8 
REMARK    4  A    between atoms: C6_9  and  C7_10 
REMARK    5  A    between atoms: N2_18  and  C12_19 
REMARK    6  A    between atoms: C12_19  and  C13_20 
REMARK       I    between atoms: C13_20  and  N3_22 
REMARK    7  A    between atoms: N4_25  and  C16_26 
REMARK    8  A    between atoms: C19_29  and  C20_30 
ROOT
HETATM    1  C12 UNL     1      -9.844  45.443 -28.601  1.00  0.00     0.374 C 
ENDROOT
BRANCH   1   2
HETATM    2  N2  UNL     1     -10.787  46.260 -27.810  1.00  0.00     0.098 N 
HETATM    3  C11 UNL     1     -10.457  47.694 -27.824  1.00  0.00     0.274 C 
HETATM    4  C10 UNL     1     -11.159  48.253 -26.585  1.00  0.00     0.046 C 
HETATM    5  C9  UNL     1     -11.521  47.028 -25.740  1.00  0.00     0.108 C 
HETATM    6  C28 UNL     1     -10.752  45.887 -26.388  1.00  0.00     0.287 C 
BRANCH   5   7
HETATM    7  C1  UNL     1     -13.024  46.752 -25.724  1.00  0.00     0.228 C 
HETATM    8  O1  UNL     1     -13.585  46.345 -26.739  1.00  0.00    -0.273 OA
HETATM    9  N1  UNL     1     -13.618  46.992 -24.498  1.00  0.00    -0.327 N 
HETATM   10  H1  UNL     1     -12.998  47.384 -23.788  1.00  0.00     0.169 HD
BRANCH   9  11
HETATM   11  C2  UNL     1     -14.955  46.784 -24.121  1.00  0.00     0.035 A 
HETATM   12  C3  UNL     1     -16.011  46.650 -25.018  1.00  0.00     0.032 A 
HETATM   13  C4  UNL     1     -17.310  46.432 -24.551  1.00  0.00     0.039 A 
HETATM   14  C5  UNL     1     -17.563  46.339 -23.184  1.00  0.00     0.080 A 
HETATM   15  C6  UNL     1     -16.526  46.480 -22.262  1.00  0.00     0.083 A 
HETATM   16  C8  UNL     1     -15.223  46.713 -22.748  1.00  0.00     0.048 A 
BRANCH  14  17
HETATM   17  O2  UNL     1     -18.865  46.110 -22.836  1.00  0.00    -0.360 OA
HETATM   18  H4  UNL     1     -18.936  45.888 -21.890  1.00  0.00     0.217 HD
ENDBRANCH  14  17
BRANCH  15  19
HETATM   19  C7  UNL     1     -16.746  46.433 -20.778  1.00  0.00     0.420 C 
HETATM   20  F1  UNL     1     -17.789  47.204 -20.370  1.00  0.00    -0.166 F 
HETATM   21  F2  UNL     1     -15.665  46.872 -20.066  1.00  0.00    -0.166 F 
HETATM   22  F3  UNL     1     -17.000  45.177 -20.325  1.00  0.00    -0.166 F 
ENDBRANCH  15  19
ENDBRANCH   9  11
ENDBRANCH   5   7
ENDBRANCH   1   2
BRANCH   1  23
HETATM   23  C13 UNL     1      -9.054  46.262 -29.641  1.00  0.00     0.248 C 
HETATM   24  O3  UNL     1      -9.546  46.630 -30.711  1.00  0.00    -0.271 OA
HETATM   25  N3  UNL     1      -7.743  46.584 -29.306  1.00  0.00    -0.348 N 
HETATM   26  C14 UNL     1      -7.014  47.507 -30.184  1.00  0.00     0.145 C 
HETATM   27  C27 UNL     1      -7.025  46.157 -28.102  1.00  0.00     0.145 C 
HETATM   28  C15 UNL     1      -5.547  47.750 -29.772  1.00  0.00     0.143 C 
HETATM   29  N4  UNL     1      -5.439  48.080 -28.340  1.00  0.00    -0.378 N 
HETATM   30  C26 UNL     1      -6.315  47.335 -27.414  1.00  0.00     0.143 C 
BRANCH  29  31
HETATM   31  C16 UNL     1      -4.352  48.773 -27.825  1.00  0.00     0.030 A 
HETATM   32  C17 UNL     1      -3.695  48.342 -26.660  1.00  0.00     0.030 A 
HETATM   33  C18 UNL     1      -2.597  49.030 -26.118  1.00  0.00     0.017 A 
HETATM   34  C19 UNL     1      -2.099  50.200 -26.709  1.00  0.00     0.008 A 
HETATM   35  C24 UNL     1      -2.755  50.638 -27.871  1.00  0.00     0.017 A 
HETATM   36  C25 UNL     1      -3.853  49.944 -28.411  1.00  0.00     0.030 A 
BRANCH  34  37
HETATM   37  C20 UNL     1      -0.953  50.930 -26.132  1.00  0.00     0.115 A 
HETATM   38  N5  UNL     1       0.274  50.689 -26.638  1.00  0.00    -0.352 N 
HETATM   39  C21 UNL     1       1.294  51.390 -26.108  1.00  0.00     0.091 A 
ATOM     40  H5  UNL     1       0.422  50.010 -27.384  1.00  0.00     0.166 HD
HETATM   41  C22 UNL     1       1.142  52.309 -25.100  1.00  0.00     0.034 A 
HETATM   42  C23 UNL     1      -0.144  52.479 -24.646  1.00  0.00     0.091 A 
HETATM   43  N6  UNL     1      -1.203  51.813 -25.141  1.00  0.00    -0.352 N 
ATOM     44  H6  UNL     1      -2.147  51.967 -24.786  1.00  0.00     0.166 HD
ENDBRANCH  34  37
ENDBRANCH  29  31
ENDBRANCH   1  23
TORSDOF 8
ENDMDL
MODEL 9
REMARK minimizedAffinity -10.01194
REMARK CNNscore 0.1953637
REMARK CNNaffinity 7.20558882
REMARK  8 active torsions:
REMARK  status: ('A' for Active; 'I' for Inactive)
REMARK       I    between atoms: C1_2  and  N1_3 
REMARK    1  A    between atoms: C1_2  and  C9_15 
REMARK    2  A    between atoms: N1_3  and  C2_4 
REMARK    3  A    between atoms: C5_7  and  O2_8 
REMARK    4  A    between atoms: C6_9  and  C7_10 
REMARK    5  A    between atoms: N2_18  and  C12_19 
REMARK    6  A    between atoms: C12_19  and  C13_20 
REMARK       I    between atoms: C13_20  and  N3_22 
REMARK    7  A    between atoms: N4_25  and  C16_26 
REMARK    8  A    between atoms: C19_29  and  C20_30 
ROOT
HETATM    1  C12 UNL     1      -5.346  48.215 -23.668  1.00  0.00     0.374 C 
ENDROOT
BRANCH   1   2
HETATM    2  N2  UNL     1      -4.646  48.813 -24.823  1.00  0.00     0.098 N 
HETATM    3  C11 UNL     1      -5.217  48.406 -26.116  1.00  0.00     0.274 C 
HETATM    4  C10 UNL     1      -4.090  48.657 -27.120  1.00  0.00     0.046 C 
HETATM    5  C9  UNL     1      -2.827  48.829 -26.272  1.00  0.00     0.108 C 
HETATM    6  C28 UNL     1      -3.244  48.374 -24.882  1.00  0.00     0.287 C 
BRANCH   5   7
HETATM    7  C1  UNL     1      -2.321  50.271 -26.261  1.00  0.00     0.228 C 
HETATM    8  O1  UNL     1      -2.896  51.129 -26.926  1.00  0.00    -0.273 OA
HETATM    9  N1  UNL     1      -1.219  50.464 -25.448  1.00  0.00    -0.327 N 
HETATM   10  H1  UNL     1      -0.845  49.616 -25.019  1.00  0.00     0.169 HD
BRANCH   9  11
HETATM   11  C2  UNL     1      -0.547  51.664 -25.159  1.00  0.00     0.035 A 
HETATM   12  C3  UNL     1      -0.235  52.635 -26.106  1.00  0.00     0.032 A 
HETATM   13  C4  UNL     1       0.425  53.806 -25.724  1.00  0.00     0.039 A 
HETATM   14  C5  UNL     1       0.772  54.019 -24.392  1.00  0.00     0.080 A 
HETATM   15  C6  UNL     1       0.482  53.059 -23.423  1.00  0.00     0.083 A 
HETATM   16  C8  UNL     1      -0.173  51.877 -23.826  1.00  0.00     0.048 A 
BRANCH  14  17
HETATM   17  O2  UNL     1       1.401  55.203 -24.125  1.00  0.00    -0.360 OA
HETATM   18  H4  UNL     1       1.457  55.356 -23.164  1.00  0.00     0.217 HD
ENDBRANCH  14  17
BRANCH  15  19
HETATM   19  C7  UNL     1       0.870  53.214 -21.982  1.00  0.00     0.420 C 
HETATM   20  F1  UNL     1       1.585  52.160 -21.507  1.00  0.00    -0.166 F 
HETATM   21  F2  UNL     1      -0.209  53.331 -21.151  1.00  0.00    -0.166 F 
HETATM   22  F3  UNL     1       1.628  54.321 -21.759  1.00  0.00    -0.166 F 
ENDBRANCH  15  19
ENDBRANCH   9  11
ENDBRANCH   5   7
ENDBRANCH   1   2
BRANCH   1  23
HETATM   23  C13 UNL     1      -5.683  49.238 -22.565  1.00  0.00     0.248 C 
HETATM   24  O3  UNL     1      -6.839  49.591 -22.315  1.00  0.00    -0.271 OA
HETATM   25  N3  UNL     1      -4.607  49.744 -21.843  1.00  0.00    -0.348 N 
HETATM   26  C14 UNL     1      -4.895  50.583 -20.674  1.00  0.00     0.145 C 
HETATM   27  C27 UNL     1      -3.190  49.456 -22.081  1.00  0.00     0.145 C 
HETATM   28  C15 UNL     1      -3.642  51.155 -19.979  1.00  0.00     0.143 C 
HETATM   29  N4  UNL     1      -2.642  50.104 -19.726  1.00  0.00    -0.378 N 
HETATM   30  C26 UNL     1      -2.457  49.088 -20.780  1.00  0.00     0.143 C 
BRANCH  29  31
HETATM   31  C16 UNL     1      -1.670  50.235 -18.742  1.00  0.00     0.030 A 
HETATM   32  C17 UNL     1      -0.878  51.392 -18.644  1.00  0.00     0.030 A 
HETATM   33  C18 UNL     1       0.113  51.543 -17.662  1.00  0.00     0.017 A 
HETATM   34  C19 UNL     1       0.376  50.537 -16.722  1.00  0.00     0.008 A 
HETATM   35  C24 UNL     1      -0.409  49.376 -16.817  1.00  0.00     0.017 A 
HETATM   36  C25 UNL     1      -1.402  49.230 -17.803  1.00  0.00     0.030 A 
BRANCH  34  37
HETATM   37  C20 UNL     1       1.427  50.691 -15.697  1.00  0.00     0.115 A 
HETATM   38  N5  UNL     1       2.299  51.711 -15.830  1.00  0.00    -0.352 N 
HETATM   39  C21 UNL     1       3.229  51.840 -14.866  1.00  0.00     0.091 A 
ATOM     40  H5  UNL     1       2.256  52.354 -16.621  1.00  0.00     0.166 HD
HETATM   41  C22 UNL     1       3.328  50.997 -13.787  1.00  0.00     0.034 A 
HETATM   42  C23 UNL     1       2.400  49.984 -13.744  1.00  0.00     0.091 A 
HETATM   43  N6  UNL     1       1.444  49.810 -14.674  1.00  0.00    -0.352 N 
ATOM     44  H6  UNL     1       0.765  49.050 -14.610  1.00  0.00     0.166 HD
ENDBRANCH  34  37
ENDBRANCH  29  31
ENDBRANCH   1  23
TORSDOF 8
ENDMDL
