MODEL 1
REMARK minimizedAffinity -8.16278362
REMARK CNNscore 0.294332981
REMARK CNNaffinity 5.81523848
REMARK  8 active torsions:
REMARK  status: ('A' for Active; 'I' for Inactive)
REMARK    1  A    between atoms: C2_2  and  C3_3 
REMARK    2  A    between atoms: C5_7  and  C6_8 
REMARK    3  A    between atoms: C9_11  and  N2_12 
REMARK       I    between atoms: N3_15  and  C12_16 
REMARK    4  A    between atoms: C12_16  and  C13_18 
REMARK    5  A    between atoms: C13_18  and  N4_19 
REMARK    6  A    between atoms: C16_22  and  C17_23 
REMARK       I    between atoms: C17_23  and  N5_25 
REMARK    7  A    between atoms: N5_25  and  C18_26 
REMARK    8  A    between atoms: C21_29  and  O3_30 
ROOT
HETATM    1  N2  UNL     1      -6.296  48.019 -23.991  1.00  0.00    -0.378 N 
HETATM    2  C10 UNL     1      -7.024  47.132 -23.060  1.00  0.00     0.143 C 
HETATM    3  C11 UNL     1      -7.893  46.102 -23.801  1.00  0.00     0.145 C 
HETATM    4  N3  UNL     1      -8.725  46.761 -24.808  1.00  0.00    -0.348 N 
HETATM    5  C12 UNL     1     -10.111  46.818 -24.827  1.00  0.00     0.248 C 
HETATM    6  O1  UNL     1     -10.711  47.313 -25.786  1.00  0.00    -0.271 OA
HETATM    7  C25 UNL     1      -7.992  47.587 -25.772  1.00  0.00     0.145 C 
HETATM    8  C26 UNL     1      -6.494  47.778 -25.434  1.00  0.00     0.143 C 
ENDROOT
BRANCH   5   9
HETATM    9  C13 UNL     1     -10.861  46.260 -23.599  1.00  0.00     0.374 C 
BRANCH   9  10
HETATM   10  N4  UNL     1     -12.292  46.049 -23.888  1.00  0.00     0.098 N 
HETATM   11  C14 UNL     1     -12.571  44.720 -24.455  1.00  0.00     0.274 C 
HETATM   12  C15 UNL     1     -13.929  44.880 -25.133  1.00  0.00     0.046 C 
HETATM   13  C16 UNL     1     -14.169  46.389 -25.208  1.00  0.00     0.108 C 
HETATM   14  C24 UNL     1     -12.817  47.004 -24.871  1.00  0.00     0.287 C 
BRANCH  13  15
HETATM   15  C17 UNL     1     -15.264  46.831 -24.232  1.00  0.00     0.228 C 
HETATM   16  O2  UNL     1     -15.601  48.012 -24.187  1.00  0.00    -0.273 OA
HETATM   17  N5  UNL     1     -15.802  45.793 -23.496  1.00  0.00    -0.327 N 
HETATM   18  H20 UNL     1     -15.365  44.881 -23.649  1.00  0.00     0.169 HD
BRANCH  17  19
HETATM   19  C18 UNL     1     -16.854  45.837 -22.564  1.00  0.00     0.036 A 
HETATM   20  C19 UNL     1     -18.083  45.195 -22.749  1.00  0.00     0.032 A 
HETATM   21  C20 UNL     1     -19.079  45.272 -21.771  1.00  0.00     0.040 A 
HETATM   22  C21 UNL     1     -18.848  45.994 -20.607  1.00  0.00     0.087 A 
HETATM   23  C22 UNL     1     -17.626  46.636 -20.411  1.00  0.00     0.069 A 
HETATM   24 CL1  UNL     1     -17.335  47.531 -18.964  1.00  0.00    -0.081 Cl
HETATM   25  C23 UNL     1     -16.627  46.559 -21.384  1.00  0.00     0.056 A 
BRANCH  22  26
HETATM   26  O3  UNL     1     -19.851  46.028 -19.678  1.00  0.00    -0.359 OA
HETATM   27  H23 UNL     1     -19.535  46.574 -18.933  1.00  0.00     0.217 HD
ENDBRANCH  22  26
ENDBRANCH  17  19
ENDBRANCH  13  15
ENDBRANCH   9  10
ENDBRANCH   5   9
BRANCH   1  28
HETATM   28  C9  UNL     1      -5.221  48.752 -23.506  1.00  0.00     0.030 A 
HETATM   29  C8  UNL     1      -5.378  50.088 -23.107  1.00  0.00     0.030 A 
HETATM   30  C7  UNL     1      -4.304  50.862 -22.640  1.00  0.00     0.017 A 
HETATM   31  C6  UNL     1      -3.005  50.341 -22.553  1.00  0.00     0.008 A 
HETATM   32  C28 UNL     1      -2.842  49.004 -22.946  1.00  0.00     0.017 A 
HETATM   33  C27 UNL     1      -3.922  48.232 -23.412  1.00  0.00     0.030 A 
BRANCH  31  34
HETATM   34  C5  UNL     1      -1.876  51.166 -22.083  1.00  0.00     0.115 A 
HETATM   35  N1  UNL     1      -1.725  51.342 -20.755  1.00  0.00    -0.351 N 
HETATM   36  C4  UNL     1      -0.661  52.072 -20.360  1.00  0.00     0.098 A 
ATOM     37  H1  UNL     1      -2.381  50.945 -20.083  1.00  0.00     0.166 HD
HETATM   38  C3  UNL     1       0.250  52.636 -21.226  1.00  0.00    -0.028 A 
HETATM   39  C29 UNL     1      -0.004  52.405 -22.561  1.00  0.00     0.098 A 
HETATM   40  N6  UNL     1      -1.044  51.679 -23.012  1.00  0.00    -0.351 N 
ATOM     41  H6  UNL     1      -1.196  51.525 -24.009  1.00  0.00     0.166 HD
BRANCH  38  42
HETATM   42  C2  UNL     1       1.434  53.426 -20.760  1.00  0.00     0.037 C 
HETATM   43  C1  UNL     1       1.740  54.599 -21.682  1.00  0.00     0.010 C 
ENDBRANCH  38  42
ENDBRANCH  31  34
ENDBRANCH   1  28
TORSDOF 8
ENDMDL
MODEL 2
REMARK minimizedAffinity -7.78300619
REMARK CNNscore 0.285393894
REMARK CNNaffinity 6.32190895
REMARK  8 active torsions:
REMARK  status: ('A' for Active; 'I' for Inactive)
REMARK    1  A    between atoms: C2_2  and  C3_3 
REMARK    2  A    between atoms: C5_7  and  C6_8 
REMARK    3  A    between atoms: C9_11  and  N2_12 
REMARK       I    between atoms: N3_15  and  C12_16 
REMARK    4  A    between atoms: C12_16  and  C13_18 
REMARK    5  A    between atoms: C13_18  and  N4_19 
REMARK    6  A    between atoms: C16_22  and  C17_23 
REMARK       I    between atoms: C17_23  and  N5_25 
REMARK    7  A    between atoms: N5_25  and  C18_26 
REMARK    8  A    between atoms: C21_29  and  O3_30 
ROOT
HETATM    1  N2  UNL     1       0.828  51.347 -14.742  1.00  0.00    -0.378 N 
HETATM    2  C10 UNL     1       1.543  50.178 -14.188  1.00  0.00     0.143 C 
HETATM    3  C11 UNL     1       1.316  50.025 -12.674  1.00  0.00     0.145 C 
HETATM    4  N3  UNL     1       1.570  51.289 -11.986  1.00  0.00    -0.348 N 
HETATM    5  C12 UNL     1       2.561  51.536 -11.046  1.00  0.00     0.248 C 
HETATM    6  O1  UNL     1       2.615  52.617 -10.451  1.00  0.00    -0.271 OA
HETATM    7  C25 UNL     1       0.810  52.435 -12.494  1.00  0.00     0.145 C 
HETATM    8  C26 UNL     1       0.025  52.148 -13.797  1.00  0.00     0.143 C 
ENDROOT
BRANCH   5   9
HETATM    9  C13 UNL     1       3.594  50.417 -10.796  1.00  0.00     0.374 C 
BRANCH   9  10
HETATM   10  N4  UNL     1       4.854  50.956 -10.247  1.00  0.00     0.098 N 
HETATM   11  C14 UNL     1       6.039  50.212 -10.700  1.00  0.00     0.274 C 
HETATM   12  C15 UNL     1       7.115  50.564  -9.676  1.00  0.00     0.046 C 
HETATM   13  C16 UNL     1       6.367  51.209  -8.508  1.00  0.00     0.108 C 
HETATM   14  C24 UNL     1       4.901  50.900  -8.781  1.00  0.00     0.287 C 
BRANCH  13  15
HETATM   15  C17 UNL     1       6.636  52.714  -8.433  1.00  0.00     0.228 C 
HETATM   16  O2  UNL     1       7.036  53.314  -9.428  1.00  0.00    -0.273 OA
HETATM   17  N5  UNL     1       6.351  53.267  -7.198  1.00  0.00    -0.327 N 
HETATM   18  H20 UNL     1       6.057  52.599  -6.482  1.00  0.00     0.169 HD
BRANCH  17  19
HETATM   19  C18 UNL     1       6.425  54.615  -6.807  1.00  0.00     0.036 A 
HETATM   20  C19 UNL     1       5.428  55.559  -7.077  1.00  0.00     0.032 A 
HETATM   21  C20 UNL     1       5.566  56.882  -6.645  1.00  0.00     0.040 A 
HETATM   22  C21 UNL     1       6.702  57.263  -5.944  1.00  0.00     0.087 A 
HETATM   23  C22 UNL     1       7.702  56.331  -5.668  1.00  0.00     0.069 A 
HETATM   24 CL1  UNL     1       9.114  56.802  -4.795  1.00  0.00    -0.081 Cl
HETATM   25  C23 UNL     1       7.567  55.008  -6.096  1.00  0.00     0.056 A 
BRANCH  22  26
HETATM   26  O3  UNL     1       6.781  58.565  -5.535  1.00  0.00    -0.359 OA
HETATM   27  H23 UNL     1       7.632  58.669  -5.068  1.00  0.00     0.217 HD
ENDBRANCH  22  26
ENDBRANCH  17  19
ENDBRANCH  13  15
ENDBRANCH   9  10
ENDBRANCH   5   9
BRANCH   1  28
HETATM   28  C9  UNL     1       0.642  51.422 -16.116  1.00  0.00     0.030 A 
HETATM   29  C8  UNL     1       1.214  52.459 -16.868  1.00  0.00     0.030 A 
HETATM   30  C7  UNL     1       1.019  52.575 -18.253  1.00  0.00     0.017 A 
HETATM   31  C6  UNL     1       0.231  51.660 -18.965  1.00  0.00     0.008 A 
HETATM   32  C28 UNL     1      -0.340  50.617 -18.220  1.00  0.00     0.017 A 
HETATM   33  C27 UNL     1      -0.140  50.504 -16.831  1.00  0.00     0.030 A 
BRANCH  31  34
HETATM   34  C5  UNL     1       0.011  51.800 -20.417  1.00  0.00     0.115 A 
HETATM   35  N1  UNL     1      -1.101  51.254 -20.949  1.00  0.00    -0.351 N 
HETATM   36  C4  UNL     1      -1.288  51.432 -22.272  1.00  0.00     0.098 A 
ATOM     37  H1  UNL     1      -1.768  50.733 -20.379  1.00  0.00     0.166 HD
HETATM   38  C3  UNL     1      -0.416  52.121 -23.087  1.00  0.00    -0.028 A 
HETATM   39  C29 UNL     1       0.694  52.627 -22.446  1.00  0.00     0.098 A 
HETATM   40  N6  UNL     1       0.928  52.487 -21.127  1.00  0.00    -0.351 N 
ATOM     41  H6  UNL     1       1.760  52.881 -20.687  1.00  0.00     0.166 HD
BRANCH  38  42
HETATM   42  C2  UNL     1      -0.656  52.321 -24.551  1.00  0.00     0.037 C 
HETATM   43  C1  UNL     1       0.364  51.583 -25.407  1.00  0.00     0.010 C 
ENDBRANCH  38  42
ENDBRANCH  31  34
ENDBRANCH   1  28
TORSDOF 8
ENDMDL
MODEL 3
REMARK minimizedAffinity -8.3681078
REMARK CNNscore 0.271209985
REMARK CNNaffinity 6.65473604
REMARK  8 active torsions:
REMARK  status: ('A' for Active; 'I' for Inactive)
REMARK    1  A    between atoms: C2_2  and  C3_3 
REMARK    2  A    between atoms: C5_7  and  C6_8 
REMARK    3  A    between atoms: C9_11  and  N2_12 
REMARK       I    between atoms: N3_15  and  C12_16 
REMARK    4  A    between atoms: C12_16  and  C13_18 
REMARK    5  A    between atoms: C13_18  and  N4_19 
REMARK    6  A    between atoms: C16_22  and  C17_23 
REMARK       I    between atoms: C17_23  and  N5_25 
REMARK    7  A    between atoms: N5_25  and  C18_26 
REMARK    8  A    between atoms: C21_29  and  O3_30 
ROOT
HETATM    1  N2  UNL     1      -5.106  48.260 -26.129  1.00  0.00    -0.378 N 
HETATM    2  C10 UNL     1      -5.855  48.401 -24.863  1.00  0.00     0.143 C 
HETATM    3  C11 UNL     1      -5.057  49.178 -23.802  1.00  0.00     0.145 C 
HETATM    4  N3  UNL     1      -3.709  48.626 -23.667  1.00  0.00    -0.348 N 
HETATM    5  C12 UNL     1      -3.170  48.025 -22.538  1.00  0.00     0.248 C 
HETATM    6  O1  UNL     1      -1.982  47.690 -22.505  1.00  0.00    -0.271 OA
HETATM    7  C25 UNL     1      -2.943  48.549 -24.914  1.00  0.00     0.145 C 
HETATM    8  C26 UNL     1      -3.765  48.876 -26.185  1.00  0.00     0.143 C 
ENDROOT
BRANCH   5   9
HETATM    9  C13 UNL     1      -4.119  47.777 -21.346  1.00  0.00     0.374 C 
BRANCH   9  10
HETATM   10  N4  UNL     1      -3.614  48.410 -20.112  1.00  0.00     0.098 N 
HETATM   11  C14 UNL     1      -3.387  47.444 -19.026  1.00  0.00     0.274 C 
HETATM   12  C15 UNL     1      -3.376  48.299 -17.761  1.00  0.00     0.046 C 
HETATM   13  C16 UNL     1      -3.950  49.652 -18.183  1.00  0.00     0.108 C 
HETATM   14  C24 UNL     1      -4.549  49.398 -19.560  1.00  0.00     0.287 C 
BRANCH  13  15
HETATM   15  C17 UNL     1      -2.867  50.735 -18.216  1.00  0.00     0.228 C 
HETATM   16  O2  UNL     1      -2.535  51.299 -17.176  1.00  0.00    -0.273 OA
HETATM   17  N5  UNL     1      -2.331  50.943 -19.473  1.00  0.00    -0.327 N 
HETATM   18  H20 UNL     1      -2.761  50.399 -20.223  1.00  0.00     0.169 HD
BRANCH  17  19
HETATM   19  C18 UNL     1      -1.288  51.810 -19.844  1.00  0.00     0.036 A 
HETATM   20  C19 UNL     1      -0.599  52.627 -18.942  1.00  0.00     0.032 A 
HETATM   21  C20 UNL     1       0.438  53.456 -19.382  1.00  0.00     0.040 A 
HETATM   22  C21 UNL     1       0.785  53.470 -20.726  1.00  0.00     0.087 A 
HETATM   23  C22 UNL     1       0.106  52.658 -21.635  1.00  0.00     0.069 A 
HETATM   24 CL1  UNL     1       0.538  52.673 -23.306  1.00  0.00    -0.081 Cl
HETATM   25  C23 UNL     1      -0.928  51.828 -21.198  1.00  0.00     0.056 A 
BRANCH  22  26
HETATM   26  O3  UNL     1       1.814  54.290 -21.101  1.00  0.00    -0.359 OA
HETATM   27  H23 UNL     1       1.925  54.187 -22.066  1.00  0.00     0.217 HD
ENDBRANCH  22  26
ENDBRANCH  17  19
ENDBRANCH  13  15
ENDBRANCH   9  10
ENDBRANCH   5   9
BRANCH   1  28
HETATM   28  C9  UNL     1      -5.803  47.905 -27.277  1.00  0.00     0.030 A 
HETATM   29  C8  UNL     1      -7.091  47.355 -27.200  1.00  0.00     0.030 A 
HETATM   30  C7  UNL     1      -7.807  46.961 -28.341  1.00  0.00     0.017 A 
HETATM   31  C6  UNL     1      -7.267  47.089 -29.629  1.00  0.00     0.008 A 
HETATM   32  C28 UNL     1      -5.981  47.643 -29.714  1.00  0.00     0.017 A 
HETATM   33  C27 UNL     1      -5.268  48.038 -28.566  1.00  0.00     0.030 A 
BRANCH  31  34
HETATM   34  C5  UNL     1      -8.015  46.652 -30.823  1.00  0.00     0.115 A 
HETATM   35  N1  UNL     1      -8.826  45.580 -30.711  1.00  0.00    -0.351 N 
HETATM   36  C4  UNL     1      -9.520  45.231 -31.813  1.00  0.00     0.098 A 
ATOM     37  H1  UNL     1      -8.910  45.060 -29.838  1.00  0.00     0.166 HD
HETATM   38  C3  UNL     1      -9.439  45.895 -33.018  1.00  0.00    -0.028 A 
HETATM   39  C29 UNL     1      -8.573  46.967 -33.027  1.00  0.00     0.098 A 
HETATM   40  N6  UNL     1      -7.860  47.366 -31.957  1.00  0.00    -0.351 N 
ATOM     41  H6  UNL     1      -7.232  48.169 -32.001  1.00  0.00     0.166 HD
BRANCH  38  42
HETATM   42  C2  UNL     1     -10.236  45.498 -34.221  1.00  0.00     0.037 C 
HETATM   43  C1  UNL     1      -9.843  46.295 -35.459  1.00  0.00     0.010 C 
ENDBRANCH  38  42
ENDBRANCH  31  34
ENDBRANCH   1  28
TORSDOF 8
ENDMDL
MODEL 4
REMARK minimizedAffinity -9.20188046
REMARK CNNscore 0.254966855
REMARK CNNaffinity 6.55946398
REMARK  8 active torsions:
REMARK  status: ('A' for Active; 'I' for Inactive)
REMARK    1  A    between atoms: C2_2  and  C3_3 
REMARK    2  A    between atoms: C5_7  and  C6_8 
REMARK    3  A    between atoms: C9_11  and  N2_12 
REMARK       I    between atoms: N3_15  and  C12_16 
REMARK    4  A    between atoms: C12_16  and  C13_18 
REMARK    5  A    between atoms: C13_18  and  N4_19 
REMARK    6  A    between atoms: C16_22  and  C17_23 
REMARK       I    between atoms: C17_23  and  N5_25 
REMARK    7  A    between atoms: N5_25  and  C18_26 
REMARK    8  A    between atoms: C21_29  and  O3_30 
ROOT
HETATM    1  N2  UNL     1      -0.104  51.362 -16.919  1.00  0.00    -0.378 N 
HETATM    2  C10 UNL     1       1.039  51.862 -16.126  1.00  0.00     0.143 C 
HETATM    3  C11 UNL     1       1.034  51.308 -14.691  1.00  0.00     0.145 C 
HETATM    4  N3  UNL     1      -0.278  51.494 -14.072  1.00  0.00    -0.348 N 
HETATM    5  C12 UNL     1      -0.567  52.275 -12.963  1.00  0.00     0.248 C 
HETATM    6  O1  UNL     1      -1.696  52.273 -12.464  1.00  0.00    -0.271 OA
HETATM    7  C25 UNL     1      -1.403  50.938 -14.829  1.00  0.00     0.145 C 
HETATM    8  C26 UNL     1      -1.029  50.431 -16.243  1.00  0.00     0.143 C 
ENDROOT
BRANCH   5   9
HETATM    9  C13 UNL     1       0.571  53.154 -12.400  1.00  0.00     0.374 C 
BRANCH   9  10
HETATM   10  N4  UNL     1       0.343  53.489 -10.981  1.00  0.00     0.098 N 
HETATM   11  C14 UNL     1      -0.049  52.324 -10.173  1.00  0.00     0.274 C 
HETATM   12  C15 UNL     1      -0.709  52.930  -8.937  1.00  0.00     0.046 C 
HETATM   13  C16 UNL     1      -0.962  54.396  -9.292  1.00  0.00     0.108 C 
HETATM   14  C24 UNL     1      -0.736  54.467 -10.797  1.00  0.00     0.287 C 
BRANCH  13  15
HETATM   15  C17 UNL     1      -0.022  55.330  -8.523  1.00  0.00     0.228 C 
HETATM   16  O2  UNL     1      -0.476  56.081  -7.663  1.00  0.00    -0.273 OA
HETATM   17  N5  UNL     1       1.307  55.191  -8.878  1.00  0.00    -0.327 N 
HETATM   18  H20 UNL     1       1.486  54.535  -9.641  1.00  0.00     0.169 HD
BRANCH  17  19
HETATM   19  C18 UNL     1       2.428  55.843  -8.333  1.00  0.00     0.036 A 
HETATM   20  C19 UNL     1       2.345  56.895  -7.416  1.00  0.00     0.032 A 
HETATM   21  C20 UNL     1       3.505  57.487  -6.906  1.00  0.00     0.040 A 
HETATM   22  C21 UNL     1       4.750  57.028  -7.316  1.00  0.00     0.087 A 
HETATM   23  C22 UNL     1       4.844  55.978  -8.229  1.00  0.00     0.069 A 
HETATM   24 CL1  UNL     1       6.391  55.405  -8.738  1.00  0.00    -0.081 Cl
HETATM   25  C23 UNL     1       3.688  55.383  -8.738  1.00  0.00     0.056 A 
BRANCH  22  26
HETATM   26  O3  UNL     1       5.851  57.634  -6.778  1.00  0.00    -0.359 OA
HETATM   27  H23 UNL     1       6.635  57.204  -7.170  1.00  0.00     0.217 HD
ENDBRANCH  22  26
ENDBRANCH  17  19
ENDBRANCH  13  15
ENDBRANCH   9  10
ENDBRANCH   5   9
BRANCH   1  28
HETATM   28  C9  UNL     1      -0.054  51.480 -18.302  1.00  0.00     0.030 A 
HETATM   29  C8  UNL     1       0.311  52.688 -18.913  1.00  0.00     0.030 A 
HETATM   30  C7  UNL     1       0.343  52.844 -20.307  1.00  0.00     0.017 A 
HETATM   31  C6  UNL     1       0.000  51.795 -21.172  1.00  0.00     0.008 A 
HETATM   32  C28 UNL     1      -0.362  50.581 -20.568  1.00  0.00     0.017 A 
HETATM   33  C27 UNL     1      -0.390  50.430 -19.169  1.00  0.00     0.030 A 
BRANCH  31  34
HETATM   34  C5  UNL     1       0.013  51.970 -22.637  1.00  0.00     0.115 A 
HETATM   35  N1  UNL     1      -0.700  51.107 -23.388  1.00  0.00    -0.351 N 
HETATM   36  C4  UNL     1      -0.695  51.319 -24.720  1.00  0.00     0.098 A 
ATOM     37  H1  UNL     1      -1.217  50.333 -22.971  1.00  0.00     0.166 HD
HETATM   38  C3  UNL     1      -0.009  52.344 -25.334  1.00  0.00    -0.028 A 
HETATM   39  C29 UNL     1       0.696  53.161 -24.476  1.00  0.00     0.098 A 
HETATM   40  N6  UNL     1       0.721  53.002 -23.140  1.00  0.00    -0.351 N 
ATOM     41  H6  UNL     1       1.251  53.631 -22.536  1.00  0.00     0.166 HD
BRANCH  38  42
HETATM   42  C2  UNL     1      -0.036  52.569 -26.814  1.00  0.00     0.037 C 
HETATM   43  C1  UNL     1       1.000  51.723 -27.543  1.00  0.00     0.010 C 
ENDBRANCH  38  42
ENDBRANCH  31  34
ENDBRANCH   1  28
TORSDOF 8
ENDMDL
MODEL 5
REMARK minimizedAffinity -7.99046278
REMARK CNNscore 0.244480267
REMARK CNNaffinity 6.970819
REMARK  8 active torsions:
REMARK  status: ('A' for Active; 'I' for Inactive)
REMARK    1  A    between atoms: C2_2  and  C3_3 
REMARK    2  A    between atoms: C5_7  and  C6_8 
REMARK    3  A    between atoms: C9_11  and  N2_12 
REMARK       I    between atoms: N3_15  and  C12_16 
REMARK    4  A    between atoms: C12_16  and  C13_18 
REMARK    5  A    between atoms: C13_18  and  N4_19 
REMARK    6  A    between atoms: C16_22  and  C17_23 
REMARK       I    between atoms: C17_23  and  N5_25 
REMARK    7  A    between atoms: N5_25  and  C18_26 
REMARK    8  A    between atoms: C21_29  and  O3_30 
ROOT
HETATM    1  N2  UNL     1       0.989  51.938 -17.257  1.00  0.00    -0.378 N 
HETATM    2  C10 UNL     1      -0.063  51.524 -16.305  1.00  0.00     0.143 C 
HETATM    3  C11 UNL     1       0.294  51.889 -14.854  1.00  0.00     0.145 C 
HETATM    4  N3  UNL     1       1.643  51.429 -14.525  1.00  0.00    -0.348 N 
HETATM    5  C12 UNL     1       1.985  50.481 -13.571  1.00  0.00     0.248 C 
HETATM    6  O1  UNL     1       3.168  50.249 -13.306  1.00  0.00    -0.271 OA
HETATM    7  C25 UNL     1       2.694  51.896 -15.433  1.00  0.00     0.145 C 
HETATM    8  C26 UNL     1       2.167  52.625 -16.693  1.00  0.00     0.143 C 
ENDROOT
BRANCH   5   9
HETATM    9  C13 UNL     1       0.832  49.724 -12.880  1.00  0.00     0.374 C 
BRANCH   9  10
HETATM   10  N4  UNL     1       0.383  50.419 -11.658  1.00  0.00     0.098 N 
HETATM   11  C14 UNL     1       0.580  49.618 -10.439  1.00  0.00     0.274 C 
HETATM   12  C15 UNL     1      -0.367  50.248  -9.421  1.00  0.00     0.046 C 
HETATM   13  C16 UNL     1      -1.299  51.146 -10.236  1.00  0.00     0.108 C 
HETATM   14  C24 UNL     1      -1.050  50.737 -11.682  1.00  0.00     0.287 C 
BRANCH  13  15
HETATM   15  C17 UNL     1      -1.001  52.628  -9.996  1.00  0.00     0.228 C 
HETATM   16  O2  UNL     1      -1.571  53.484 -10.669  1.00  0.00    -0.273 OA
HETATM   17  N5  UNL     1      -0.100  52.852  -8.971  1.00  0.00    -0.327 N 
HETATM   18  H20 UNL     1       0.294  52.009  -8.548  1.00  0.00     0.169 HD
BRANCH  17  19
HETATM   19  C18 UNL     1       0.344  54.082  -8.453  1.00  0.00     0.036 A 
HETATM   20  C19 UNL     1      -0.274  54.744  -7.387  1.00  0.00     0.032 A 
HETATM   21  C20 UNL     1       0.234  55.959  -6.916  1.00  0.00     0.040 A 
HETATM   22  C21 UNL     1       1.358  56.515  -7.513  1.00  0.00     0.087 A 
HETATM   23  C22 UNL     1       1.982  55.862  -8.575  1.00  0.00     0.069 A 
HETATM   24 CL1  UNL     1       3.381  56.549  -9.317  1.00  0.00    -0.081 Cl
HETATM   25  C23 UNL     1       1.481  54.647  -9.047  1.00  0.00     0.056 A 
BRANCH  22  26
HETATM   26  O3  UNL     1       1.818  57.698  -7.006  1.00  0.00    -0.359 OA
HETATM   27  H23 UNL     1       2.600  57.952  -7.534  1.00  0.00     0.217 HD
ENDBRANCH  22  26
ENDBRANCH  17  19
ENDBRANCH  13  15
ENDBRANCH   9  10
ENDBRANCH   5   9
BRANCH   1  28
HETATM   28  C9  UNL     1       0.674  52.002 -18.608  1.00  0.00     0.030 A 
HETATM   29  C8  UNL     1       1.064  53.099 -19.391  1.00  0.00     0.030 A 
HETATM   30  C7  UNL     1       0.735  53.204 -20.751  1.00  0.00     0.017 A 
HETATM   31  C6  UNL     1      -0.015  52.215 -21.405  1.00  0.00     0.008 A 
HETATM   32  C28 UNL     1      -0.405  51.113 -20.629  1.00  0.00     0.017 A 
HETATM   33  C27 UNL     1      -0.070  51.012 -19.266  1.00  0.00     0.030 A 
BRANCH  31  34
HETATM   34  C5  UNL     1      -0.378  52.341 -22.829  1.00  0.00     0.115 A 
HETATM   35  N1  UNL     1       0.495  52.950 -23.658  1.00  0.00    -0.351 N 
HETATM   36  C4  UNL     1       0.146  53.016 -24.959  1.00  0.00     0.098 A 
ATOM     37  H1  UNL     1       1.373  53.341 -23.318  1.00  0.00     0.166 HD
HETATM   38  C3  UNL     1      -1.031  52.510 -25.468  1.00  0.00    -0.028 A 
HETATM   39  C29 UNL     1      -1.855  51.920 -24.534  1.00  0.00     0.098 A 
HETATM   40  N6  UNL     1      -1.556  51.819 -23.225  1.00  0.00    -0.351 N 
ATOM     41  H6  UNL     1      -2.191  51.369 -22.565  1.00  0.00     0.166 HD
BRANCH  38  42
HETATM   42  C2  UNL     1      -1.385  52.579 -26.920  1.00  0.00     0.037 C 
HETATM   43  C1  UNL     1      -0.186  52.307 -27.818  1.00  0.00     0.010 C 
ENDBRANCH  38  42
ENDBRANCH  31  34
ENDBRANCH   1  28
TORSDOF 8
ENDMDL
MODEL 6
REMARK minimizedAffinity -8.17861938
REMARK CNNscore 0.209194139
REMARK CNNaffinity 6.78906584
REMARK  8 active torsions:
REMARK  status: ('A' for Active; 'I' for Inactive)
REMARK    1  A    between atoms: C2_2  and  C3_3 
REMARK    2  A    between atoms: C5_7  and  C6_8 
REMARK    3  A    between atoms: C9_11  and  N2_12 
REMARK       I    between atoms: N3_15  and  C12_16 
REMARK    4  A    between atoms: C12_16  and  C13_18 
REMARK    5  A    between atoms: C13_18  and  N4_19 
REMARK    6  A    between atoms: C16_22  and  C17_23 
REMARK       I    between atoms: C17_23  and  N5_25 
REMARK    7  A    between atoms: N5_25  and  C18_26 
REMARK    8  A    between atoms: C21_29  and  O3_30 
ROOT
HETATM    1  N2  UNL     1       0.953  51.895 -17.370  1.00  0.00    -0.378 N 
HETATM    2  C10 UNL     1       0.011  51.513 -16.298  1.00  0.00     0.143 C 
HETATM    3  C11 UNL     1       0.523  51.919 -14.905  1.00  0.00     0.145 C 
HETATM    4  N3  UNL     1       1.899  51.465 -14.711  1.00  0.00    -0.348 N 
HETATM    5  C12 UNL     1       2.343  50.544 -13.773  1.00  0.00     0.248 C 
HETATM    6  O1  UNL     1       3.548  50.316 -13.630  1.00  0.00    -0.271 OA
HETATM    7  C25 UNL     1       2.846  51.902 -15.741  1.00  0.00     0.145 C 
HETATM    8  C26 UNL     1       2.186  52.595 -16.958  1.00  0.00     0.143 C 
ENDROOT
BRANCH   5   9
HETATM    9  C13 UNL     1       1.272  49.811 -12.938  1.00  0.00     0.374 C 
BRANCH   9  10
HETATM   10  N4  UNL     1       1.241  50.300 -11.546  1.00  0.00     0.098 N 
HETATM   11  C14 UNL     1       0.611  49.347 -10.619  1.00  0.00     0.274 C 
HETATM   12  C15 UNL     1       0.224  50.199  -9.413  1.00  0.00     0.046 C 
HETATM   13  C16 UNL     1       0.344  51.649  -9.887  1.00  0.00     0.108 C 
HETATM   14  C24 UNL     1       0.474  51.543 -11.400  1.00  0.00     0.287 C 
BRANCH  13  15
HETATM   15  C17 UNL     1       1.548  52.348  -9.250  1.00  0.00     0.228 C 
HETATM   16  O2  UNL     1       1.573  52.539  -8.037  1.00  0.00    -0.273 OA
HETATM   17  N5  UNL     1       2.541  52.674 -10.156  1.00  0.00    -0.327 N 
HETATM   18  H20 UNL     1       2.323  52.464 -11.132  1.00  0.00     0.169 HD
BRANCH  17  19
HETATM   19  C18 UNL     1       3.793  53.262  -9.904  1.00  0.00     0.036 A 
HETATM   20  C19 UNL     1       4.062  54.623 -10.085  1.00  0.00     0.032 A 
HETATM   21  C20 UNL     1       5.330  55.140  -9.801  1.00  0.00     0.040 A 
HETATM   22  C21 UNL     1       6.331  54.296  -9.339  1.00  0.00     0.087 A 
HETATM   23  C22 UNL     1       6.074  52.938  -9.154  1.00  0.00     0.069 A 
HETATM   24 CL1  UNL     1       7.316  51.888  -8.577  1.00  0.00    -0.081 Cl
HETATM   25  C23 UNL     1       4.809  52.418  -9.434  1.00  0.00     0.056 A 
BRANCH  22  26
HETATM   26  O3  UNL     1       7.549  54.856  -9.066  1.00  0.00    -0.359 OA
HETATM   27  H23 UNL     1       8.134  54.136  -8.760  1.00  0.00     0.217 HD
ENDBRANCH  22  26
ENDBRANCH  17  19
ENDBRANCH  13  15
ENDBRANCH   9  10
ENDBRANCH   5   9
BRANCH   1  28
HETATM   28  C9  UNL     1       0.493  51.920 -18.680  1.00  0.00     0.030 A 
HETATM   29  C8  UNL     1       0.948  52.888 -19.588  1.00  0.00     0.030 A 
HETATM   30  C7  UNL     1       0.479  52.955 -20.909  1.00  0.00     0.017 A 
HETATM   31  C6  UNL     1      -0.482  52.058 -21.395  1.00  0.00     0.008 A 
HETATM   32  C28 UNL     1      -0.938  51.084 -20.494  1.00  0.00     0.017 A 
HETATM   33  C27 UNL     1      -0.463  51.020 -19.171  1.00  0.00     0.030 A 
BRANCH  31  34
HETATM   34  C5  UNL     1      -0.988  52.147 -22.778  1.00  0.00     0.115 A 
HETATM   35  N1  UNL     1      -0.232  52.786 -23.694  1.00  0.00    -0.351 N 
HETATM   36  C4  UNL     1      -0.709  52.817 -24.955  1.00  0.00     0.098 A 
ATOM     37  H1  UNL     1       0.656  53.223 -23.446  1.00  0.00     0.166 HD
HETATM   38  C3  UNL     1      -1.903  52.248 -25.341  1.00  0.00    -0.028 A 
HETATM   39  C29 UNL     1      -2.602  51.631 -24.326  1.00  0.00     0.098 A 
HETATM   40  N6  UNL     1      -2.172  51.563 -23.052  1.00  0.00    -0.351 N 
ATOM     41  H6  UNL     1      -2.716  51.092 -22.329  1.00  0.00     0.166 HD
BRANCH  38  42
HETATM   42  C2  UNL     1      -2.401  52.280 -26.753  1.00  0.00     0.037 C 
HETATM   43  C1  UNL     1      -1.320  51.889 -27.752  1.00  0.00     0.010 C 
ENDBRANCH  38  42
ENDBRANCH  31  34
ENDBRANCH   1  28
TORSDOF 8
ENDMDL
MODEL 7
REMARK minimizedAffinity -9.24925423
REMARK CNNscore 0.197436303
REMARK CNNaffinity 5.59903717
REMARK  8 active torsions:
REMARK  status: ('A' for Active; 'I' for Inactive)
REMARK    1  A    between atoms: C2_2  and  C3_3 
REMARK    2  A    between atoms: C5_7  and  C6_8 
REMARK    3  A    between atoms: C9_11  and  N2_12 
REMARK       I    between atoms: N3_15  and  C12_16 
REMARK    4  A    between atoms: C12_16  and  C13_18 
REMARK    5  A    between atoms: C13_18  and  N4_19 
REMARK    6  A    between atoms: C16_22  and  C17_23 
REMARK       I    between atoms: C17_23  and  N5_25 
REMARK    7  A    between atoms: N5_25  and  C18_26 
REMARK    8  A    between atoms: C21_29  and  O3_30 
ROOT
HETATM    1  N2  UNL     1      -5.926  47.686 -28.645  1.00  0.00    -0.378 N 
HETATM    2  C10 UNL     1      -7.238  47.036 -28.445  1.00  0.00     0.143 C 
HETATM    3  C11 UNL     1      -7.739  46.337 -29.721  1.00  0.00     0.145 C 
HETATM    4  N3  UNL     1      -7.664  47.242 -30.866  1.00  0.00    -0.348 N 
HETATM    5  C12 UNL     1      -8.730  47.716 -31.618  1.00  0.00     0.248 C 
HETATM    6  O1  UNL     1      -8.538  48.395 -32.631  1.00  0.00    -0.271 OA
HETATM    7  C25 UNL     1      -6.344  47.834 -31.103  1.00  0.00     0.145 C 
HETATM    8  C26 UNL     1      -5.313  47.555 -29.982  1.00  0.00     0.143 C 
ENDROOT
BRANCH   5   9
HETATM    9  C13 UNL     1     -10.152  47.378 -31.122  1.00  0.00     0.374 C 
BRANCH   9  10
HETATM   10  N4  UNL     1     -10.745  46.268 -31.892  1.00  0.00     0.098 N 
HETATM   11  C14 UNL     1     -11.047  45.093 -31.061  1.00  0.00     0.274 C 
HETATM   12  C15 UNL     1     -11.149  43.943 -32.061  1.00  0.00     0.046 C 
HETATM   13  C16 UNL     1     -10.548  44.483 -33.360  1.00  0.00     0.108 C 
HETATM   14  C24 UNL     1      -9.853  45.774 -32.948  1.00  0.00     0.287 C 
BRANCH  13  15
HETATM   15  C17 UNL     1     -11.628  44.722 -34.420  1.00  0.00     0.228 C 
HETATM   16  O2  UNL     1     -12.471  43.855 -34.640  1.00  0.00    -0.273 OA
HETATM   17  N5  UNL     1     -11.550  45.965 -35.019  1.00  0.00    -0.327 N 
HETATM   18  H20 UNL     1     -10.756  46.538 -34.726  1.00  0.00     0.169 HD
BRANCH  17  19
HETATM   19  C18 UNL     1     -12.411  46.527 -35.979  1.00  0.00     0.036 A 
HETATM   20  C19 UNL     1     -13.586  47.215 -35.660  1.00  0.00     0.032 A 
HETATM   21  C20 UNL     1     -14.387  47.760 -36.669  1.00  0.00     0.040 A 
HETATM   22  C21 UNL     1     -14.015  47.613 -37.998  1.00  0.00     0.087 A 
HETATM   23  C22 UNL     1     -12.844  46.930 -38.328  1.00  0.00     0.069 A 
HETATM   24 CL1  UNL     1     -12.379  46.748 -39.980  1.00  0.00    -0.081 Cl
HETATM   25  C23 UNL     1     -12.041  46.387 -37.323  1.00  0.00     0.056 A 
BRANCH  22  26
HETATM   26  O3  UNL     1     -14.827  48.174 -38.944  1.00  0.00    -0.359 OA
HETATM   27  H23 UNL     1     -14.432  47.978 -39.815  1.00  0.00     0.217 HD
ENDBRANCH  22  26
ENDBRANCH  17  19
ENDBRANCH  13  15
ENDBRANCH   9  10
ENDBRANCH   5   9
BRANCH   1  28
HETATM   28  C9  UNL     1      -5.187  48.047 -27.527  1.00  0.00     0.030 A 
HETATM   29  C8  UNL     1      -3.832  48.394 -27.636  1.00  0.00     0.030 A 
HETATM   30  C7  UNL     1      -3.053  48.736 -26.520  1.00  0.00     0.017 A 
HETATM   31  C6  UNL     1      -3.588  48.741 -25.224  1.00  0.00     0.008 A 
HETATM   32  C28 UNL     1      -4.944  48.400 -25.107  1.00  0.00     0.017 A 
HETATM   33  C27 UNL     1      -5.721  48.060 -26.231  1.00  0.00     0.030 A 
BRANCH  31  34
HETATM   34  C5  UNL     1      -2.760  49.079 -24.051  1.00  0.00     0.115 A 
HETATM   35  N1  UNL     1      -2.057  50.230 -24.076  1.00  0.00    -0.351 N 
HETATM   36  C4  UNL     1      -1.340  50.524 -22.973  1.00  0.00     0.098 A 
ATOM     37  H1  UNL     1      -2.069  50.847 -24.888  1.00  0.00     0.166 HD
HETATM   38  C3  UNL     1      -1.285  49.723 -21.853  1.00  0.00    -0.028 A 
HETATM   39  C29 UNL     1      -2.029  48.566 -21.937  1.00  0.00     0.098 A 
HETATM   40  N6  UNL     1      -2.770  48.224 -23.008  1.00  0.00    -0.351 N 
ATOM     41  H6  UNL     1      -3.312  47.361 -23.030  1.00  0.00     0.166 HD
BRANCH  38  42
HETATM   42  C2  UNL     1      -0.495  50.082 -20.633  1.00  0.00     0.037 C 
HETATM   43  C1  UNL     1       0.358  51.325 -20.847  1.00  0.00     0.010 C 
ENDBRANCH  38  42
ENDBRANCH  31  34
ENDBRANCH   1  28
TORSDOF 8
ENDMDL
MODEL 8
REMARK minimizedAffinity -8.58263397
REMARK CNNscore 0.188811168
REMARK CNNaffinity 6.27056932
REMARK  8 active torsions:
REMARK  status: ('A' for Active; 'I' for Inactive)
REMARK    1  A    between atoms: C2_2  and  C3_3 
REMARK    2  A    between atoms: C5_7  and  C6_8 
REMARK    3  A    between atoms: C9_11  and  N2_12 
REMARK       I    between atoms: N3_15  and  C12_16 
REMARK    4  A    between atoms: C12_16  and  C13_18 
REMARK    5  A    between atoms: C13_18  and  N4_19 
REMARK    6  A    between atoms: C16_22  and  C17_23 
REMARK       I    between atoms: C17_23  and  N5_25 
REMARK    7  A    between atoms: N5_25  and  C18_26 
REMARK    8  A    between atoms: C21_29  and  O3_30 
ROOT
HETATM    1  N2  UNL     1      -0.873  49.981 -17.673  1.00  0.00    -0.378 N 
HETATM    2  C10 UNL     1       0.319  49.892 -16.804  1.00  0.00     0.143 C 
HETATM    3  C11 UNL     1       0.107  48.923 -15.628  1.00  0.00     0.145 C 
HETATM    4  N3  UNL     1      -1.145  49.224 -14.934  1.00  0.00    -0.348 N 
HETATM    5  C12 UNL     1      -1.282  49.651 -13.621  1.00  0.00     0.248 C 
HETATM    6  O1  UNL     1      -2.398  49.773 -13.108  1.00  0.00    -0.271 OA
HETATM    7  C25 UNL     1      -2.336  49.246 -15.788  1.00  0.00     0.145 C 
HETATM    8  C26 UNL     1      -2.033  49.147 -17.303  1.00  0.00     0.143 C 
ENDROOT
BRANCH   5   9
HETATM    9  C13 UNL     1       0.011  49.983 -12.846  1.00  0.00     0.374 C 
BRANCH   9  10
HETATM   10  N4  UNL     1      -0.171  51.154 -11.966  1.00  0.00     0.098 N 
HETATM   11  C14 UNL     1      -1.565  51.333 -11.533  1.00  0.00     0.274 C 
HETATM   12  C15 UNL     1      -1.637  52.795 -11.099  1.00  0.00     0.046 C 
HETATM   13  C16 UNL     1      -0.364  53.443 -11.647  1.00  0.00     0.108 C 
HETATM   14  C24 UNL     1       0.194  52.416 -12.622  1.00  0.00     0.287 C 
BRANCH  13  15
HETATM   15  C17 UNL     1       0.625  53.771 -10.524  1.00  0.00     0.228 C 
HETATM   16  O2  UNL     1       0.345  53.490  -9.362  1.00  0.00    -0.273 OA
HETATM   17  N5  UNL     1       1.799  54.348 -10.973  1.00  0.00    -0.327 N 
HETATM   18  H20 UNL     1       1.834  54.535 -11.977  1.00  0.00     0.169 HD
BRANCH  17  19
HETATM   19  C18 UNL     1       2.932  54.715 -10.225  1.00  0.00     0.036 A 
HETATM   20  C19 UNL     1       4.103  53.953 -10.166  1.00  0.00     0.032 A 
HETATM   21  C20 UNL     1       5.197  54.388  -9.410  1.00  0.00     0.040 A 
HETATM   22  C21 UNL     1       5.118  55.585  -8.711  1.00  0.00     0.087 A 
HETATM   23  C22 UNL     1       3.956  56.354  -8.764  1.00  0.00     0.069 A 
HETATM   24 CL1  UNL     1       3.857  57.843  -7.898  1.00  0.00    -0.081 Cl
HETATM   25  C23 UNL     1       2.863  55.923  -9.519  1.00  0.00     0.056 A 
BRANCH  22  26
HETATM   26  O3  UNL     1       6.220  55.970  -7.998  1.00  0.00    -0.359 OA
HETATM   27  H23 UNL     1       6.000  56.818  -7.566  1.00  0.00     0.217 HD
ENDBRANCH  22  26
ENDBRANCH  17  19
ENDBRANCH  13  15
ENDBRANCH   9  10
ENDBRANCH   5   9
BRANCH   1  28
HETATM   28  C9  UNL     1      -0.729  50.522 -18.944  1.00  0.00     0.030 A 
HETATM   29  C8  UNL     1      -0.922  49.738 -20.091  1.00  0.00     0.030 A 
HETATM   30  C7  UNL     1      -0.756  50.251 -21.386  1.00  0.00     0.017 A 
HETATM   31  C6  UNL     1      -0.376  51.583 -21.607  1.00  0.00     0.008 A 
HETATM   32  C28 UNL     1      -0.185  52.374 -20.465  1.00  0.00     0.017 A 
HETATM   33  C27 UNL     1      -0.355  51.855 -19.168  1.00  0.00     0.030 A 
BRANCH  31  34
HETATM   34  C5  UNL     1      -0.180  52.111 -22.971  1.00  0.00     0.115 A 
HETATM   35  N1  UNL     1      -0.755  51.453 -23.998  1.00  0.00    -0.351 N 
HETATM   36  C4  UNL     1      -0.584  51.984 -25.226  1.00  0.00     0.098 A 
ATOM     37  H1  UNL     1      -1.291  50.598 -23.854  1.00  0.00     0.166 HD
HETATM   38  C3  UNL     1       0.135  53.133 -25.475  1.00  0.00    -0.028 A 
HETATM   39  C29 UNL     1       0.690  53.719 -24.358  1.00  0.00     0.098 A 
HETATM   40  N6  UNL     1       0.548  53.238 -23.109  1.00  0.00    -0.351 N 
ATOM     41  H6  UNL     1       0.970  53.703 -22.305  1.00  0.00     0.166 HD
BRANCH  38  42
HETATM   42  C2  UNL     1       0.293  53.712 -26.847  1.00  0.00     0.037 C 
HETATM   43  C1  UNL     1      -0.815  53.265 -27.791  1.00  0.00     0.010 C 
ENDBRANCH  38  42
ENDBRANCH  31  34
ENDBRANCH   1  28
TORSDOF 8
ENDMDL
MODEL 9
REMARK minimizedAffinity -8.5826149
REMARK CNNscore 0.188199788
REMARK CNNaffinity 5.17102385
REMARK  8 active torsions:
REMARK  status: ('A' for Active; 'I' for Inactive)
REMARK    1  A    between atoms: C2_2  and  C3_3 
REMARK    2  A    between atoms: C5_7  and  C6_8 
REMARK    3  A    between atoms: C9_11  and  N2_12 
REMARK       I    between atoms: N3_15  and  C12_16 
REMARK    4  A    between atoms: C12_16  and  C13_18 
REMARK    5  A    between atoms: C13_18  and  N4_19 
REMARK    6  A    between atoms: C16_22  and  C17_23 
REMARK       I    between atoms: C17_23  and  N5_25 
REMARK    7  A    between atoms: N5_25  and  C18_26 
REMARK    8  A    between atoms: C21_29  and  O3_30 
ROOT
HETATM    1  N2  UNL     1      -7.628  47.082 -26.124  1.00  0.00    -0.378 N 
HETATM    2  C10 UNL     1      -8.408  46.970 -24.874  1.00  0.00     0.143 C 
HETATM    3  C11 UNL     1      -9.517  45.908 -24.976  1.00  0.00     0.145 C 
HETATM    4  N3  UNL     1     -10.312  46.110 -26.187  1.00  0.00    -0.348 N 
HETATM    5  C12 UNL     1     -11.660  46.431 -26.248  1.00  0.00     0.248 C 
HETATM    6  O1  UNL     1     -12.253  46.473 -27.330  1.00  0.00    -0.271 OA
HETATM    7  C25 UNL     1      -9.541  46.154 -27.433  1.00  0.00     0.145 C 
HETATM    8  C26 UNL     1      -8.007  46.181 -27.230  1.00  0.00     0.143 C 
ENDROOT
BRANCH   5   9
HETATM    9  C13 UNL     1     -12.374  46.750 -24.917  1.00  0.00     0.374 C 
BRANCH   9  10
HETATM   10  N4  UNL     1     -13.714  46.136 -24.860  1.00  0.00     0.098 N 
HETATM   11  C14 UNL     1     -13.687  44.682 -25.085  1.00  0.00     0.274 C 
HETATM   12  C15 UNL     1     -15.119  44.340 -25.489  1.00  0.00     0.046 C 
HETATM   13  C16 UNL     1     -15.781  45.682 -25.808  1.00  0.00     0.108 C 
HETATM   14  C24 UNL     1     -14.623  46.668 -25.883  1.00  0.00     0.287 C 
BRANCH  13  15
HETATM   15  C17 UNL     1     -16.803  46.071 -24.735  1.00  0.00     0.228 C 
HETATM   16  O2  UNL     1     -17.579  47.002 -24.939  1.00  0.00    -0.273 OA
HETATM   17  N5  UNL     1     -16.758  45.268 -23.611  1.00  0.00    -0.327 N 
HETATM   18  H20 UNL     1     -16.018  44.563 -23.612  1.00  0.00     0.169 HD
BRANCH  17  19
HETATM   19  C18 UNL     1     -17.586  45.309 -22.475  1.00  0.00     0.036 A 
HETATM   20  C19 UNL     1     -18.671  44.450 -22.274  1.00  0.00     0.032 A 
HETATM   21  C20 UNL     1     -19.444  44.541 -21.111  1.00  0.00     0.040 A 
HETATM   22  C21 UNL     1     -19.133  45.494 -20.151  1.00  0.00     0.087 A 
HETATM   23  C22 UNL     1     -18.053  46.356 -20.341  1.00  0.00     0.069 A 
HETATM   24 CL1  UNL     1     -17.664  47.540 -19.147  1.00  0.00    -0.081 Cl
HETATM   25  C23 UNL     1     -17.278  46.266 -21.499  1.00  0.00     0.056 A 
BRANCH  22  26
HETATM   26  O3  UNL     1     -19.913  45.533 -19.028  1.00  0.00    -0.359 OA
HETATM   27  H23 UNL     1     -19.570  46.253 -18.465  1.00  0.00     0.217 HD
ENDBRANCH  22  26
ENDBRANCH  17  19
ENDBRANCH  13  15
ENDBRANCH   9  10
ENDBRANCH   5   9
BRANCH   1  28
HETATM   28  C9  UNL     1      -6.397  47.723 -26.083  1.00  0.00     0.030 A 
HETATM   29  C8  UNL     1      -5.939  48.336 -24.907  1.00  0.00     0.030 A 
HETATM   30  C7  UNL     1      -4.713  49.015 -24.844  1.00  0.00     0.017 A 
HETATM   31  C6  UNL     1      -3.875  49.126 -25.964  1.00  0.00     0.008 A 
HETATM   32  C28 UNL     1      -4.325  48.511 -27.142  1.00  0.00     0.017 A 
HETATM   33  C27 UNL     1      -5.555  47.830 -27.199  1.00  0.00     0.030 A 
BRANCH  31  34
HETATM   34  C5  UNL     1      -2.597  49.861 -25.899  1.00  0.00     0.115 A 
HETATM   35  N1  UNL     1      -2.007  50.216 -27.058  1.00  0.00    -0.351 N 
HETATM   36  C4  UNL     1      -0.860  50.918 -26.960  1.00  0.00     0.098 A 
ATOM     37  H1  UNL     1      -2.408  49.968 -27.962  1.00  0.00     0.166 HD
HETATM   38  C3  UNL     1      -0.273  51.273 -25.765  1.00  0.00    -0.028 A 
HETATM   39  C29 UNL     1      -0.951  50.850 -24.642  1.00  0.00     0.098 A 
HETATM   40  N6  UNL     1      -2.103  50.154 -24.679  1.00  0.00    -0.351 N 
ATOM     41  H6  UNL     1      -2.579  49.862 -23.825  1.00  0.00     0.166 HD
BRANCH  38  42
HETATM   42  C2  UNL     1       0.992  52.069 -25.684  1.00  0.00     0.037 C 
HETATM   43  C1  UNL     1       2.159  51.364 -26.363  1.00  0.00     0.010 C 
ENDBRANCH  38  42
ENDBRANCH  31  34
ENDBRANCH   1  28
TORSDOF 8
ENDMDL
