MODEL 1
REMARK minimizedAffinity -9.69790554
REMARK  6 active torsions:
REMARK  status: ('A' for Active; 'I' for Inactive)
REMARK    1  A    between atoms: C4_4  and  C5_5 
REMARK    2  A    between atoms: C8_11  and  N3_12 
REMARK       I    between atoms: N3_12  and  C9_13 
REMARK       I    between atoms: C9_13  and  N4_15 
REMARK    3  A    between atoms: N4_15  and  C10_16 
REMARK    4  A    between atoms: C10_16  and  C11_17 
REMARK    5  A    between atoms: N5_20  and  C14_21 
REMARK    6  A    between atoms: C14_21  and  C15_22 
ROOT
HETATM    1  C5  UNL     1       0.670  53.655 -23.927  1.00  0.00     0.072 A 
HETATM    2  N1  UNL     1       1.380  54.792 -24.004  1.00  0.00    -0.299 N 
ATOM      3  H1  UNL     1       1.589  55.342 -24.837  1.00  0.00     0.187 HD
HETATM    4  N2  UNL     1       1.756  55.045 -22.740  1.00  0.00    -0.299 N 
HETATM    5  C6  UNL     1       1.307  54.129 -21.833  1.00  0.00     0.065 A 
HETATM    6  C7  UNL     1       1.464  54.037 -20.451  1.00  0.00     0.080 A 
HETATM    7  C8  UNL     1       0.822  52.960 -19.855  1.00  0.00     0.111 A 
HETATM    8  N6  UNL     1       0.101  52.044 -20.541  1.00  0.00    -0.351 N 
ATOM      9  H6  UNL     1      -0.336  51.265 -20.048  1.00  0.00     0.166 HD
HETATM   10  C22 UNL     1      -0.040  52.161 -21.887  1.00  0.00     0.105 A 
HETATM   11  C23 UNL     1       0.577  53.207 -22.573  1.00  0.00     0.036 A 
HETATM   12  H5  UNL     1       2.301  55.878 -22.558  1.00  0.00     0.187 HD
ENDROOT
BRANCH   7  13
HETATM   13  N3  UNL     1       0.875  52.697 -18.485  1.00  0.00    -0.295 N 
HETATM   14  C9  UNL     1       0.336  51.637 -17.807  1.00  0.00     0.321 C 
HETATM   15  O1  UNL     1      -0.247  50.680 -18.296  1.00  0.00    -0.247 OA
HETATM   16  N4  UNL     1       0.540  51.771 -16.445  1.00  0.00    -0.342 N 
HETATM   17  H8  UNL     1       0.513  52.731 -16.131  1.00  0.00     0.164 HD
HETATM   18  H7  UNL     1       1.564  53.260 -18.009  1.00  0.00     0.172 HD
BRANCH  16  19
HETATM   19  C10 UNL     1      -0.024  50.789 -15.534  1.00  0.00     0.130 C 
BRANCH  19  20
HETATM   20  C11 UNL     1       0.418  51.043 -14.101  1.00  0.00     0.033 C 
HETATM   21  C12 UNL     1       1.877  51.453 -13.977  1.00  0.00     0.038 C 
HETATM   22  C13 UNL     1       1.916  52.020 -12.568  1.00  0.00     0.273 C 
HETATM   23  N5  UNL     1       0.640  52.737 -12.424  1.00  0.00     0.093 N 
HETATM   24  C21 UNL     1      -0.302  52.205 -13.425  1.00  0.00     0.279 C 
BRANCH  23  25
HETATM   25  C14 UNL     1       0.096  52.675 -11.064  1.00  0.00     0.311 C 
BRANCH  25  26
HETATM   26  C15 UNL     1      -1.413  52.794 -11.008  1.00  0.00    -0.030 A 
HETATM   27  C16 UNL     1      -2.225  51.688 -11.289  1.00  0.00     0.009 A 
HETATM   28  C17 UNL     1      -3.616  51.788 -11.217  1.00  0.00     0.001 A 
HETATM   29  C18 UNL     1      -4.209  52.996 -10.866  1.00  0.00     0.000 A 
HETATM   30  C19 UNL     1      -3.413  54.108 -10.592  1.00  0.00     0.001 A 
HETATM   31  C20 UNL     1      -2.022  54.008 -10.662  1.00  0.00     0.009 A 
ENDBRANCH  25  26
ENDBRANCH  23  25
ENDBRANCH  19  20
ENDBRANCH  16  19
ENDBRANCH   7  13
BRANCH   1  32
HETATM   32  C4  UNL     1       0.099  53.053 -25.130  1.00  0.00    -0.004 A 
HETATM   33  C3  UNL     1      -0.549  51.817 -25.087  1.00  0.00     0.038 A 
HETATM   34  C2  UNL     1      -1.075  51.288 -26.264  1.00  0.00     0.005 A 
HETATM   35  C1  UNL     1      -1.771  49.961 -26.244  1.00  0.00     0.068 C 
HETATM   36  N7  UNL     1      -0.987  51.926 -27.453  1.00  0.00    -0.369 N 
HETATM   37  C25 UNL     1      -0.348  53.112 -27.475  1.00  0.00     0.089 A 
ATOM     38  H7  UNL     1      -1.389  51.524 -28.300  1.00  0.00     0.165 HD
HETATM   39  C24 UNL     1       0.209  53.706 -26.358  1.00  0.00     0.031 A 
ENDBRANCH   1  32
TORSDOF 6
ENDMDL
MODEL 2
REMARK minimizedAffinity -9.61787415
REMARK  6 active torsions:
REMARK  status: ('A' for Active; 'I' for Inactive)
REMARK    1  A    between atoms: C4_4  and  C5_5 
REMARK    2  A    between atoms: C8_11  and  N3_12 
REMARK       I    between atoms: N3_12  and  C9_13 
REMARK       I    between atoms: C9_13  and  N4_15 
REMARK    3  A    between atoms: N4_15  and  C10_16 
REMARK    4  A    between atoms: C10_16  and  C11_17 
REMARK    5  A    between atoms: N5_20  and  C14_21 
REMARK    6  A    between atoms: C14_21  and  C15_22 
ROOT
HETATM    1  C5  UNL     1       0.674  53.185 -23.657  1.00  0.00     0.072 A 
HETATM    2  N1  UNL     1       1.227  54.383 -23.906  1.00  0.00    -0.299 N 
ATOM      3  H1  UNL     1       1.340  54.841 -24.811  1.00  0.00     0.187 HD
HETATM    4  N2  UNL     1       1.597  54.845 -22.702  1.00  0.00    -0.299 N 
HETATM    5  C6  UNL     1       1.294  54.006 -21.668  1.00  0.00     0.065 A 
HETATM    6  C7  UNL     1       1.496  54.116 -20.293  1.00  0.00     0.080 A 
HETATM    7  C8  UNL     1       1.016  53.054 -19.540  1.00  0.00     0.111 A 
HETATM    8  N6  UNL     1       0.405  51.972 -20.074  1.00  0.00    -0.351 N 
ATOM      9  H6  UNL     1       0.086  51.215 -19.468  1.00  0.00     0.166 HD
HETATM   10  C22 UNL     1       0.217  51.892 -21.416  1.00  0.00     0.105 A 
HETATM   11  C23 UNL     1       0.674  52.910 -22.254  1.00  0.00     0.036 A 
HETATM   12  H5  UNL     1       2.032  55.757 -22.650  1.00  0.00     0.187 HD
ENDROOT
BRANCH   7  13
HETATM   13  N3  UNL     1       1.137  52.982 -18.151  1.00  0.00    -0.295 N 
HETATM   14  C9  UNL     1       0.749  51.964 -17.321  1.00  0.00     0.321 C 
HETATM   15  O1  UNL     1       0.274  50.889 -17.659  1.00  0.00    -0.247 OA
HETATM   16  N4  UNL     1       0.972  52.299 -15.997  1.00  0.00    -0.342 N 
HETATM   17  H8  UNL     1       0.835  53.283 -15.807  1.00  0.00     0.164 HD
HETATM   18  H7  UNL     1       1.764  53.680 -17.780  1.00  0.00     0.172 HD
BRANCH  16  19
HETATM   19  C10 UNL     1       0.556  51.386 -14.946  1.00  0.00     0.130 C 
BRANCH  19  20
HETATM   20  C11 UNL     1       0.087  52.139 -13.710  1.00  0.00     0.033 C 
HETATM   21  C12 UNL     1      -0.813  51.318 -12.801  1.00  0.00     0.038 C 
HETATM   22  C13 UNL     1      -0.777  52.133 -11.519  1.00  0.00     0.273 C 
HETATM   23  N5  UNL     1       0.613  52.603 -11.421  1.00  0.00     0.093 N 
HETATM   24  C21 UNL     1       1.214  52.546 -12.765  1.00  0.00     0.279 C 
BRANCH  23  25
HETATM   25  C14 UNL     1       0.728  53.935 -10.820  1.00  0.00     0.311 C 
BRANCH  25  26
HETATM   26  C15 UNL     1       2.158  54.382 -10.603  1.00  0.00    -0.030 A 
HETATM   27  C16 UNL     1       2.552  55.687 -10.924  1.00  0.00     0.009 A 
HETATM   28  C17 UNL     1       3.865  56.110 -10.704  1.00  0.00     0.001 A 
HETATM   29  C18 UNL     1       4.797  55.231 -10.164  1.00  0.00     0.000 A 
HETATM   30  C19 UNL     1       4.421  53.926  -9.848  1.00  0.00     0.001 A 
HETATM   31  C20 UNL     1       3.109  53.503 -10.065  1.00  0.00     0.009 A 
ENDBRANCH  25  26
ENDBRANCH  23  25
ENDBRANCH  19  20
ENDBRANCH  16  19
ENDBRANCH   7  13
BRANCH   1  32
HETATM   32  C4  UNL     1       0.157  52.363 -24.750  1.00  0.00    -0.004 A 
HETATM   33  C3  UNL     1       0.692  52.445 -26.037  1.00  0.00     0.038 A 
HETATM   34  C2  UNL     1       0.162  51.639 -27.041  1.00  0.00     0.005 A 
HETATM   35  C1  UNL     1       0.715  51.712 -28.432  1.00  0.00     0.068 C 
HETATM   36  N7  UNL     1      -0.853  50.772 -26.822  1.00  0.00    -0.369 N 
HETATM   37  C25 UNL     1      -1.363  50.716 -25.576  1.00  0.00     0.089 A 
ATOM     38  H7  UNL     1      -1.218  50.184 -27.571  1.00  0.00     0.165 HD
HETATM   39  C24 UNL     1      -0.903  51.485 -24.523  1.00  0.00     0.031 A 
ENDBRANCH   1  32
TORSDOF 6
ENDMDL
MODEL 3
REMARK minimizedAffinity -9.4472847
REMARK  6 active torsions:
REMARK  status: ('A' for Active; 'I' for Inactive)
REMARK    1  A    between atoms: C4_4  and  C5_5 
REMARK    2  A    between atoms: C8_11  and  N3_12 
REMARK       I    between atoms: N3_12  and  C9_13 
REMARK       I    between atoms: C9_13  and  N4_15 
REMARK    3  A    between atoms: N4_15  and  C10_16 
REMARK    4  A    between atoms: C10_16  and  C11_17 
REMARK    5  A    between atoms: N5_20  and  C14_21 
REMARK    6  A    between atoms: C14_21  and  C15_22 
ROOT
HETATM    1  C5  UNL     1       0.673  53.227 -23.700  1.00  0.00     0.072 A 
HETATM    2  N1  UNL     1       1.227  54.425 -23.944  1.00  0.00    -0.299 N 
ATOM      3  H1  UNL     1       1.355  54.881 -24.849  1.00  0.00     0.187 HD
HETATM    4  N2  UNL     1       1.575  54.892 -22.736  1.00  0.00    -0.299 N 
HETATM    5  C6  UNL     1       1.257  54.056 -21.704  1.00  0.00     0.065 A 
HETATM    6  C7  UNL     1       1.435  54.172 -20.326  1.00  0.00     0.080 A 
HETATM    7  C8  UNL     1       0.944  53.111 -19.577  1.00  0.00     0.111 A 
HETATM    8  N6  UNL     1       0.346  52.025 -20.118  1.00  0.00    -0.351 N 
ATOM      9  H6  UNL     1       0.018  51.270 -19.516  1.00  0.00     0.166 HD
HETATM   10  C22 UNL     1       0.180  51.941 -21.464  1.00  0.00     0.105 A 
HETATM   11  C23 UNL     1       0.649  52.957 -22.297  1.00  0.00     0.036 A 
HETATM   12  H5  UNL     1       2.007  55.806 -22.679  1.00  0.00     0.187 HD
ENDROOT
BRANCH   7  13
HETATM   13  N3  UNL     1       1.042  53.044 -18.187  1.00  0.00    -0.295 N 
HETATM   14  C9  UNL     1       0.972  51.933 -17.387  1.00  0.00     0.321 C 
HETATM   15  O1  UNL     1       0.872  50.773 -17.760  1.00  0.00    -0.247 OA
HETATM   16  N4  UNL     1       1.038  52.287 -16.051  1.00  0.00    -0.342 N 
HETATM   17  H8  UNL     1       0.592  53.171 -15.851  1.00  0.00     0.164 HD
HETATM   18  H7  UNL     1       1.404  53.894 -17.782  1.00  0.00     0.172 HD
BRANCH  16  19
HETATM   19  C10 UNL     1       0.902  51.261 -15.030  1.00  0.00     0.130 C 
BRANCH  19  20
HETATM   20  C11 UNL     1      -0.560  50.962 -14.735  1.00  0.00     0.033 C 
HETATM   21  C12 UNL     1      -0.929  49.498 -14.912  1.00  0.00     0.038 C 
HETATM   22  C13 UNL     1      -2.259  49.430 -14.180  1.00  0.00     0.273 C 
HETATM   23  N5  UNL     1      -2.081  50.301 -13.008  1.00  0.00     0.093 N 
HETATM   24  C21 UNL     1      -0.968  51.226 -13.289  1.00  0.00     0.279 C 
BRANCH  23  25
HETATM   25  C14 UNL     1      -3.306  51.009 -12.627  1.00  0.00     0.311 C 
BRANCH  25  26
HETATM   26  C15 UNL     1      -3.062  52.202 -11.728  1.00  0.00    -0.030 A 
HETATM   27  C16 UNL     1      -1.757  52.634 -11.457  1.00  0.00     0.009 A 
HETATM   28  C17 UNL     1      -1.528  53.748 -10.646  1.00  0.00     0.001 A 
HETATM   29  C18 UNL     1      -2.601  54.439 -10.096  1.00  0.00     0.000 A 
HETATM   30  C19 UNL     1      -3.906  54.016 -10.350  1.00  0.00     0.001 A 
HETATM   31  C20 UNL     1      -4.136  52.904 -11.162  1.00  0.00     0.009 A 
ENDBRANCH  25  26
ENDBRANCH  23  25
ENDBRANCH  19  20
ENDBRANCH  16  19
ENDBRANCH   7  13
BRANCH   1  32
HETATM   32  C4  UNL     1       0.177  52.399 -24.799  1.00  0.00    -0.004 A 
HETATM   33  C3  UNL     1       0.689  52.525 -26.092  1.00  0.00     0.038 A 
HETATM   34  C2  UNL     1       0.180  51.712 -27.102  1.00  0.00     0.005 A 
HETATM   35  C1  UNL     1       0.710  51.832 -28.499  1.00  0.00     0.068 C 
HETATM   36  N7  UNL     1      -0.791  50.798 -26.883  1.00  0.00    -0.369 N 
HETATM   37  C25 UNL     1      -1.280  50.700 -25.631  1.00  0.00     0.089 A 
ATOM     38  H7  UNL     1      -1.141  50.206 -27.636  1.00  0.00     0.165 HD
HETATM   39  C24 UNL     1      -0.839  51.472 -24.572  1.00  0.00     0.031 A 
ENDBRANCH   1  32
TORSDOF 6
ENDMDL
MODEL 4
REMARK minimizedAffinity -9.30779552
REMARK  6 active torsions:
REMARK  status: ('A' for Active; 'I' for Inactive)
REMARK    1  A    between atoms: C4_4  and  C5_5 
REMARK    2  A    between atoms: C8_11  and  N3_12 
REMARK       I    between atoms: N3_12  and  C9_13 
REMARK       I    between atoms: C9_13  and  N4_15 
REMARK    3  A    between atoms: N4_15  and  C10_16 
REMARK    4  A    between atoms: C10_16  and  C11_17 
REMARK    5  A    between atoms: N5_20  and  C14_21 
REMARK    6  A    between atoms: C14_21  and  C15_22 
ROOT
HETATM    1  C5  UNL     1      -0.211  52.021 -23.271  1.00  0.00     0.072 A 
HETATM    2  N1  UNL     1      -0.977  50.926 -23.135  1.00  0.00    -0.299 N 
ATOM      3  H1  UNL     1      -1.434  50.390 -23.872  1.00  0.00     0.187 HD
HETATM    4  N2  UNL     1      -1.007  50.694 -21.813  1.00  0.00    -0.299 N 
HETATM    5  C6  UNL     1      -0.278  51.582 -21.076  1.00  0.00     0.065 A 
HETATM    6  C7  UNL     1      -0.047  51.682 -19.705  1.00  0.00     0.080 A 
HETATM    7  C8  UNL     1       0.791  52.720 -19.322  1.00  0.00     0.111 A 
HETATM    8  N6  UNL     1       1.347  53.595 -20.192  1.00  0.00    -0.351 N 
ATOM      9  H6  UNL     1       1.944  54.346 -19.848  1.00  0.00     0.166 HD
HETATM   10  C22 UNL     1       1.109  53.471 -21.524  1.00  0.00     0.105 A 
HETATM   11  C23 UNL     1       0.272  52.462 -22.000  1.00  0.00     0.036 A 
HETATM   12  H5  UNL     1      -1.527  49.893 -21.477  1.00  0.00     0.187 HD
ENDROOT
BRANCH   7  13
HETATM   13  N3  UNL     1       1.128  52.984 -17.994  1.00  0.00    -0.295 N 
HETATM   14  C9  UNL     1       1.095  52.125 -16.927  1.00  0.00     0.321 C 
HETATM   15  O1  UNL     1       0.818  50.935 -16.959  1.00  0.00    -0.247 OA
HETATM   16  N4  UNL     1       1.432  52.784 -15.757  1.00  0.00    -0.342 N 
HETATM   17  H8  UNL     1       1.117  53.743 -15.736  1.00  0.00     0.164 HD
HETATM   18  H7  UNL     1       1.638  53.848 -17.888  1.00  0.00     0.172 HD
BRANCH  16  19
HETATM   19  C10 UNL     1       1.382  52.070 -14.492  1.00  0.00     0.130 C 
BRANCH  19  20
HETATM   20  C11 UNL     1       0.010  52.184 -13.845  1.00  0.00     0.033 C 
HETATM   21  C12 UNL     1      -0.734  50.861 -13.760  1.00  0.00     0.038 C 
HETATM   22  C13 UNL     1      -1.819  51.187 -12.747  1.00  0.00     0.273 C 
HETATM   23  N5  UNL     1      -1.153  52.046 -11.757  1.00  0.00     0.093 N 
HETATM   24  C21 UNL     1       0.046  52.628 -12.386  1.00  0.00     0.279 C 
BRANCH  23  25
HETATM   25  C14 UNL     1      -2.038  53.073 -11.199  1.00  0.00     0.311 C 
BRANCH  25  26
HETATM   26  C15 UNL     1      -1.460  53.780  -9.991  1.00  0.00    -0.030 A 
HETATM   27  C16 UNL     1      -1.298  53.099  -8.778  1.00  0.00     0.009 A 
HETATM   28  C17 UNL     1      -0.744  53.742  -7.668  1.00  0.00     0.001 A 
HETATM   29  C18 UNL     1      -0.351  55.072  -7.760  1.00  0.00     0.000 A 
HETATM   30  C19 UNL     1      -0.514  55.766  -8.960  1.00  0.00     0.001 A 
HETATM   31  C20 UNL     1      -1.066  55.123 -10.070  1.00  0.00     0.009 A 
ENDBRANCH  25  26
ENDBRANCH  23  25
ENDBRANCH  19  20
ENDBRANCH  16  19
ENDBRANCH   7  13
BRANCH   1  32
HETATM   32  C4  UNL     1       0.043  52.590 -24.593  1.00  0.00    -0.004 A 
HETATM   33  C3  UNL     1       0.400  51.784 -25.676  1.00  0.00     0.038 A 
HETATM   34  C2  UNL     1       0.631  52.379 -26.914  1.00  0.00     0.005 A 
HETATM   35  C1  UNL     1       1.021  51.536 -28.090  1.00  0.00     0.068 C 
HETATM   36  N7  UNL     1       0.521  53.712 -27.115  1.00  0.00    -0.369 N 
HETATM   37  C25 UNL     1       0.186  54.473 -26.055  1.00  0.00     0.089 A 
ATOM     38  H7  UNL     1       0.684  54.124 -28.033  1.00  0.00     0.165 HD
HETATM   39  C24 UNL     1      -0.054  53.968 -24.791  1.00  0.00     0.031 A 
ENDBRANCH   1  32
TORSDOF 6
ENDMDL
MODEL 5
REMARK minimizedAffinity -9.1648159
REMARK  6 active torsions:
REMARK  status: ('A' for Active; 'I' for Inactive)
REMARK    1  A    between atoms: C4_4  and  C5_5 
REMARK    2  A    between atoms: C8_11  and  N3_12 
REMARK       I    between atoms: N3_12  and  C9_13 
REMARK       I    between atoms: C9_13  and  N4_15 
REMARK    3  A    between atoms: N4_15  and  C10_16 
REMARK    4  A    between atoms: C10_16  and  C11_17 
REMARK    5  A    between atoms: N5_20  and  C14_21 
REMARK    6  A    between atoms: C14_21  and  C15_22 
ROOT
HETATM    1  C5  UNL     1       0.263  52.917 -23.730  1.00  0.00     0.072 A 
HETATM    2  N1  UNL     1       1.051  53.615 -24.563  1.00  0.00    -0.299 N 
ATOM      3  H1  UNL     1       1.861  54.186 -24.322  1.00  0.00     0.187 HD
HETATM    4  N2  UNL     1       0.538  53.394 -25.783  1.00  0.00    -0.299 N 
HETATM    5  C6  UNL     1      -0.547  52.565 -25.788  1.00  0.00     0.065 A 
HETATM    6  C7  UNL     1      -1.346  52.088 -26.825  1.00  0.00     0.080 A 
HETATM    7  C8  UNL     1      -2.359  51.221 -26.438  1.00  0.00     0.111 A 
HETATM    8  N6  UNL     1      -2.587  50.859 -25.155  1.00  0.00    -0.351 N 
ATOM      9  H6  UNL     1      -3.357  50.229 -24.931  1.00  0.00     0.166 HD
HETATM   10  C22 UNL     1      -1.789  51.335 -24.164  1.00  0.00     0.105 A 
HETATM   11  C23 UNL     1      -0.750  52.219 -24.458  1.00  0.00     0.036 A 
HETATM   12  H5  UNL     1       0.991  53.822 -26.580  1.00  0.00     0.187 HD
ENDROOT
BRANCH   7  13
HETATM   13  N3  UNL     1      -3.265  50.652 -27.334  1.00  0.00    -0.295 N 
HETATM   14  C9  UNL     1      -3.712  49.357 -27.376  1.00  0.00     0.321 C 
HETATM   15  O1  UNL     1      -3.439  48.467 -26.583  1.00  0.00    -0.247 OA
HETATM   16  N4  UNL     1      -4.551  49.163 -28.459  1.00  0.00    -0.342 N 
HETATM   17  H8  UNL     1      -4.290  49.710 -29.268  1.00  0.00     0.164 HD
HETATM   18  H7  UNL     1      -3.776  51.344 -27.861  1.00  0.00     0.172 HD
BRANCH  16  19
HETATM   19  C10 UNL     1      -5.074  47.835 -28.733  1.00  0.00     0.130 C 
BRANCH  19  20
HETATM   20  C11 UNL     1      -6.350  47.901 -29.559  1.00  0.00     0.033 C 
HETATM   21  C12 UNL     1      -6.517  46.730 -30.514  1.00  0.00     0.038 C 
HETATM   22  C13 UNL     1      -7.990  46.836 -30.871  1.00  0.00     0.273 C 
HETATM   23  N5  UNL     1      -8.647  47.227 -29.615  1.00  0.00     0.093 N 
HETATM   24  C21 UNL     1      -7.630  47.828 -28.733  1.00  0.00     0.279 C 
BRANCH  23  25
HETATM   25  C14 UNL     1      -9.796  48.114 -29.819  1.00  0.00     0.311 C 
BRANCH  25  26
HETATM   26  C15 UNL     1     -11.041  47.674 -29.078  1.00  0.00    -0.030 A 
HETATM   27  C16 UNL     1     -11.218  48.002 -27.727  1.00  0.00     0.009 A 
HETATM   28  C17 UNL     1     -12.375  47.617 -27.046  1.00  0.00     0.001 A 
HETATM   29  C18 UNL     1     -13.364  46.898 -27.708  1.00  0.00     0.000 A 
HETATM   30  C19 UNL     1     -13.197  46.557 -29.050  1.00  0.00     0.001 A 
HETATM   31  C20 UNL     1     -12.042  46.943 -29.732  1.00  0.00     0.009 A 
ENDBRANCH  25  26
ENDBRANCH  23  25
ENDBRANCH  19  20
ENDBRANCH  16  19
ENDBRANCH   7  13
BRANCH   1  32
HETATM   32  C4  UNL     1       0.510  52.927 -22.289  1.00  0.00    -0.004 A 
HETATM   33  C3  UNL     1      -0.020  51.942 -21.453  1.00  0.00     0.038 A 
HETATM   34  C2  UNL     1       0.246  52.000 -20.087  1.00  0.00     0.005 A 
HETATM   35  C1  UNL     1      -0.315  50.957 -19.169  1.00  0.00     0.068 C 
HETATM   36  N7  UNL     1       1.003  52.973 -19.532  1.00  0.00    -0.369 N 
HETATM   37  C25 UNL     1       1.495  53.921 -20.354  1.00  0.00     0.089 A 
ATOM     38  H7  UNL     1       1.193  52.989 -18.530  1.00  0.00     0.165 HD
HETATM   39  C24 UNL     1       1.275  53.945 -21.718  1.00  0.00     0.031 A 
ENDBRANCH   1  32
TORSDOF 6
ENDMDL
MODEL 6
REMARK minimizedAffinity -9.10206127
REMARK  6 active torsions:
REMARK  status: ('A' for Active; 'I' for Inactive)
REMARK    1  A    between atoms: C4_4  and  C5_5 
REMARK    2  A    between atoms: C8_11  and  N3_12 
REMARK       I    between atoms: N3_12  and  C9_13 
REMARK       I    between atoms: C9_13  and  N4_15 
REMARK    3  A    between atoms: N4_15  and  C10_16 
REMARK    4  A    between atoms: C10_16  and  C11_17 
REMARK    5  A    between atoms: N5_20  and  C14_21 
REMARK    6  A    between atoms: C14_21  and  C15_22 
ROOT
HETATM    1  C5  UNL     1      -0.514  51.307 -21.072  1.00  0.00     0.072 A 
HETATM    2  N1  UNL     1      -0.904  50.031 -20.924  1.00  0.00    -0.299 N 
ATOM      3  H1  UNL     1      -1.273  49.405 -21.640  1.00  0.00     0.187 HD
HETATM    4  N2  UNL     1      -0.700  49.761 -19.625  1.00  0.00    -0.299 N 
HETATM    5  C6  UNL     1      -0.175  50.804 -18.917  1.00  0.00     0.065 A 
HETATM    6  C7  UNL     1       0.186  50.927 -17.576  1.00  0.00     0.080 A 
HETATM    7  C8  UNL     1       0.725  52.156 -17.221  1.00  0.00     0.111 A 
HETATM    8  N6  UNL     1       0.888  53.182 -18.088  1.00  0.00    -0.351 N 
ATOM      9  H6  UNL     1       1.277  54.067 -17.764  1.00  0.00     0.166 HD
HETATM   10  C22 UNL     1       0.533  53.033 -19.391  1.00  0.00     0.105 A 
HETATM   11  C23 UNL     1      -0.026  51.834 -19.837  1.00  0.00     0.036 A 
HETATM   12  H5  UNL     1      -0.917  48.833 -19.287  1.00  0.00     0.187 HD
ENDROOT
BRANCH   7  13
HETATM   13  N3  UNL     1       1.133  52.469 -15.924  1.00  0.00    -0.295 N 
HETATM   14  C9  UNL     1       1.192  51.641 -14.834  1.00  0.00     0.321 C 
HETATM   15  O1  UNL     1       0.952  50.442 -14.816  1.00  0.00    -0.247 OA
HETATM   16  N4  UNL     1       1.579  52.343 -13.706  1.00  0.00    -0.342 N 
HETATM   17  H8  UNL     1       1.236  53.294 -13.691  1.00  0.00     0.164 HD
HETATM   18  H7  UNL     1       1.621  53.351 -15.873  1.00  0.00     0.172 HD
BRANCH  16  19
HETATM   19  C10 UNL     1       1.628  51.666 -12.421  1.00  0.00     0.130 C 
BRANCH  19  20
HETATM   20  C11 UNL     1       1.165  52.578 -11.295  1.00  0.00     0.033 C 
HETATM   21  C12 UNL     1       2.200  53.612 -10.884  1.00  0.00     0.038 C 
HETATM   22  C13 UNL     1       1.352  54.592 -10.089  1.00  0.00     0.273 C 
HETATM   23  N5  UNL     1       0.081  54.660 -10.825  1.00  0.00     0.093 N 
HETATM   24  C21 UNL     1      -0.036  53.448 -11.655  1.00  0.00     0.279 C 
BRANCH  23  25
HETATM   25  C14 UNL     1      -1.080  54.844  -9.949  1.00  0.00     0.311 C 
BRANCH  25  26
HETATM   26  C15 UNL     1      -2.103  53.733 -10.056  1.00  0.00    -0.030 A 
HETATM   27  C16 UNL     1      -3.217  53.870 -10.895  1.00  0.00     0.009 A 
HETATM   28  C17 UNL     1      -4.151  52.838 -11.014  1.00  0.00     0.001 A 
HETATM   29  C18 UNL     1      -3.981  51.661 -10.295  1.00  0.00     0.000 A 
HETATM   30  C19 UNL     1      -2.881  51.513  -9.449  1.00  0.00     0.001 A 
HETATM   31  C20 UNL     1      -1.946  52.543  -9.331  1.00  0.00     0.009 A 
ENDBRANCH  25  26
ENDBRANCH  23  25
ENDBRANCH  19  20
ENDBRANCH  16  19
ENDBRANCH   7  13
BRANCH   1  32
HETATM   32  C4  UNL     1      -0.605  51.966 -22.374  1.00  0.00    -0.004 A 
HETATM   33  C3  UNL     1      -1.757  51.872 -23.157  1.00  0.00     0.038 A 
HETATM   34  C2  UNL     1      -1.791  52.519 -24.391  1.00  0.00     0.005 A 
HETATM   35  C1  UNL     1      -3.014  52.429 -25.252  1.00  0.00     0.068 C 
HETATM   36  N7  UNL     1      -0.750  53.240 -24.864  1.00  0.00    -0.369 N 
HETATM   37  C25 UNL     1       0.356  53.310 -24.099  1.00  0.00     0.089 A 
ATOM     38  H7  UNL     1      -0.801  53.715 -25.766  1.00  0.00     0.165 HD
HETATM   39  C24 UNL     1       0.478  52.693 -22.867  1.00  0.00     0.031 A 
ENDBRANCH   1  32
TORSDOF 6
ENDMDL
MODEL 7
REMARK minimizedAffinity -9.04817867
REMARK  6 active torsions:
REMARK  status: ('A' for Active; 'I' for Inactive)
REMARK    1  A    between atoms: C4_4  and  C5_5 
REMARK    2  A    between atoms: C8_11  and  N3_12 
REMARK       I    between atoms: N3_12  and  C9_13 
REMARK       I    between atoms: C9_13  and  N4_15 
REMARK    3  A    between atoms: N4_15  and  C10_16 
REMARK    4  A    between atoms: C10_16  and  C11_17 
REMARK    5  A    between atoms: N5_20  and  C14_21 
REMARK    6  A    between atoms: C14_21  and  C15_22 
ROOT
HETATM    1  C5  UNL     1      -1.408  50.820 -23.579  1.00  0.00     0.072 A 
HETATM    2  N1  UNL     1      -1.368  50.015 -22.504  1.00  0.00    -0.299 N 
ATOM      3  H1  UNL     1      -0.787  50.116 -21.672  1.00  0.00     0.187 HD
HETATM    4  N2  UNL     1      -2.262  49.050 -22.768  1.00  0.00    -0.299 N 
HETATM    5  C6  UNL     1      -2.901  49.197 -23.966  1.00  0.00     0.065 A 
HETATM    6  C7  UNL     1      -3.884  48.433 -24.594  1.00  0.00     0.080 A 
HETATM    7  C8  UNL     1      -4.320  48.924 -25.817  1.00  0.00     0.111 A 
HETATM    8  N6  UNL     1      -3.835  50.050 -26.389  1.00  0.00    -0.351 N 
ATOM      9  H6  UNL     1      -4.186  50.352 -27.297  1.00  0.00     0.166 HD
HETATM   10  C22 UNL     1      -2.881  50.778 -25.753  1.00  0.00     0.105 A 
HETATM   11  C23 UNL     1      -2.376  50.357 -24.522  1.00  0.00     0.036 A 
HETATM   12  H5  UNL     1      -2.409  48.328 -22.075  1.00  0.00     0.187 HD
ENDROOT
BRANCH   7  13
HETATM   13  N3  UNL     1      -5.289  48.290 -26.596  1.00  0.00    -0.295 N 
HETATM   14  C9  UNL     1      -5.259  48.040 -27.943  1.00  0.00     0.321 C 
HETATM   15  O1  UNL     1      -4.334  48.276 -28.707  1.00  0.00    -0.247 OA
HETATM   16  N4  UNL     1      -6.443  47.456 -28.359  1.00  0.00    -0.342 N 
HETATM   17  H8  UNL     1      -7.251  47.790 -27.851  1.00  0.00     0.164 HD
HETATM   18  H7  UNL     1      -5.973  47.799 -26.040  1.00  0.00     0.172 HD
BRANCH  16  19
HETATM   19  C10 UNL     1      -6.650  47.180 -29.770  1.00  0.00     0.130 C 
BRANCH  19  20
HETATM   20  C11 UNL     1      -8.038  47.607 -30.222  1.00  0.00     0.033 C 
HETATM   21  C12 UNL     1      -8.511  46.904 -31.484  1.00  0.00     0.038 C 
HETATM   22  C13 UNL     1     -10.002  47.194 -31.454  1.00  0.00     0.273 C 
HETATM   23  N5  UNL     1     -10.369  47.092 -30.033  1.00  0.00     0.093 N 
HETATM   24  C21 UNL     1      -9.146  47.267 -29.229  1.00  0.00     0.279 C 
BRANCH  23  25
HETATM   25  C14 UNL     1     -11.426  48.030 -29.644  1.00  0.00     0.311 C 
BRANCH  25  26
HETATM   26  C15 UNL     1     -12.495  47.409 -28.770  1.00  0.00    -0.030 A 
HETATM   27  C16 UNL     1     -13.311  46.383 -29.265  1.00  0.00     0.009 A 
HETATM   28  C17 UNL     1     -14.284  45.792 -28.454  1.00  0.00     0.001 A 
HETATM   29  C18 UNL     1     -14.452  46.224 -27.143  1.00  0.00     0.000 A 
HETATM   30  C19 UNL     1     -13.653  47.250 -26.640  1.00  0.00     0.001 A 
HETATM   31  C20 UNL     1     -12.679  47.840 -27.448  1.00  0.00     0.009 A 
ENDBRANCH  25  26
ENDBRANCH  23  25
ENDBRANCH  19  20
ENDBRANCH  16  19
ENDBRANCH   7  13
BRANCH   1  32
HETATM   32  C4  UNL     1      -0.543  51.996 -23.659  1.00  0.00    -0.004 A 
HETATM   33  C3  UNL     1       0.121  52.489 -22.534  1.00  0.00     0.038 A 
HETATM   34  C2  UNL     1       0.932  53.613 -22.666  1.00  0.00     0.005 A 
HETATM   35  C1  UNL     1       1.651  54.164 -21.472  1.00  0.00     0.068 C 
HETATM   36  N7  UNL     1       1.109  54.250 -23.845  1.00  0.00    -0.369 N 
HETATM   37  C25 UNL     1       0.451  53.766 -24.917  1.00  0.00     0.089 A 
ATOM     38  H7  UNL     1       1.716  55.066 -23.921  1.00  0.00     0.165 HD
HETATM   39  C24 UNL     1      -0.380  52.661 -24.874  1.00  0.00     0.031 A 
ENDBRANCH   1  32
TORSDOF 6
ENDMDL
MODEL 8
REMARK minimizedAffinity -9.02835655
REMARK  6 active torsions:
REMARK  status: ('A' for Active; 'I' for Inactive)
REMARK    1  A    between atoms: C4_4  and  C5_5 
REMARK    2  A    between atoms: C8_11  and  N3_12 
REMARK       I    between atoms: N3_12  and  C9_13 
REMARK       I    between atoms: C9_13  and  N4_15 
REMARK    3  A    between atoms: N4_15  and  C10_16 
REMARK    4  A    between atoms: C10_16  and  C11_17 
REMARK    5  A    between atoms: N5_20  and  C14_21 
REMARK    6  A    between atoms: C14_21  and  C15_22 
ROOT
HETATM    1  C5  UNL     1      -7.029  47.453 -28.060  1.00  0.00     0.072 A 
HETATM    2  N1  UNL     1      -6.287  47.681 -29.155  1.00  0.00    -0.299 N 
ATOM      3  H1  UNL     1      -6.566  47.572 -30.130  1.00  0.00     0.187 HD
HETATM    4  N2  UNL     1      -5.097  48.083 -28.683  1.00  0.00    -0.299 N 
HETATM    5  C6  UNL     1      -5.032  48.145 -27.320  1.00  0.00     0.065 A 
HETATM    6  C7  UNL     1      -4.004  48.516 -26.455  1.00  0.00     0.080 A 
HETATM    7  C8  UNL     1      -4.327  48.482 -25.106  1.00  0.00     0.111 A 
HETATM    8  N6  UNL     1      -5.538  48.107 -24.634  1.00  0.00    -0.351 N 
ATOM      9  H6  UNL     1      -5.711  48.088 -23.630  1.00  0.00     0.166 HD
HETATM   10  C22 UNL     1      -6.524  47.755 -25.500  1.00  0.00     0.105 A 
HETATM   11  C23 UNL     1      -6.288  47.751 -26.875  1.00  0.00     0.036 A 
HETATM   12  H5  UNL     1      -4.373  48.325 -29.346  1.00  0.00     0.187 HD
ENDROOT
BRANCH   7  13
HETATM   13  N3  UNL     1      -3.425  48.808 -24.093  1.00  0.00    -0.295 N 
HETATM   14  C9  UNL     1      -3.525  49.809 -23.162  1.00  0.00     0.321 C 
HETATM   15  O1  UNL     1      -4.469  50.571 -23.011  1.00  0.00    -0.247 OA
HETATM   16  N4  UNL     1      -2.390  49.859 -22.372  1.00  0.00    -0.342 N 
HETATM   17  H8  UNL     1      -1.546  49.618 -22.872  1.00  0.00     0.164 HD
HETATM   18  H7  UNL     1      -2.742  48.083 -23.933  1.00  0.00     0.172 HD
BRANCH  16  19
HETATM   19  C10 UNL     1      -2.259  50.903 -21.370  1.00  0.00     0.130 C 
BRANCH  19  20
HETATM   20  C11 UNL     1      -1.312  52.000 -21.833  1.00  0.00     0.033 C 
HETATM   21  C12 UNL     1      -0.065  52.132 -20.973  1.00  0.00     0.038 C 
HETATM   22  C13 UNL     1       0.837  52.963 -21.870  1.00  0.00     0.273 C 
HETATM   23  N5  UNL     1       0.583  52.449 -23.225  1.00  0.00     0.093 N 
HETATM   24  C21 UNL     1      -0.724  51.768 -23.221  1.00  0.00     0.279 C 
BRANCH  23  25
HETATM   25  C14 UNL     1       0.663  53.488 -24.257  1.00  0.00     0.311 C 
BRANCH  25  26
HETATM   26  C15 UNL     1       0.707  52.938 -25.667  1.00  0.00    -0.030 A 
HETATM   27  C16 UNL     1      -0.082  53.505 -26.676  1.00  0.00     0.009 A 
HETATM   28  C17 UNL     1      -0.027  53.016 -27.984  1.00  0.00     0.001 A 
HETATM   29  C18 UNL     1       0.815  51.954 -28.294  1.00  0.00     0.000 A 
HETATM   30  C19 UNL     1       1.600  51.374 -27.297  1.00  0.00     0.001 A 
HETATM   31  C20 UNL     1       1.547  51.864 -25.991  1.00  0.00     0.009 A 
ENDBRANCH  25  26
ENDBRANCH  23  25
ENDBRANCH  19  20
ENDBRANCH  16  19
ENDBRANCH   7  13
BRANCH   1  32
HETATM   32  C4  UNL     1      -8.407  46.979 -28.181  1.00  0.00    -0.004 A 
HETATM   33  C3  UNL     1      -9.374  47.723 -28.860  1.00  0.00     0.038 A 
HETATM   34  C2  UNL     1     -10.672  47.226 -28.945  1.00  0.00     0.005 A 
HETATM   35  C1  UNL     1     -11.730  48.008 -29.664  1.00  0.00     0.068 C 
HETATM   36  N7  UNL     1     -11.039  46.045 -28.397  1.00  0.00    -0.369 N 
HETATM   37  C25 UNL     1     -10.094  45.348 -27.736  1.00  0.00     0.089 A 
ATOM     38  H7  UNL     1     -11.993  45.696 -28.481  1.00  0.00     0.165 HD
HETATM   39  C24 UNL     1      -8.785  45.770 -27.597  1.00  0.00     0.031 A 
ENDBRANCH   1  32
TORSDOF 6
ENDMDL
MODEL 9
REMARK minimizedAffinity -8.94206333
REMARK  6 active torsions:
REMARK  status: ('A' for Active; 'I' for Inactive)
REMARK    1  A    between atoms: C4_4  and  C5_5 
REMARK    2  A    between atoms: C8_11  and  N3_12 
REMARK       I    between atoms: N3_12  and  C9_13 
REMARK       I    between atoms: C9_13  and  N4_15 
REMARK    3  A    between atoms: N4_15  and  C10_16 
REMARK    4  A    between atoms: C10_16  and  C11_17 
REMARK    5  A    between atoms: N5_20  and  C14_21 
REMARK    6  A    between atoms: C14_21  and  C15_22 
ROOT
HETATM    1  C5  UNL     1      -0.916  51.976 -22.709  1.00  0.00     0.072 A 
HETATM    2  N1  UNL     1      -0.288  51.720 -23.868  1.00  0.00    -0.299 N 
ATOM      3  H1  UNL     1       0.708  51.809 -24.070  1.00  0.00     0.187 HD
HETATM    4  N2  UNL     1      -1.261  51.321 -24.702  1.00  0.00    -0.299 N 
HETATM    5  C6  UNL     1      -2.502  51.288 -24.132  1.00  0.00     0.065 A 
HETATM    6  C7  UNL     1      -3.748  50.929 -24.643  1.00  0.00     0.080 A 
HETATM    7  C8  UNL     1      -4.798  50.994 -23.736  1.00  0.00     0.111 A 
HETATM    8  N6  UNL     1      -4.654  51.387 -22.450  1.00  0.00    -0.351 N 
ATOM      9  H6  UNL     1      -5.466  51.428 -21.835  1.00  0.00     0.166 HD
HETATM   10  C22 UNL     1      -3.426  51.726 -21.977  1.00  0.00     0.105 A 
HETATM   11  C23 UNL     1      -2.314  51.699 -22.819  1.00  0.00     0.036 A 
HETATM   12  H5  UNL     1      -1.008  51.059 -25.646  1.00  0.00     0.187 HD
ENDROOT
BRANCH   7  13
HETATM   13  N3  UNL     1      -6.117  50.684 -24.067  1.00  0.00    -0.295 N 
HETATM   14  C9  UNL     1      -6.703  49.447 -24.136  1.00  0.00     0.321 C 
HETATM   15  O1  UNL     1      -6.181  48.378 -23.855  1.00  0.00    -0.247 OA
HETATM   16  N4  UNL     1      -8.013  49.549 -24.571  1.00  0.00    -0.342 N 
HETATM   17  H8  UNL     1      -8.153  50.292 -25.241  1.00  0.00     0.164 HD
HETATM   18  H7  UNL     1      -6.722  51.491 -24.046  1.00  0.00     0.172 HD
BRANCH  16  19
HETATM   19  C10 UNL     1      -8.792  48.342 -24.790  1.00  0.00     0.130 C 
BRANCH  19  20
HETATM   20  C11 UNL     1      -9.014  48.086 -26.273  1.00  0.00     0.033 C 
HETATM   21  C12 UNL     1      -8.373  46.800 -26.771  1.00  0.00     0.038 C 
HETATM   22  C13 UNL     1      -9.080  46.604 -28.102  1.00  0.00     0.273 C 
HETATM   23  N5  UNL     1     -10.468  47.018 -27.847  1.00  0.00     0.093 N 
HETATM   24  C21 UNL     1     -10.478  47.886 -26.656  1.00  0.00     0.279 C 
BRANCH  23  25
HETATM   25  C14 UNL     1     -11.098  47.659 -29.004  1.00  0.00     0.311 C 
BRANCH  25  26
HETATM   26  C15 UNL     1     -10.154  47.871 -30.169  1.00  0.00    -0.030 A 
HETATM   27  C16 UNL     1      -9.239  48.932 -30.159  1.00  0.00     0.009 A 
HETATM   28  C17 UNL     1      -8.351  49.117 -31.221  1.00  0.00     0.001 A 
HETATM   29  C18 UNL     1      -8.370  48.245 -32.304  1.00  0.00     0.000 A 
HETATM   30  C19 UNL     1      -9.281  47.189 -32.331  1.00  0.00     0.001 A 
HETATM   31  C20 UNL     1     -10.168  47.002 -31.269  1.00  0.00     0.009 A 
ENDBRANCH  25  26
ENDBRANCH  23  25
ENDBRANCH  19  20
ENDBRANCH  16  19
ENDBRANCH   7  13
BRANCH   1  32
HETATM   32  C4  UNL     1      -0.167  52.455 -21.548  1.00  0.00    -0.004 A 
HETATM   33  C3  UNL     1      -0.339  51.884 -20.286  1.00  0.00     0.038 A 
HETATM   34  C2  UNL     1       0.399  52.380 -19.214  1.00  0.00     0.005 A 
HETATM   35  C1  UNL     1       0.228  51.786 -17.848  1.00  0.00     0.068 C 
HETATM   36  N7  UNL     1       1.283  53.394 -19.344  1.00  0.00    -0.369 N 
HETATM   37  C25 UNL     1       1.426  53.939 -20.568  1.00  0.00     0.089 A 
ATOM     38  H7  UNL     1       1.821  53.733 -18.546  1.00  0.00     0.165 HD
HETATM   39  C24 UNL     1       0.729  53.516 -21.684  1.00  0.00     0.031 A 
ENDBRANCH   1  32
TORSDOF 6
ENDMDL
