MODEL 1
REMARK minimizedAffinity -8.34484196
REMARK  4 active torsions:
REMARK  status: ('A' for Active; 'I' for Inactive)
REMARK    1  A    between atoms: C3_4  and  C4_5 
REMARK    2  A    between atoms: C9_12  and  N3_13 
REMARK       I    between atoms: N3_13  and  C10_14 
REMARK       I    between atoms: C10_14  and  N4_16 
REMARK    3  A    between atoms: N4_16  and  C11_17 
REMARK    4  A    between atoms: C11_17  and  C12_18 
ROOT
HETATM    1  C4  UNL     1      10.934  36.020  18.801  1.00  0.00    -0.005 A 
HETATM    2  C5  UNL     1      11.821  36.390  19.804  1.00  0.00     0.101 A 
HETATM    3  N2  UNL     1      13.157  36.523  19.629  1.00  0.00    -0.363 N 
ATOM      4  H2  UNL     1      13.769  36.796  20.398  1.00  0.00     0.165 HD
HETATM    5  C6  UNL     1      13.644  36.278  18.397  1.00  0.00     0.059 A 
HETATM    6  C7  UNL     1      15.000  36.395  18.153  1.00  0.00     0.035 A 
HETATM    7  C8  UNL     1      15.526  36.146  16.884  1.00  0.00     0.051 A 
HETATM    8  C9  UNL     1      14.661  35.774  15.870  1.00  0.00     0.109 A 
HETATM    9  N5  UNL     1      13.332  35.653  16.067  1.00  0.00    -0.341 N 
ATOM     10  H5  UNL     1      12.712  35.384  15.303  1.00  0.00     0.167 HD
HETATM   11  C18 UNL     1      12.843  35.898  17.302  1.00  0.00     0.061 A 
HETATM   12  C19 UNL     1      11.481  35.778  17.538  1.00  0.00     0.045 A 
ENDROOT
BRANCH   8  13
HETATM   13  N3  UNL     1      15.055  35.505  14.561  1.00  0.00    -0.295 N 
HETATM   14  C10 UNL     1      16.321  35.307  14.076  1.00  0.00     0.322 C 
HETATM   15  O1  UNL     1      17.351  35.285  14.736  1.00  0.00    -0.247 OA
HETATM   16  N4  UNL     1      16.303  35.104  12.713  1.00  0.00    -0.339 N 
HETATM   17  H9  UNL     1      15.535  35.522  12.212  1.00  0.00     0.164 HD
HETATM   18  H8  UNL     1      14.276  35.344  13.944  1.00  0.00     0.172 HD
BRANCH  16  19
HETATM   19  C11 UNL     1      17.533  34.962  11.965  1.00  0.00     0.162 C 
BRANCH  19  20
HETATM   20  C12 UNL     1      17.762  33.525  11.572  1.00  0.00    -0.040 A 
HETATM   21  C13 UNL     1      17.176  32.480  12.300  1.00  0.00     0.009 A 
HETATM   22  C14 UNL     1      17.374  31.153  11.916  1.00  0.00     0.001 A 
HETATM   23  C15 UNL     1      18.154  30.857  10.800  1.00  0.00     0.000 A 
HETATM   24  C16 UNL     1      18.735  31.888  10.064  1.00  0.00     0.001 A 
HETATM   25  C17 UNL     1      18.539  33.215  10.446  1.00  0.00     0.009 A 
ENDBRANCH  19  20
ENDBRANCH  16  19
ENDBRANCH   8  13
BRANCH   1  26
HETATM   26  C3  UNL     1       9.508  35.894  19.035  1.00  0.00     0.009 A 
HETATM   27  C2  UNL     1       8.921  35.078  19.982  1.00  0.00     0.123 A 
HETATM   28  N1  UNL     1       7.571  35.250  19.855  1.00  0.00    -0.307 N 
HETATM   29  C1  UNL     1       6.536  34.603  20.624  1.00  0.00     0.177 C 
HETATM   30  N6  UNL     1       7.232  36.122  18.891  1.00  0.00    -0.310 N 
HETATM   31  C20 UNL     1       8.408  36.510  18.392  1.00  0.00     0.121 A 
ATOM     32  H6  UNL     1       6.297  36.418  18.607  1.00  0.00     0.186 HD
ENDBRANCH   1  26
TORSDOF 4
ENDMDL
MODEL 2
REMARK minimizedAffinity -7.69785547
REMARK  4 active torsions:
REMARK  status: ('A' for Active; 'I' for Inactive)
REMARK    1  A    between atoms: C3_4  and  C4_5 
REMARK    2  A    between atoms: C9_12  and  N3_13 
REMARK       I    between atoms: N3_13  and  C10_14 
REMARK       I    between atoms: C10_14  and  N4_16 
REMARK    3  A    between atoms: N4_16  and  C11_17 
REMARK    4  A    between atoms: C11_17  and  C12_18 
ROOT
HETATM    1  C4  UNL     1      17.475  34.811  12.956  1.00  0.00    -0.005 A 
HETATM    2  C5  UNL     1      18.310  35.919  13.003  1.00  0.00     0.101 A 
HETATM    3  N2  UNL     1      18.070  37.023  13.750  1.00  0.00    -0.363 N 
ATOM      4  H2  UNL     1      18.714  37.814  13.750  1.00  0.00     0.165 HD
HETATM    5  C6  UNL     1      16.946  37.032  14.492  1.00  0.00     0.059 A 
HETATM    6  C7  UNL     1      16.643  38.130  15.276  1.00  0.00     0.035 A 
HETATM    7  C8  UNL     1      15.484  38.161  16.053  1.00  0.00     0.051 A 
HETATM    8  C9  UNL     1      14.636  37.068  16.020  1.00  0.00     0.109 A 
HETATM    9  N5  UNL     1      14.898  35.976  15.271  1.00  0.00    -0.341 N 
ATOM     10  H5  UNL     1      14.262  35.179  15.267  1.00  0.00     0.167 HD
HETATM   11  C18 UNL     1      16.025  35.967  14.527  1.00  0.00     0.061 A 
HETATM   12  C19 UNL     1      16.321  34.861  13.743  1.00  0.00     0.045 A 
ENDROOT
BRANCH   8  13
HETATM   13  N3  UNL     1      13.453  36.968  16.751  1.00  0.00    -0.295 N 
HETATM   14  C10 UNL     1      13.084  35.996  17.643  1.00  0.00     0.322 C 
HETATM   15  O1  UNL     1      13.767  35.046  17.999  1.00  0.00    -0.247 OA
HETATM   16  N4  UNL     1      11.817  36.230  18.133  1.00  0.00    -0.339 N 
HETATM   17  H9  UNL     1      11.197  36.749  17.530  1.00  0.00     0.164 HD
HETATM   18  H8  UNL     1      12.868  37.782  16.659  1.00  0.00     0.172 HD
BRANCH  16  19
HETATM   19  C11 UNL     1      11.177  35.287  19.024  1.00  0.00     0.162 C 
BRANCH  19  20
HETATM   20  C12 UNL     1       9.707  35.593  19.165  1.00  0.00    -0.040 A 
HETATM   21  C13 UNL     1       9.078  36.504  18.305  1.00  0.00     0.009 A 
HETATM   22  C14 UNL     1       7.712  36.764  18.428  1.00  0.00     0.001 A 
HETATM   23  C15 UNL     1       6.962  36.114  19.406  1.00  0.00     0.000 A 
HETATM   24  C16 UNL     1       7.575  35.201  20.262  1.00  0.00     0.001 A 
HETATM   25  C17 UNL     1       8.940  34.940  20.142  1.00  0.00     0.009 A 
ENDBRANCH  19  20
ENDBRANCH  16  19
ENDBRANCH   8  13
BRANCH   1  26
HETATM   26  C3  UNL     1      17.775  33.648  12.142  1.00  0.00     0.009 A 
HETATM   27  C2  UNL     1      18.239  33.678  10.842  1.00  0.00     0.123 A 
HETATM   28  N1  UNL     1      18.373  32.377  10.449  1.00  0.00    -0.307 N 
HETATM   29  C1  UNL     1      18.822  31.897   9.165  1.00  0.00     0.177 C 
HETATM   30  N6  UNL     1      18.029  31.494  11.402  1.00  0.00    -0.310 N 
HETATM   31  C20 UNL     1      17.664  32.266  12.428  1.00  0.00     0.121 A 
ATOM     32  H6  UNL     1      18.043  30.474  11.353  1.00  0.00     0.186 HD
ENDBRANCH   1  26
TORSDOF 4
ENDMDL
MODEL 3
REMARK minimizedAffinity -7.69087648
REMARK  4 active torsions:
REMARK  status: ('A' for Active; 'I' for Inactive)
REMARK    1  A    between atoms: C3_4  and  C4_5 
REMARK    2  A    between atoms: C9_12  and  N3_13 
REMARK       I    between atoms: N3_13  and  C10_14 
REMARK       I    between atoms: C10_14  and  N4_16 
REMARK    3  A    between atoms: N4_16  and  C11_17 
REMARK    4  A    between atoms: C11_17  and  C12_18 
ROOT
HETATM    1  C4  UNL     1      11.056  35.111  18.915  1.00  0.00    -0.005 A 
HETATM    2  C5  UNL     1      11.834  34.405  19.823  1.00  0.00     0.101 A 
HETATM    3  N2  UNL     1      13.145  34.118  19.642  1.00  0.00    -0.363 N 
ATOM      4  H2  UNL     1      13.675  33.593  20.338  1.00  0.00     0.165 HD
HETATM    5  C6  UNL     1      13.720  34.555  18.504  1.00  0.00     0.059 A 
HETATM    6  C7  UNL     1      15.056  34.295  18.260  1.00  0.00     0.035 A 
HETATM    7  C8  UNL     1      15.672  34.739  17.088  1.00  0.00     0.051 A 
HETATM    8  C9  UNL     1      14.915  35.443  16.169  1.00  0.00     0.109 A 
HETATM    9  N5  UNL     1      13.611  35.721  16.373  1.00  0.00    -0.341 N 
ATOM     10  H5  UNL     1      13.074  36.248  15.684  1.00  0.00     0.167 HD
HETATM   11  C18 UNL     1      13.034  35.283  17.513  1.00  0.00     0.061 A 
HETATM   12  C19 UNL     1      11.693  35.549  17.750  1.00  0.00     0.045 A 
ENDROOT
BRANCH   8  13
HETATM   13  N3  UNL     1      15.408  35.947  14.967  1.00  0.00    -0.295 N 
HETATM   14  C10 UNL     1      16.621  36.537  14.724  1.00  0.00     0.322 C 
HETATM   15  O1  UNL     1      17.526  36.685  15.534  1.00  0.00    -0.247 OA
HETATM   16  N4  UNL     1      16.722  36.939  13.410  1.00  0.00    -0.339 N 
HETATM   17  H9  UNL     1      15.854  37.153  12.944  1.00  0.00     0.164 HD
HETATM   18  H8  UNL     1      14.810  35.742  14.183  1.00  0.00     0.172 HD
BRANCH  16  19
HETATM   19  C11 UNL     1      17.880  37.669  12.941  1.00  0.00     0.162 C 
BRANCH  19  20
HETATM   20  C12 UNL     1      17.754  39.138  13.257  1.00  0.00    -0.040 A 
HETATM   21  C13 UNL     1      16.511  39.783  13.186  1.00  0.00     0.009 A 
HETATM   22  C14 UNL     1      16.399  41.137  13.503  1.00  0.00     0.001 A 
HETATM   23  C15 UNL     1      17.524  41.858  13.898  1.00  0.00     0.000 A 
HETATM   24  C16 UNL     1      18.764  41.226  13.980  1.00  0.00     0.001 A 
HETATM   25  C17 UNL     1      18.878  39.872  13.663  1.00  0.00     0.009 A 
ENDBRANCH  19  20
ENDBRANCH  16  19
ENDBRANCH   8  13
BRANCH   1  26
HETATM   26  C3  UNL     1       9.655  35.397  19.154  1.00  0.00     0.009 A 
HETATM   27  C2  UNL     1       8.911  34.929  20.219  1.00  0.00     0.123 A 
HETATM   28  N1  UNL     1       7.646  35.419  20.053  1.00  0.00    -0.307 N 
HETATM   29  C1  UNL     1       6.508  35.197  20.910  1.00  0.00     0.177 C 
HETATM   30  N6  UNL     1       7.508  36.175  18.951  1.00  0.00    -0.310 N 
HETATM   31  C20 UNL     1       8.726  36.159  18.405  1.00  0.00     0.121 A 
ATOM     32  H6  UNL     1       6.670  36.650  18.612  1.00  0.00     0.186 HD
ENDBRANCH   1  26
TORSDOF 4
ENDMDL
MODEL 4
REMARK minimizedAffinity -7.62925768
REMARK  4 active torsions:
REMARK  status: ('A' for Active; 'I' for Inactive)
REMARK    1  A    between atoms: C3_4  and  C4_5 
REMARK    2  A    between atoms: C9_12  and  N3_13 
REMARK       I    between atoms: N3_13  and  C10_14 
REMARK       I    between atoms: C10_14  and  N4_16 
REMARK    3  A    between atoms: N4_16  and  C11_17 
REMARK    4  A    between atoms: C11_17  and  C12_18 
ROOT
HETATM    1  C4  UNL     1      18.466  44.765   7.458  1.00  0.00    -0.005 A 
HETATM    2  C5  UNL     1      17.675  43.913   6.699  1.00  0.00     0.101 A 
HETATM    3  N2  UNL     1      16.912  44.311   5.653  1.00  0.00    -0.363 N 
ATOM      4  H2  UNL     1      16.345  43.647   5.126  1.00  0.00     0.165 HD
HETATM    5  C6  UNL     1      16.932  45.622   5.340  1.00  0.00     0.059 A 
HETATM    6  C7  UNL     1      16.174  46.093   4.283  1.00  0.00     0.035 A 
HETATM    7  C8  UNL     1      16.181  47.446   3.941  1.00  0.00     0.051 A 
HETATM    8  C9  UNL     1      16.961  48.313   4.685  1.00  0.00     0.109 A 
HETATM    9  N5  UNL     1      17.718  47.891   5.720  1.00  0.00    -0.341 N 
ATOM     10  H5  UNL     1      18.290  48.548   6.251  1.00  0.00     0.167 HD
HETATM   11  C18 UNL     1      17.697  46.579   6.035  1.00  0.00     0.061 A 
HETATM   12  C19 UNL     1      18.461  46.115   7.097  1.00  0.00     0.045 A 
ENDROOT
BRANCH   8  13
HETATM   13  N3  UNL     1      17.062  49.682   4.445  1.00  0.00    -0.295 N 
HETATM   14  C10 UNL     1      17.246  50.693   5.350  1.00  0.00     0.322 C 
HETATM   15  O1  UNL     1      17.404  50.563   6.557  1.00  0.00    -0.247 OA
HETATM   16  N4  UNL     1      17.256  51.921   4.725  1.00  0.00    -0.339 N 
HETATM   17  H9  UNL     1      16.739  51.984   3.862  1.00  0.00     0.164 HD
HETATM   18  H8  UNL     1      17.102  49.904   3.464  1.00  0.00     0.172 HD
BRANCH  16  19
HETATM   19  C11 UNL     1      17.345  53.146   5.490  1.00  0.00     0.162 C 
BRANCH  19  20
HETATM   20  C12 UNL     1      16.249  54.105   5.100  1.00  0.00    -0.040 A 
HETATM   21  C13 UNL     1      16.553  55.392   4.633  1.00  0.00     0.009 A 
HETATM   22  C14 UNL     1      15.533  56.265   4.253  1.00  0.00     0.001 A 
HETATM   23  C15 UNL     1      14.202  55.861   4.330  1.00  0.00     0.000 A 
HETATM   24  C16 UNL     1      13.887  54.582   4.786  1.00  0.00     0.001 A 
HETATM   25  C17 UNL     1      14.906  53.707   5.167  1.00  0.00     0.009 A 
ENDBRANCH  19  20
ENDBRANCH  16  19
ENDBRANCH   8  13
BRANCH   1  26
HETATM   26  C3  UNL     1      19.270  44.291   8.568  1.00  0.00     0.009 A 
HETATM   27  C2  UNL     1      20.427  43.545   8.458  1.00  0.00     0.123 A 
HETATM   28  N1  UNL     1      20.852  43.301   9.734  1.00  0.00    -0.307 N 
HETATM   29  C1  UNL     1      22.019  42.552  10.134  1.00  0.00     0.177 C 
HETATM   30  N6  UNL     1      20.054  43.835  10.674  1.00  0.00    -0.310 N 
HETATM   31  C20 UNL     1      19.093  44.433   9.965  1.00  0.00     0.121 A 
ATOM     32  H6  UNL     1      20.158  43.793  11.688  1.00  0.00     0.186 HD
ENDBRANCH   1  26
TORSDOF 4
ENDMDL
MODEL 5
REMARK minimizedAffinity -7.57844734
REMARK  4 active torsions:
REMARK  status: ('A' for Active; 'I' for Inactive)
REMARK    1  A    between atoms: C3_4  and  C4_5 
REMARK    2  A    between atoms: C9_12  and  N3_13 
REMARK       I    between atoms: N3_13  and  C10_14 
REMARK       I    between atoms: C10_14  and  N4_16 
REMARK    3  A    between atoms: N4_16  and  C11_17 
REMARK    4  A    between atoms: C11_17  and  C12_18 
ROOT
HETATM    1  C4  UNL     1      17.257  34.839  14.661  1.00  0.00    -0.005 A 
HETATM    2  C5  UNL     1      18.174  34.566  15.668  1.00  0.00     0.101 A 
HETATM    3  N2  UNL     1      17.913  34.695  16.990  1.00  0.00    -0.363 N 
ATOM      4  H2  UNL     1      18.621  34.484  17.694  1.00  0.00     0.165 HD
HETATM    5  C6  UNL     1      16.681  35.115  17.338  1.00  0.00     0.059 A 
HETATM    6  C7  UNL     1      16.352  35.267  18.672  1.00  0.00     0.035 A 
HETATM    7  C8  UNL     1      15.081  35.700  19.054  1.00  0.00     0.051 A 
HETATM    8  C9  UNL     1      14.153  35.979  18.067  1.00  0.00     0.109 A 
HETATM    9  N5  UNL     1      14.433  35.838  16.755  1.00  0.00    -0.341 N 
ATOM     10  H5  UNL     1      13.731  36.043  16.044  1.00  0.00     0.167 HD
HETATM   11  C18 UNL     1      15.668  35.418  16.407  1.00  0.00     0.061 A 
HETATM   12  C19 UNL     1      15.990  35.268  15.065  1.00  0.00     0.045 A 
ENDROOT
BRANCH   8  13
HETATM   13  N3  UNL     1      12.850  36.410  18.313  1.00  0.00    -0.295 N 
HETATM   14  C10 UNL     1      11.675  35.748  18.074  1.00  0.00     0.322 C 
HETATM   15  O1  UNL     1      11.563  34.612  17.635  1.00  0.00    -0.247 OA
HETATM   16  N4  UNL     1      10.590  36.525  18.418  1.00  0.00    -0.339 N 
HETATM   17  H9  UNL     1      10.728  37.523  18.377  1.00  0.00     0.164 HD
HETATM   18  H8  UNL     1      12.816  37.279  18.821  1.00  0.00     0.172 HD
BRANCH  16  19
HETATM   19  C11 UNL     1       9.239  36.071  18.170  1.00  0.00     0.162 C 
BRANCH  19  20
HETATM   20  C12 UNL     1       8.522  35.781  19.465  1.00  0.00    -0.040 A 
HETATM   21  C13 UNL     1       9.172  35.945  20.697  1.00  0.00     0.009 A 
HETATM   22  C14 UNL     1       8.494  35.697  21.891  1.00  0.00     0.001 A 
HETATM   23  C15 UNL     1       7.162  35.290  21.868  1.00  0.00     0.000 A 
HETATM   24  C16 UNL     1       6.503  35.131  20.650  1.00  0.00     0.001 A 
HETATM   25  C17 UNL     1       7.179  35.377  19.454  1.00  0.00     0.009 A 
ENDBRANCH  19  20
ENDBRANCH  16  19
ENDBRANCH   8  13
BRANCH   1  26
HETATM   26  C3  UNL     1      17.581  34.682  13.256  1.00  0.00     0.009 A 
HETATM   27  C2  UNL     1      17.955  33.501  12.646  1.00  0.00     0.123 A 
HETATM   28  N1  UNL     1      18.181  33.798  11.332  1.00  0.00    -0.307 N 
HETATM   29  C1  UNL     1      18.601  32.889  10.294  1.00  0.00     0.177 C 
HETATM   30  N6  UNL     1      17.983  35.094  11.037  1.00  0.00    -0.310 N 
HETATM   31  C20 UNL     1      17.621  35.630  12.205  1.00  0.00     0.121 A 
ATOM     32  H6  UNL     1      18.084  35.558  10.133  1.00  0.00     0.186 HD
ENDBRANCH   1  26
TORSDOF 4
ENDMDL
MODEL 6
REMARK minimizedAffinity -7.55120564
REMARK  4 active torsions:
REMARK  status: ('A' for Active; 'I' for Inactive)
REMARK    1  A    between atoms: C3_4  and  C4_5 
REMARK    2  A    between atoms: C9_12  and  N3_13 
REMARK       I    between atoms: N3_13  and  C10_14 
REMARK       I    between atoms: C10_14  and  N4_16 
REMARK    3  A    between atoms: N4_16  and  C11_17 
REMARK    4  A    between atoms: C11_17  and  C12_18 
ROOT
HETATM    1  C4  UNL     1       9.590  28.053  -3.179  1.00  0.00    -0.005 A 
HETATM    2  C5  UNL     1       9.645  27.195  -4.269  1.00  0.00     0.101 A 
HETATM    3  N2  UNL     1       8.960  27.383  -5.422  1.00  0.00    -0.363 N 
ATOM      4  H2  UNL     1       9.031  26.723  -6.196  1.00  0.00     0.165 HD
HETATM    5  C6  UNL     1       8.180  28.479  -5.503  1.00  0.00     0.059 A 
HETATM    6  C7  UNL     1       7.454  28.729  -6.653  1.00  0.00     0.035 A 
HETATM    7  C8  UNL     1       6.641  29.858  -6.759  1.00  0.00     0.051 A 
HETATM    8  C9  UNL     1       6.570  30.726  -5.684  1.00  0.00     0.109 A 
HETATM    9  N5  UNL     1       7.266  30.519  -4.546  1.00  0.00    -0.341 N 
ATOM     10  H5  UNL     1       7.204  31.176  -3.768  1.00  0.00     0.167 HD
HETATM   11  C18 UNL     1       8.047  29.422  -4.464  1.00  0.00     0.061 A 
HETATM   12  C19 UNL     1       8.772  29.179  -3.306  1.00  0.00     0.045 A 
ENDROOT
BRANCH   8  13
HETATM   13  N3  UNL     1       5.803  31.889  -5.662  1.00  0.00    -0.295 N 
HETATM   14  C10 UNL     1       5.795  32.919  -6.565  1.00  0.00     0.322 C 
HETATM   15  O1  UNL     1       6.443  32.977  -7.601  1.00  0.00    -0.247 OA
HETATM   16  N4  UNL     1       4.924  33.913  -6.173  1.00  0.00    -0.339 N 
HETATM   17  H9  UNL     1       4.756  33.991  -5.182  1.00  0.00     0.164 HD
HETATM   18  H8  UNL     1       5.111  31.887  -4.931  1.00  0.00     0.172 HD
BRANCH  16  19
HETATM   19  C11 UNL     1       4.813  35.145  -6.924  1.00  0.00     0.162 C 
BRANCH  19  20
HETATM   20  C12 UNL     1       4.431  36.292  -6.023  1.00  0.00    -0.040 A 
HETATM   21  C13 UNL     1       4.066  36.065  -4.688  1.00  0.00     0.009 A 
HETATM   22  C14 UNL     1       3.736  37.134  -3.855  1.00  0.00     0.001 A 
HETATM   23  C15 UNL     1       3.772  38.439  -4.343  1.00  0.00     0.000 A 
HETATM   24  C16 UNL     1       4.141  38.678  -5.666  1.00  0.00     0.001 A 
HETATM   25  C17 UNL     1       4.471  37.610  -6.502  1.00  0.00     0.009 A 
ENDBRANCH  19  20
ENDBRANCH  16  19
ENDBRANCH   8  13
BRANCH   1  26
HETATM   26  C3  UNL     1      10.346  27.811  -1.964  1.00  0.00     0.009 A 
HETATM   27  C2  UNL     1      10.219  28.521  -0.787  1.00  0.00     0.123 A 
HETATM   28  N1  UNL     1      11.119  27.982   0.089  1.00  0.00    -0.307 N 
HETATM   29  C1  UNL     1      11.362  28.394   1.449  1.00  0.00     0.177 C 
HETATM   30  N6  UNL     1      11.829  26.968  -0.433  1.00  0.00    -0.310 N 
HETATM   31  C20 UNL     1      11.361  26.866  -1.679  1.00  0.00     0.121 A 
ATOM     32  H6  UNL     1      12.554  26.407   0.017  1.00  0.00     0.186 HD
ENDBRANCH   1  26
TORSDOF 4
ENDMDL
MODEL 7
REMARK minimizedAffinity -7.44381285
REMARK  4 active torsions:
REMARK  status: ('A' for Active; 'I' for Inactive)
REMARK    1  A    between atoms: C3_4  and  C4_5 
REMARK    2  A    between atoms: C9_12  and  N3_13 
REMARK       I    between atoms: N3_13  and  C10_14 
REMARK       I    between atoms: C10_14  and  N4_16 
REMARK    3  A    between atoms: N4_16  and  C11_17 
REMARK    4  A    between atoms: C11_17  and  C12_18 
ROOT
HETATM    1  C4  UNL     1      16.003  55.155   4.336  1.00  0.00    -0.005 A 
HETATM    2  C5  UNL     1      17.345  55.513   4.341  1.00  0.00     0.101 A 
HETATM    3  N2  UNL     1      18.351  54.690   4.719  1.00  0.00    -0.363 N 
ATOM      4  H2  UNL     1      19.323  54.999   4.707  1.00  0.00     0.165 HD
HETATM    5  C6  UNL     1      18.015  53.445   5.111  1.00  0.00     0.059 A 
HETATM    6  C7  UNL     1      18.996  52.556   5.509  1.00  0.00     0.035 A 
HETATM    7  C8  UNL     1      18.671  51.262   5.919  1.00  0.00     0.051 A 
HETATM    8  C9  UNL     1      17.339  50.885   5.923  1.00  0.00     0.109 A 
HETATM    9  N5  UNL     1      16.354  51.722   5.538  1.00  0.00    -0.341 N 
ATOM     10  H5  UNL     1      15.379  51.420   5.543  1.00  0.00     0.167 HD
HETATM   11  C18 UNL     1      16.690  52.968   5.145  1.00  0.00     0.061 A 
HETATM   12  C19 UNL     1      15.698  53.854   4.747  1.00  0.00     0.045 A 
ENDROOT
BRANCH   8  13
HETATM   13  N3  UNL     1      16.881  49.624   6.302  1.00  0.00    -0.295 N 
HETATM   14  C10 UNL     1      17.399  48.398   5.978  1.00  0.00     0.322 C 
HETATM   15  O1  UNL     1      18.410  48.192   5.320  1.00  0.00    -0.247 OA
HETATM   16  N4  UNL     1      16.639  47.382   6.515  1.00  0.00    -0.339 N 
HETATM   17  H9  UNL     1      15.665  47.592   6.673  1.00  0.00     0.164 HD
HETATM   18  H8  UNL     1      16.137  49.666   6.978  1.00  0.00     0.172 HD
BRANCH  16  19
HETATM   19  C11 UNL     1      16.940  45.996   6.232  1.00  0.00     0.162 C 
BRANCH  19  20
HETATM   20  C12 UNL     1      16.543  45.636   4.822  1.00  0.00    -0.040 A 
HETATM   21  C13 UNL     1      15.469  46.282   4.192  1.00  0.00     0.009 A 
HETATM   22  C14 UNL     1      15.123  45.960   2.879  1.00  0.00     0.001 A 
HETATM   23  C15 UNL     1      15.847  44.996   2.182  1.00  0.00     0.000 A 
HETATM   24  C16 UNL     1      16.922  44.352   2.794  1.00  0.00     0.001 A 
HETATM   25  C17 UNL     1      17.269  44.672   4.107  1.00  0.00     0.009 A 
ENDBRANCH  19  20
ENDBRANCH  16  19
ENDBRANCH   8  13
BRANCH   1  26
HETATM   26  C3  UNL     1      14.958  56.071   3.920  1.00  0.00     0.009 A 
HETATM   27  C2  UNL     1      14.669  56.417   2.614  1.00  0.00     0.123 A 
HETATM   28  N1  UNL     1      13.636  57.309   2.670  1.00  0.00    -0.307 N 
HETATM   29  C1  UNL     1      12.987  57.960   1.558  1.00  0.00     0.177 C 
HETATM   30  N6  UNL     1      13.227  57.574   3.923  1.00  0.00    -0.310 N 
HETATM   31  C20 UNL     1      14.032  56.825   4.680  1.00  0.00     0.121 A 
ATOM     32  H6  UNL     1      12.478  58.200   4.224  1.00  0.00     0.186 HD
ENDBRANCH   1  26
TORSDOF 4
ENDMDL
MODEL 8
REMARK minimizedAffinity -7.31584024
REMARK  4 active torsions:
REMARK  status: ('A' for Active; 'I' for Inactive)
REMARK    1  A    between atoms: C3_4  and  C4_5 
REMARK    2  A    between atoms: C9_12  and  N3_13 
REMARK       I    between atoms: N3_13  and  C10_14 
REMARK       I    between atoms: C10_14  and  N4_16 
REMARK    3  A    between atoms: N4_16  and  C11_17 
REMARK    4  A    between atoms: C11_17  and  C12_18 
ROOT
HETATM    1  C4  UNL     1      17.941  48.300   6.134  1.00  0.00    -0.005 A 
HETATM    2  C5  UNL     1      18.892  48.603   7.100  1.00  0.00     0.101 A 
HETATM    3  N2  UNL     1      19.248  49.861   7.451  1.00  0.00    -0.363 N 
ATOM      4  H2  UNL     1      19.954  50.034   8.166  1.00  0.00     0.165 HD
HETATM    5  C6  UNL     1      18.630  50.876   6.815  1.00  0.00     0.059 A 
HETATM    6  C7  UNL     1      18.949  52.185   7.126  1.00  0.00     0.035 A 
HETATM    7  C8  UNL     1      18.321  53.251   6.480  1.00  0.00     0.051 A 
HETATM    8  C9  UNL     1      17.371  52.972   5.513  1.00  0.00     0.109 A 
HETATM    9  N5  UNL     1      17.030  51.709   5.184  1.00  0.00    -0.341 N 
ATOM     10  H5  UNL     1      16.322  51.527   4.472  1.00  0.00     0.167 HD
HETATM   11  C18 UNL     1      17.649  50.692   5.821  1.00  0.00     0.061 A 
HETATM   12  C19 UNL     1      17.323  49.381   5.501  1.00  0.00     0.045 A 
ENDROOT
BRANCH   8  13
HETATM   13  N3  UNL     1      16.668  53.941   4.800  1.00  0.00    -0.295 N 
HETATM   14  C10 UNL     1      15.325  54.209   4.827  1.00  0.00     0.322 C 
HETATM   15  O1  UNL     1      14.492  53.660   5.536  1.00  0.00    -0.247 OA
HETATM   16  N4  UNL     1      15.005  55.222   3.948  1.00  0.00    -0.339 N 
HETATM   17  H9  UNL     1      15.616  55.329   3.153  1.00  0.00     0.164 HD
HETATM   18  H8  UNL     1      17.271  54.566   4.291  1.00  0.00     0.172 HD
BRANCH  16  19
HETATM   19  C11 UNL     1      13.629  55.617   3.736  1.00  0.00     0.162 C 
BRANCH  19  20
HETATM   20  C12 UNL     1      13.536  56.708   2.699  1.00  0.00    -0.040 A 
HETATM   21  C13 UNL     1      13.597  56.403   1.331  1.00  0.00     0.009 A 
HETATM   22  C14 UNL     1      13.487  57.416   0.377  1.00  0.00     0.001 A 
HETATM   23  C15 UNL     1      13.311  58.738   0.778  1.00  0.00     0.000 A 
HETATM   24  C16 UNL     1      13.241  59.052   2.134  1.00  0.00     0.001 A 
HETATM   25  C17 UNL     1      13.351  58.042   3.090  1.00  0.00     0.009 A 
ENDBRANCH  19  20
ENDBRANCH  16  19
ENDBRANCH   8  13
BRANCH   1  26
HETATM   26  C3  UNL     1      17.590  46.934   5.794  1.00  0.00     0.009 A 
HETATM   27  C2  UNL     1      17.905  46.297   4.611  1.00  0.00     0.123 A 
HETATM   28  N1  UNL     1      17.377  45.039   4.696  1.00  0.00    -0.307 N 
HETATM   29  C1  UNL     1      17.439  44.000   3.698  1.00  0.00     0.177 C 
HETATM   30  N6  UNL     1      16.736  44.807   5.854  1.00  0.00    -0.310 N 
HETATM   31  C20 UNL     1      16.864  45.959   6.519  1.00  0.00     0.121 A 
ATOM     32  H6  UNL     1      16.264  43.954   6.155  1.00  0.00     0.186 HD
ENDBRANCH   1  26
TORSDOF 4
ENDMDL
MODEL 9
REMARK minimizedAffinity -7.20015383
REMARK  4 active torsions:
REMARK  status: ('A' for Active; 'I' for Inactive)
REMARK    1  A    between atoms: C3_4  and  C4_5 
REMARK    2  A    between atoms: C9_12  and  N3_13 
REMARK       I    between atoms: N3_13  and  C10_14 
REMARK       I    between atoms: C10_14  and  N4_16 
REMARK    3  A    between atoms: N4_16  and  C11_17 
REMARK    4  A    between atoms: C11_17  and  C12_18 
ROOT
HETATM    1  C4  UNL     1      11.630  35.235  18.129  1.00  0.00    -0.005 A 
HETATM    2  C5  UNL     1      12.394  34.242  18.726  1.00  0.00     0.101 A 
HETATM    3  N2  UNL     1      13.706  34.029  18.464  1.00  0.00    -0.363 N 
ATOM      4  H2  UNL     1      14.226  33.284  18.928  1.00  0.00     0.165 HD
HETATM    5  C6  UNL     1      14.295  34.844  17.567  1.00  0.00     0.059 A 
HETATM    6  C7  UNL     1      15.632  34.679  17.256  1.00  0.00     0.035 A 
HETATM    7  C8  UNL     1      16.262  35.511  16.329  1.00  0.00     0.051 A 
HETATM    8  C9  UNL     1      15.519  36.507  15.721  1.00  0.00     0.109 A 
HETATM    9  N5  UNL     1      14.213  36.703  16.001  1.00  0.00    -0.341 N 
ATOM     10  H5  UNL     1      13.686  37.448  15.546  1.00  0.00     0.167 HD
HETATM   11  C18 UNL     1      13.623  35.887  16.900  1.00  0.00     0.061 A 
HETATM   12  C19 UNL     1      12.280  36.060  17.206  1.00  0.00     0.045 A 
ENDROOT
BRANCH   8  13
HETATM   13  N3  UNL     1      16.027  37.408  14.787  1.00  0.00    -0.295 N 
HETATM   14  C10 UNL     1      15.854  38.765  14.732  1.00  0.00     0.322 C 
HETATM   15  O1  UNL     1      15.245  39.450  15.544  1.00  0.00    -0.247 OA
HETATM   16  N4  UNL     1      16.486  39.301  13.631  1.00  0.00    -0.339 N 
HETATM   17  H9  UNL     1      16.599  38.685  12.840  1.00  0.00     0.164 HD
HETATM   18  H8  UNL     1      16.678  36.982  14.148  1.00  0.00     0.172 HD
BRANCH  16  19
HETATM   19  C11 UNL     1      16.367  40.708  13.313  1.00  0.00     0.162 C 
BRANCH  19  20
HETATM   20  C12 UNL     1      17.457  41.505  13.983  1.00  0.00    -0.040 A 
HETATM   21  C13 UNL     1      18.799  41.343  13.606  1.00  0.00     0.009 A 
HETATM   22  C14 UNL     1      19.799  42.101  14.215  1.00  0.00     0.001 A 
HETATM   23  C15 UNL     1      19.472  43.031  15.199  1.00  0.00     0.000 A 
HETATM   24  C16 UNL     1      18.141  43.207  15.575  1.00  0.00     0.001 A 
HETATM   25  C17 UNL     1      17.138  42.450  14.969  1.00  0.00     0.009 A 
ENDBRANCH  19  20
ENDBRANCH  16  19
ENDBRANCH   8  13
BRANCH   1  26
HETATM   26  C3  UNL     1      10.227  35.427  18.444  1.00  0.00     0.009 A 
HETATM   27  C2  UNL     1       9.619  35.088  19.636  1.00  0.00     0.123 A 
HETATM   28  N1  UNL     1       8.300  35.420  19.507  1.00  0.00    -0.307 N 
HETATM   29  C1  UNL     1       7.259  35.249  20.490  1.00  0.00     0.177 C 
HETATM   30  N6  UNL     1       7.999  35.954  18.310  1.00  0.00    -0.310 N 
HETATM   31  C20 UNL     1       9.168  35.955  17.665  1.00  0.00     0.121 A 
ATOM     32  H6  UNL     1       7.092  36.280  17.975  1.00  0.00     0.186 HD
ENDBRANCH   1  26
TORSDOF 4
ENDMDL
