MODEL 1
REMARK minimizedAffinity -10.4652519
REMARK CNNscore 0.263341367
REMARK CNNaffinity 6.46598053
REMARK  8 active torsions:
REMARK  status: ('A' for Active; 'I' for Inactive)
REMARK    1  A    between atoms: O1_2  and  C2_3 
REMARK    2  A    between atoms: C2_3  and  C3_4 
REMARK       I    between atoms: C3_4  and  N1_6 
REMARK    3  A    between atoms: N1_6  and  C4_7 
REMARK    4  A    between atoms: C8_14  and  C9_15 
REMARK    5  A    between atoms: N4_26  and  C19_27 
REMARK    6  A    between atoms: C19_27  and  C20_28 
REMARK       I    between atoms: C20_28  and  N5_30 
REMARK    7  A    between atoms: N6_33  and  C23_34 
REMARK    8  A    between atoms: C26_37  and  C27_38 
ROOT
HETATM    1  C2  UNL     1      -6.238  47.366 -29.146  1.00  0.00     0.168 C 
HETATM    2  C17 UNL     1      -5.696  47.019 -30.536  1.00  0.00     0.080 C 
HETATM    3  C18 UNL     1      -6.957  47.065 -31.389  1.00  0.00     0.276 C 
HETATM    4  N4  UNL     1      -7.648  48.275 -30.919  1.00  0.00     0.100 N 
HETATM    5  C35 UNL     1      -7.252  48.475 -29.505  1.00  0.00     0.321 C 
ENDROOT
BRANCH   1   6
HETATM    6  O1  UNL     1      -6.831  46.131 -28.695  1.00  0.00    -0.373 OA
HETATM    7  C1  UNL     1      -7.905  46.212 -27.773  1.00  0.00     0.203 C 
ENDBRANCH   1   6
BRANCH   1   8
HETATM    8  C3  UNL     1      -5.219  47.930 -28.101  1.00  0.00     0.259 C 
HETATM    9  O2  UNL     1      -4.063  48.174 -28.448  1.00  0.00    -0.270 OA
HETATM   10  N1  UNL     1      -5.674  48.071 -26.801  1.00  0.00    -0.325 N 
HETATM   11  H4  UNL     1      -6.656  47.913 -26.623  1.00  0.00     0.169 HD
BRANCH  10  12
HETATM   12  C4  UNL     1      -4.935  48.471 -25.661  1.00  0.00     0.035 A 
HETATM   13  C5  UNL     1      -5.334  48.234 -24.345  1.00  0.00     0.032 A 
HETATM   14  C6  UNL     1      -4.566  48.662 -23.253  1.00  0.00     0.034 A 
HETATM   15  C7  UNL     1      -3.382  49.347 -23.532  1.00  0.00     0.060 A 
HETATM   16  N2  UNL     1      -2.431  49.885 -22.712  1.00  0.00    -0.299 N 
HETATM   17  C15 UNL     1      -2.948  49.619 -24.823  1.00  0.00     0.023 A 
HETATM   18  N3  UNL     1      -1.412  50.468 -23.358  1.00  0.00    -0.299 N 
HETATM   19  H7  UNL     1      -2.416  49.882 -21.698  1.00  0.00     0.187 HD
HETATM   20  C8  UNL     1      -1.718  50.333 -24.660  1.00  0.00     0.070 A 
ATOM     21  H3  UNL     1      -0.590  50.914 -22.953  1.00  0.00     0.187 HD
HETATM   22  C16 UNL     1      -3.733  49.162 -25.904  1.00  0.00     0.045 A 
BRANCH  20  23
HETATM   23  C9  UNL     1      -0.832  50.878 -25.690  1.00  0.00    -0.007 A 
HETATM   24  C10 UNL     1       0.484  51.263 -25.384  1.00  0.00     0.017 A 
HETATM   25  C11 UNL     1       1.319  51.769 -26.381  1.00  0.00     0.043 A 
HETATM   26  C12 UNL     1       0.846  51.879 -27.685  1.00  0.00     0.116 A 
HETATM   27  F1  UNL     1       1.658  52.347 -28.642  1.00  0.00    -0.206 F 
HETATM   28  C13 UNL     1      -0.450  51.496 -28.012  1.00  0.00     0.043 A 
HETATM   29  C14 UNL     1      -1.287  50.993 -27.014  1.00  0.00     0.017 A 
ENDBRANCH  20  23
ENDBRANCH  10  12
ENDBRANCH   1   8
BRANCH   4  30
HETATM   30  C19 UNL     1      -9.113  48.177 -31.066  1.00  0.00     0.374 C 
BRANCH  30  31
HETATM   31  C20 UNL     1      -9.666  46.754 -30.825  1.00  0.00     0.248 C 
HETATM   32  O3  UNL     1      -9.005  45.738 -31.042  1.00  0.00    -0.271 OA
HETATM   33  N5  UNL     1     -10.983  46.671 -30.356  1.00  0.00    -0.348 N 
HETATM   34  C21 UNL     1     -11.668  47.769 -29.660  1.00  0.00     0.145 C 
HETATM   35  C34 UNL     1     -11.456  45.354 -29.912  1.00  0.00     0.145 C 
HETATM   36  C22 UNL     1     -11.405  47.670 -28.140  1.00  0.00     0.143 C 
HETATM   37  N6  UNL     1     -11.813  46.336 -27.629  1.00  0.00    -0.378 N 
HETATM   38  C33 UNL     1     -11.239  45.194 -28.391  1.00  0.00     0.143 C 
BRANCH  37  39
HETATM   39  C23 UNL     1     -13.099  46.259 -27.092  1.00  0.00     0.030 A 
HETATM   40  C24 UNL     1     -13.459  46.787 -25.849  1.00  0.00     0.030 A 
HETATM   41  C25 UNL     1     -14.771  46.684 -25.355  1.00  0.00     0.017 A 
HETATM   42  C26 UNL     1     -15.793  46.062 -26.092  1.00  0.00     0.008 A 
HETATM   43  C31 UNL     1     -15.435  45.548 -27.347  1.00  0.00     0.017 A 
HETATM   44  C32 UNL     1     -14.123  45.650 -27.833  1.00  0.00     0.030 A 
BRANCH  42  45
HETATM   45  C27 UNL     1     -17.175  45.964 -25.579  1.00  0.00     0.115 A 
HETATM   46  N7  UNL     1     -17.944  44.950 -26.022  1.00  0.00    -0.352 N 
HETATM   47  C28 UNL     1     -19.194  44.877 -25.527  1.00  0.00     0.091 A 
ATOM     48  H7  UNL     1     -17.597  44.271 -26.699  1.00  0.00     0.166 HD
HETATM   49  C29 UNL     1     -19.704  45.770 -24.618  1.00  0.00     0.034 A 
HETATM   50  C30 UNL     1     -18.848  46.770 -24.229  1.00  0.00     0.091 A 
HETATM   51  N8  UNL     1     -17.588  46.891 -24.690  1.00  0.00    -0.352 N 
ATOM     52  H8  UNL     1     -16.977  47.647 -24.382  1.00  0.00     0.166 HD
ENDBRANCH  42  45
ENDBRANCH  37  39
ENDBRANCH  30  31
ENDBRANCH   4  30
TORSDOF 8
ENDMDL
MODEL 2
REMARK minimizedAffinity -9.85176659
REMARK CNNscore 0.260012954
REMARK CNNaffinity 6.69608498
REMARK  8 active torsions:
REMARK  status: ('A' for Active; 'I' for Inactive)
REMARK    1  A    between atoms: O1_2  and  C2_3 
REMARK    2  A    between atoms: C2_3  and  C3_4 
REMARK       I    between atoms: C3_4  and  N1_6 
REMARK    3  A    between atoms: N1_6  and  C4_7 
REMARK    4  A    between atoms: C8_14  and  C9_15 
REMARK    5  A    between atoms: N4_26  and  C19_27 
REMARK    6  A    between atoms: C19_27  and  C20_28 
REMARK       I    between atoms: C20_28  and  N5_30 
REMARK    7  A    between atoms: N6_33  and  C23_34 
REMARK    8  A    between atoms: C26_37  and  C27_38 
ROOT
HETATM    1  C2  UNL     1      -3.285  49.801 -19.125  1.00  0.00     0.168 C 
HETATM    2  C17 UNL     1      -3.249  49.098 -17.764  1.00  0.00     0.080 C 
HETATM    3  C18 UNL     1      -3.701  47.688 -18.123  1.00  0.00     0.276 C 
HETATM    4  N4  UNL     1      -2.961  47.392 -19.359  1.00  0.00     0.100 N 
HETATM    5  C35 UNL     1      -2.715  48.689 -20.034  1.00  0.00     0.321 C 
ENDROOT
BRANCH   1   6
HETATM    6  O1  UNL     1      -4.684  50.082 -19.325  1.00  0.00    -0.373 OA
HETATM    7  C1  UNL     1      -5.102  50.466 -20.624  1.00  0.00     0.203 C 
ENDBRANCH   1   6
BRANCH   1   8
HETATM    8  C3  UNL     1      -2.409  51.087 -19.288  1.00  0.00     0.259 C 
HETATM    9  O2  UNL     1      -2.668  52.089 -18.620  1.00  0.00    -0.270 OA
HETATM   10  N1  UNL     1      -1.405  51.040 -20.241  1.00  0.00    -0.325 N 
HETATM   11  H4  UNL     1      -1.221  50.155 -20.691  1.00  0.00     0.169 HD
BRANCH  10  12
HETATM   12  C4  UNL     1      -0.540  52.087 -20.642  1.00  0.00     0.035 A 
HETATM   13  C5  UNL     1       0.039  53.006 -19.765  1.00  0.00     0.032 A 
HETATM   14  C6  UNL     1       0.882  54.029 -20.221  1.00  0.00     0.034 A 
HETATM   15  C7  UNL     1       1.115  54.103 -21.595  1.00  0.00     0.060 A 
HETATM   16  N2  UNL     1       1.869  54.963 -22.343  1.00  0.00    -0.299 N 
HETATM   17  C15 UNL     1       0.552  53.222 -22.510  1.00  0.00     0.023 A 
HETATM   18  N3  UNL     1       1.856  54.708 -23.658  1.00  0.00    -0.299 N 
HETATM   19  H7  UNL     1       2.423  55.745 -22.012  1.00  0.00     0.187 HD
HETATM   20  C8  UNL     1       1.037  53.651 -23.787  1.00  0.00     0.070 A 
ATOM     21  H3  UNL     1       2.355  55.204 -24.395  1.00  0.00     0.187 HD
HETATM   22  C16 UNL     1      -0.279  52.191 -22.022  1.00  0.00     0.045 A 
BRANCH  20  23
HETATM   23  C9  UNL     1       0.753  53.089 -25.109  1.00  0.00    -0.007 A 
HETATM   24  C10 UNL     1       1.274  51.843 -25.494  1.00  0.00     0.017 A 
HETATM   25  C11 UNL     1       0.983  51.317 -26.754  1.00  0.00     0.043 A 
HETATM   26  C12 UNL     1       0.163  52.029 -27.625  1.00  0.00     0.116 A 
HETATM   27  F1  UNL     1      -0.127  51.511 -28.825  1.00  0.00    -0.206 F 
HETATM   28  C13 UNL     1      -0.368  53.261 -27.262  1.00  0.00     0.043 A 
HETATM   29  C14 UNL     1      -0.075  53.789 -26.003  1.00  0.00     0.017 A 
ENDBRANCH  20  23
ENDBRANCH  10  12
ENDBRANCH   1   8
BRANCH   4  30
HETATM   30  C19 UNL     1      -3.685  46.451 -20.234  1.00  0.00     0.374 C 
BRANCH  30  31
HETATM   31  C20 UNL     1      -4.574  45.448 -19.465  1.00  0.00     0.248 C 
HETATM   32  O3  UNL     1      -4.113  44.612 -18.686  1.00  0.00    -0.271 OA
HETATM   33  N5  UNL     1      -5.951  45.522 -19.710  1.00  0.00    -0.348 N 
HETATM   34  C21 UNL     1      -6.618  46.720 -20.238  1.00  0.00     0.145 C 
HETATM   35  C34 UNL     1      -6.832  44.737 -18.836  1.00  0.00     0.145 C 
HETATM   36  C22 UNL     1      -7.049  47.636 -19.070  1.00  0.00     0.143 C 
HETATM   37  N6  UNL     1      -7.906  46.889 -18.113  1.00  0.00    -0.378 N 
HETATM   38  C33 UNL     1      -7.317  45.602 -17.652  1.00  0.00     0.143 C 
BRANCH  37  39
HETATM   39  C23 UNL     1      -9.282  47.013 -18.304  1.00  0.00     0.030 A 
HETATM   40  C24 UNL     1      -9.888  47.143 -19.557  1.00  0.00     0.030 A 
HETATM   41  C25 UNL     1     -11.282  47.263 -19.694  1.00  0.00     0.017 A 
HETATM   42  C26 UNL     1     -12.140  47.241 -18.582  1.00  0.00     0.008 A 
HETATM   43  C31 UNL     1     -11.533  47.093 -17.326  1.00  0.00     0.017 A 
HETATM   44  C32 UNL     1     -10.141  46.978 -17.195  1.00  0.00     0.030 A 
BRANCH  42  45
HETATM   45  C27 UNL     1     -13.606  47.355 -18.726  1.00  0.00     0.115 A 
HETATM   46  N7  UNL     1     -14.250  48.250 -17.952  1.00  0.00    -0.352 N 
HETATM   47  C28 UNL     1     -15.584  48.343 -18.114  1.00  0.00     0.091 A 
ATOM     48  H7  UNL     1     -13.753  48.829 -17.275  1.00  0.00     0.166 HD
HETATM   49  C29 UNL     1     -16.294  47.582 -19.009  1.00  0.00     0.034 A 
HETATM   50  C30 UNL     1     -15.552  46.696 -19.750  1.00  0.00     0.091 A 
HETATM   51  N8  UNL     1     -14.217  46.562 -19.631  1.00  0.00    -0.352 N 
ATOM     52  H8  UNL     1     -13.694  45.892 -20.195  1.00  0.00     0.166 HD
ENDBRANCH  42  45
ENDBRANCH  37  39
ENDBRANCH  30  31
ENDBRANCH   4  30
TORSDOF 8
ENDMDL
MODEL 3
REMARK minimizedAffinity -10.8943138
REMARK CNNscore 0.240960136
REMARK CNNaffinity 6.86623764
REMARK  8 active torsions:
REMARK  status: ('A' for Active; 'I' for Inactive)
REMARK    1  A    between atoms: O1_2  and  C2_3 
REMARK    2  A    between atoms: C2_3  and  C3_4 
REMARK       I    between atoms: C3_4  and  N1_6 
REMARK    3  A    between atoms: N1_6  and  C4_7 
REMARK    4  A    between atoms: C8_14  and  C9_15 
REMARK    5  A    between atoms: N4_26  and  C19_27 
REMARK    6  A    between atoms: C19_27  and  C20_28 
REMARK       I    between atoms: C20_28  and  N5_30 
REMARK    7  A    between atoms: N6_33  and  C23_34 
REMARK    8  A    between atoms: C26_37  and  C27_38 
ROOT
HETATM    1  C2  UNL     1      -2.618  49.413 -18.940  1.00  0.00     0.168 C 
HETATM    2  C17 UNL     1      -1.947  48.197 -19.586  1.00  0.00     0.080 C 
HETATM    3  C18 UNL     1      -3.065  47.162 -19.552  1.00  0.00     0.276 C 
HETATM    4  N4  UNL     1      -4.252  47.922 -19.974  1.00  0.00     0.100 N 
HETATM    5  C35 UNL     1      -4.025  49.331 -19.573  1.00  0.00     0.321 C 
ENDROOT
BRANCH   1   6
HETATM    6  O1  UNL     1      -2.574  49.116 -17.530  1.00  0.00    -0.373 OA
HETATM    7  C1  UNL     1      -2.775  50.186 -16.623  1.00  0.00     0.203 C 
ENDBRANCH   1   6
BRANCH   1   8
HETATM    8  C3  UNL     1      -2.004  50.818 -19.251  1.00  0.00     0.259 C 
HETATM    9  O2  UNL     1      -2.595  51.836 -18.887  1.00  0.00    -0.270 OA
HETATM   10  N1  UNL     1      -0.830  50.836 -19.986  1.00  0.00    -0.325 N 
HETATM   11  H4  UNL     1      -0.380  49.953 -20.180  1.00  0.00     0.169 HD
BRANCH  10  12
HETATM   12  C4  UNL     1      -0.126  51.964 -20.471  1.00  0.00     0.035 A 
HETATM   13  C5  UNL     1       0.420  52.958 -19.656  1.00  0.00     0.032 A 
HETATM   14  C6  UNL     1       1.099  54.060 -20.193  1.00  0.00     0.034 A 
HETATM   15  C7  UNL     1       1.203  54.135 -21.583  1.00  0.00     0.060 A 
HETATM   16  N2  UNL     1       1.787  55.060 -22.401  1.00  0.00    -0.299 N 
HETATM   17  C15 UNL     1       0.664  53.180 -22.437  1.00  0.00     0.023 A 
HETATM   18  N3  UNL     1       1.688  54.781 -23.708  1.00  0.00    -0.299 N 
HETATM   19  H7  UNL     1       2.276  55.905 -22.128  1.00  0.00     0.187 HD
HETATM   20  C8  UNL     1       0.984  53.637 -23.756  1.00  0.00     0.070 A 
ATOM     21  H3  UNL     1       2.062  55.317 -24.491  1.00  0.00     0.187 HD
HETATM   22  C16 UNL     1      -0.000  52.072 -21.869  1.00  0.00     0.045 A 
BRANCH  20  23
HETATM   23  C9  UNL     1       0.651  53.024 -25.043  1.00  0.00    -0.007 A 
HETATM   24  C10 UNL     1       1.031  51.704 -25.337  1.00  0.00     0.017 A 
HETATM   25  C11 UNL     1       0.694  51.131 -26.565  1.00  0.00     0.043 A 
HETATM   26  C12 UNL     1      -0.031  51.871 -27.493  1.00  0.00     0.116 A 
HETATM   27  F1  UNL     1      -0.368  51.310 -28.662  1.00  0.00    -0.206 F 
HETATM   28  C13 UNL     1      -0.424  53.177 -27.220  1.00  0.00     0.043 A 
HETATM   29  C14 UNL     1      -0.085  53.751 -25.995  1.00  0.00     0.017 A 
ENDBRANCH  20  23
ENDBRANCH  10  12
ENDBRANCH   1   8
BRANCH   4  30
HETATM   30  C19 UNL     1      -5.496  47.384 -19.394  1.00  0.00     0.374 C 
BRANCH  30  31
HETATM   31  C20 UNL     1      -6.126  46.243 -20.225  1.00  0.00     0.248 C 
HETATM   32  O3  UNL     1      -6.597  45.228 -19.711  1.00  0.00    -0.271 OA
HETATM   33  N5  UNL     1      -6.121  46.412 -21.615  1.00  0.00    -0.348 N 
HETATM   34  C21 UNL     1      -6.009  47.721 -22.274  1.00  0.00     0.145 C 
HETATM   35  C34 UNL     1      -6.902  45.457 -22.411  1.00  0.00     0.145 C 
HETATM   36  C22 UNL     1      -7.417  48.327 -22.475  1.00  0.00     0.143 C 
HETATM   37  N6  UNL     1      -8.283  47.387 -23.232  1.00  0.00    -0.378 N 
HETATM   38  C33 UNL     1      -8.322  46.011 -22.666  1.00  0.00     0.143 C 
BRANCH  37  39
HETATM   39  C23 UNL     1      -8.343  47.591 -24.611  1.00  0.00     0.030 A 
HETATM   40  C24 UNL     1      -9.447  48.136 -25.273  1.00  0.00     0.030 A 
HETATM   41  C25 UNL     1      -9.455  48.324 -26.666  1.00  0.00     0.017 A 
HETATM   42  C26 UNL     1      -8.347  47.991 -27.463  1.00  0.00     0.008 A 
HETATM   43  C31 UNL     1      -7.233  47.461 -26.797  1.00  0.00     0.017 A 
HETATM   44  C32 UNL     1      -7.233  47.272 -25.407  1.00  0.00     0.030 A 
BRANCH  42  45
HETATM   45  C27 UNL     1      -8.350  48.199 -28.926  1.00  0.00     0.115 A 
HETATM   46  N7  UNL     1      -8.666  49.424 -29.390  1.00  0.00    -0.352 N 
HETATM   47  C28 UNL     1      -8.646  49.590 -30.726  1.00  0.00     0.091 A 
ATOM     48  H7  UNL     1      -8.909  50.189 -28.760  1.00  0.00     0.166 HD
HETATM   49  C29 UNL     1      -8.328  48.589 -31.611  1.00  0.00     0.034 A 
HETATM   50  C30 UNL     1      -8.024  47.376 -31.044  1.00  0.00     0.091 A 
HETATM   51  N8  UNL     1      -8.027  47.154 -29.716  1.00  0.00    -0.352 N 
ATOM     52  H8  UNL     1      -7.798  46.240 -29.326  1.00  0.00     0.166 HD
ENDBRANCH  42  45
ENDBRANCH  37  39
ENDBRANCH  30  31
ENDBRANCH   4  30
TORSDOF 8
ENDMDL
MODEL 4
REMARK minimizedAffinity -10.0739012
REMARK CNNscore 0.209198251
REMARK CNNaffinity 6.87854338
REMARK  8 active torsions:
REMARK  status: ('A' for Active; 'I' for Inactive)
REMARK    1  A    between atoms: O1_2  and  C2_3 
REMARK    2  A    between atoms: C2_3  and  C3_4 
REMARK       I    between atoms: C3_4  and  N1_6 
REMARK    3  A    between atoms: N1_6  and  C4_7 
REMARK    4  A    between atoms: C8_14  and  C9_15 
REMARK    5  A    between atoms: N4_26  and  C19_27 
REMARK    6  A    between atoms: C19_27  and  C20_28 
REMARK       I    between atoms: C20_28  and  N5_30 
REMARK    7  A    between atoms: N6_33  and  C23_34 
REMARK    8  A    between atoms: C26_37  and  C27_38 
ROOT
HETATM    1  C2  UNL     1      -2.408  49.578 -18.350  1.00  0.00     0.168 C 
HETATM    2  C17 UNL     1      -1.699  48.304 -18.822  1.00  0.00     0.080 C 
HETATM    3  C18 UNL     1      -2.763  47.241 -18.580  1.00  0.00     0.276 C 
HETATM    4  N4  UNL     1      -3.999  47.872 -19.068  1.00  0.00     0.100 N 
HETATM    5  C35 UNL     1      -3.829  49.335 -18.904  1.00  0.00     0.321 C 
ENDROOT
BRANCH   1   6
HETATM    6  O1  UNL     1      -2.303  49.512 -16.913  1.00  0.00    -0.373 OA
HETATM    7  C1  UNL     1      -3.063  50.435 -16.152  1.00  0.00     0.203 C 
ENDBRANCH   1   6
BRANCH   1   8
HETATM    8  C3  UNL     1      -1.874  50.940 -18.903  1.00  0.00     0.259 C 
HETATM    9  O2  UNL     1      -2.591  51.941 -18.854  1.00  0.00    -0.270 OA
HETATM   10  N1  UNL     1      -0.616  50.928 -19.482  1.00  0.00    -0.325 N 
HETATM   11  H4  UNL     1      -0.073  50.079 -19.414  1.00  0.00     0.169 HD
BRANCH  10  12
HETATM   12  C4  UNL     1       0.053  51.994 -20.130  1.00  0.00     0.035 A 
HETATM   13  C5  UNL     1       0.756  53.000 -19.464  1.00  0.00     0.032 A 
HETATM   14  C6  UNL     1       1.391  54.039 -20.157  1.00  0.00     0.034 A 
HETATM   15  C7  UNL     1       1.287  54.037 -21.550  1.00  0.00     0.060 A 
HETATM   16  N2  UNL     1       1.780  54.890 -22.497  1.00  0.00    -0.299 N 
HETATM   17  C15 UNL     1       0.588  53.068 -22.258  1.00  0.00     0.023 A 
HETATM   18  N3  UNL     1       1.474  54.550 -23.757  1.00  0.00    -0.299 N 
HETATM   19  H7  UNL     1       2.339  55.722 -22.348  1.00  0.00     0.187 HD
HETATM   20  C8  UNL     1       0.725  53.441 -23.634  1.00  0.00     0.070 A 
ATOM     21  H3  UNL     1       1.748  55.026 -24.615  1.00  0.00     0.187 HD
HETATM   22  C16 UNL     1      -0.028  52.024 -21.535  1.00  0.00     0.045 A 
BRANCH  20  23
HETATM   23  C9  UNL     1       0.178  52.781 -24.820  1.00  0.00    -0.007 A 
HETATM   24  C10 UNL     1      -1.175  52.925 -25.170  1.00  0.00     0.017 A 
HETATM   25  C11 UNL     1      -1.677  52.298 -26.312  1.00  0.00     0.043 A 
HETATM   26  C12 UNL     1      -0.827  51.539 -27.111  1.00  0.00     0.116 A 
HETATM   27  F1  UNL     1      -1.310  50.956 -28.216  1.00  0.00    -0.206 F 
HETATM   28  C13 UNL     1       0.517  51.390 -26.787  1.00  0.00     0.043 A 
HETATM   29  C14 UNL     1       1.019  52.013 -25.644  1.00  0.00     0.017 A 
ENDBRANCH  20  23
ENDBRANCH  10  12
ENDBRANCH   1   8
BRANCH   4  30
HETATM   30  C19 UNL     1      -5.196  47.379 -18.360  1.00  0.00     0.374 C 
BRANCH  30  31
HETATM   31  C20 UNL     1      -6.526  47.893 -18.958  1.00  0.00     0.248 C 
HETATM   32  O3  UNL     1      -7.167  48.817 -18.456  1.00  0.00    -0.271 OA
HETATM   33  N5  UNL     1      -6.984  47.237 -20.107  1.00  0.00    -0.348 N 
HETATM   34  C21 UNL     1      -6.112  46.469 -21.007  1.00  0.00     0.145 C 
HETATM   35  C34 UNL     1      -8.119  47.840 -20.817  1.00  0.00     0.145 C 
HETATM   36  C22 UNL     1      -5.535  47.402 -22.096  1.00  0.00     0.143 C 
HETATM   37  N6  UNL     1      -6.632  48.090 -22.825  1.00  0.00    -0.378 N 
HETATM   38  C33 UNL     1      -7.611  48.774 -21.938  1.00  0.00     0.143 C 
BRANCH  37  39
HETATM   39  C23 UNL     1      -7.049  47.483 -24.010  1.00  0.00     0.030 A 
HETATM   40  C24 UNL     1      -6.669  47.916 -25.284  1.00  0.00     0.030 A 
HETATM   41  C25 UNL     1      -7.115  47.266 -26.448  1.00  0.00     0.017 A 
HETATM   42  C26 UNL     1      -7.951  46.139 -26.392  1.00  0.00     0.008 A 
HETATM   43  C31 UNL     1      -8.317  45.694 -25.113  1.00  0.00     0.017 A 
HETATM   44  C32 UNL     1      -7.872  46.349 -23.956  1.00  0.00     0.030 A 
BRANCH  42  45
HETATM   45  C27 UNL     1      -8.411  45.448 -27.614  1.00  0.00     0.115 A 
HETATM   46  N7  UNL     1      -9.166  44.341 -27.470  1.00  0.00    -0.352 N 
HETATM   47  C28 UNL     1      -9.583  43.740 -28.600  1.00  0.00     0.091 A 
ATOM     48  H7  UNL     1      -9.410  43.976 -26.549  1.00  0.00     0.166 HD
HETATM   49  C29 UNL     1      -9.277  44.194 -29.859  1.00  0.00     0.034 A 
HETATM   50  C30 UNL     1      -8.500  45.325 -29.905  1.00  0.00     0.091 A 
HETATM   51  N8  UNL     1      -8.056  45.968 -28.808  1.00  0.00    -0.352 N 
ATOM     52  H8  UNL     1      -7.478  46.806 -28.876  1.00  0.00     0.166 HD
ENDBRANCH  42  45
ENDBRANCH  37  39
ENDBRANCH  30  31
ENDBRANCH   4  30
TORSDOF 8
ENDMDL
MODEL 5
REMARK minimizedAffinity -9.99039745
REMARK CNNscore 0.207616359
REMARK CNNaffinity 6.64215899
REMARK  8 active torsions:
REMARK  status: ('A' for Active; 'I' for Inactive)
REMARK    1  A    between atoms: O1_2  and  C2_3 
REMARK    2  A    between atoms: C2_3  and  C3_4 
REMARK       I    between atoms: C3_4  and  N1_6 
REMARK    3  A    between atoms: N1_6  and  C4_7 
REMARK    4  A    between atoms: C8_14  and  C9_15 
REMARK    5  A    between atoms: N4_26  and  C19_27 
REMARK    6  A    between atoms: C19_27  and  C20_28 
REMARK       I    between atoms: C20_28  and  N5_30 
REMARK    7  A    between atoms: N6_33  and  C23_34 
REMARK    8  A    between atoms: C26_37  and  C27_38 
ROOT
HETATM    1  C2  UNL     1      -1.930  50.145 -18.527  1.00  0.00     0.168 C 
HETATM    2  C17 UNL     1      -3.375  49.647 -18.408  1.00  0.00     0.080 C 
HETATM    3  C18 UNL     1      -3.399  49.076 -16.996  1.00  0.00     0.276 C 
HETATM    4  N4  UNL     1      -2.678  50.085 -16.203  1.00  0.00     0.100 N 
HETATM    5  C35 UNL     1      -1.722  50.749 -17.120  1.00  0.00     0.321 C 
ENDROOT
BRANCH   1   6
HETATM    6  O1  UNL     1      -1.177  48.943 -18.783  1.00  0.00    -0.373 OA
HETATM    7  C1  UNL     1      -1.508  48.189 -19.937  1.00  0.00     0.203 C 
ENDBRANCH   1   6
BRANCH   1   8
HETATM    8  C3  UNL     1      -1.639  51.246 -19.599  1.00  0.00     0.259 C 
HETATM    9  O2  UNL     1      -2.576  51.767 -20.208  1.00  0.00    -0.270 OA
HETATM   10  N1  UNL     1      -0.309  51.538 -19.847  1.00  0.00    -0.325 N 
HETATM   11  H4  UNL     1       0.388  51.113 -19.252  1.00  0.00     0.169 HD
BRANCH  10  12
HETATM   12  C4  UNL     1       0.220  52.420 -20.821  1.00  0.00     0.035 A 
HETATM   13  C5  UNL     1       1.152  53.423 -20.548  1.00  0.00     0.032 A 
HETATM   14  C6  UNL     1       1.634  54.274 -21.551  1.00  0.00     0.034 A 
HETATM   15  C7  UNL     1       1.138  54.088 -22.843  1.00  0.00     0.060 A 
HETATM   16  N2  UNL     1       1.398  54.737 -24.016  1.00  0.00    -0.299 N 
HETATM   17  C15 UNL     1       0.200  53.115 -23.163  1.00  0.00     0.023 A 
HETATM   18  N3  UNL     1       0.723  54.260 -25.071  1.00  0.00    -0.299 N 
HETATM   19  H7  UNL     1       2.033  55.513 -24.165  1.00  0.00     0.187 HD
HETATM   20  C8  UNL     1      -0.035  53.272 -24.567  1.00  0.00     0.070 A 
ATOM     21  H3  UNL     1       0.773  54.576 -26.039  1.00  0.00     0.187 HD
HETATM   22  C16 UNL     1      -0.256  52.260 -22.136  1.00  0.00     0.045 A 
BRANCH  20  23
HETATM   23  C9  UNL     1      -0.942  52.517 -25.433  1.00  0.00    -0.007 A 
HETATM   24  C10 UNL     1      -0.470  51.870 -26.587  1.00  0.00     0.017 A 
HETATM   25  C11 UNL     1      -1.347  51.144 -27.395  1.00  0.00     0.043 A 
HETATM   26  C12 UNL     1      -2.691  51.054 -27.045  1.00  0.00     0.116 A 
HETATM   27  F1  UNL     1      -3.524  50.340 -27.814  1.00  0.00    -0.206 F 
HETATM   28  C13 UNL     1      -3.178  51.681 -25.904  1.00  0.00     0.043 A 
HETATM   29  C14 UNL     1      -2.303  52.409 -25.097  1.00  0.00     0.017 A 
ENDBRANCH  20  23
ENDBRANCH  10  12
ENDBRANCH   1   8
BRANCH   4  30
HETATM   30  C19 UNL     1      -1.995  49.495 -15.036  1.00  0.00     0.374 C 
BRANCH  30  31
HETATM   31  C20 UNL     1      -2.632  49.885 -13.683  1.00  0.00     0.248 C 
HETATM   32  O3  UNL     1      -3.503  49.206 -13.138  1.00  0.00    -0.271 OA
HETATM   33  N5  UNL     1      -2.176  51.074 -13.101  1.00  0.00    -0.348 N 
HETATM   34  C21 UNL     1      -0.879  51.689 -13.418  1.00  0.00     0.145 C 
HETATM   35  C34 UNL     1      -2.598  51.353 -11.723  1.00  0.00     0.145 C 
HETATM   36  C22 UNL     1       0.210  51.126 -12.476  1.00  0.00     0.143 C 
HETATM   37  N6  UNL     1      -0.177  51.327 -11.056  1.00  0.00    -0.378 N 
HETATM   38  C33 UNL     1      -1.540  50.831 -10.725  1.00  0.00     0.143 C 
BRANCH  37  39
HETATM   39  C23 UNL     1       0.331  52.474 -10.444  1.00  0.00     0.030 A 
HETATM   40  C24 UNL     1      -0.231  53.746 -10.582  1.00  0.00     0.030 A 
HETATM   41  C25 UNL     1       0.319  54.870  -9.940  1.00  0.00     0.017 A 
HETATM   42  C26 UNL     1       1.452  54.770  -9.114  1.00  0.00     0.008 A 
HETATM   43  C31 UNL     1       2.004  53.489  -8.962  1.00  0.00     0.017 A 
HETATM   44  C32 UNL     1       1.453  52.373  -9.608  1.00  0.00     0.030 A 
BRANCH  42  45
HETATM   45  C27 UNL     1       2.023  55.947  -8.430  1.00  0.00     0.115 A 
HETATM   46  N7  UNL     1       1.312  56.506  -7.431  1.00  0.00    -0.352 N 
HETATM   47  C28 UNL     1       1.863  57.569  -6.815  1.00  0.00     0.091 A 
ATOM     48  H7  UNL     1       0.399  56.143  -7.155  1.00  0.00     0.166 HD
HETATM   49  C29 UNL     1       3.085  58.094  -7.155  1.00  0.00     0.034 A 
HETATM   50  C30 UNL     1       3.733  57.459  -8.186  1.00  0.00     0.091 A 
HETATM   51  N8  UNL     1       3.230  56.393  -8.837  1.00  0.00    -0.352 N 
ATOM     52  H8  UNL     1       3.736  55.945  -9.601  1.00  0.00     0.166 HD
ENDBRANCH  42  45
ENDBRANCH  37  39
ENDBRANCH  30  31
ENDBRANCH   4  30
TORSDOF 8
ENDMDL
MODEL 6
REMARK minimizedAffinity -9.67876911
REMARK CNNscore 0.204931661
REMARK CNNaffinity 6.44171
REMARK  8 active torsions:
REMARK  status: ('A' for Active; 'I' for Inactive)
REMARK    1  A    between atoms: O1_2  and  C2_3 
REMARK    2  A    between atoms: C2_3  and  C3_4 
REMARK       I    between atoms: C3_4  and  N1_6 
REMARK    3  A    between atoms: N1_6  and  C4_7 
REMARK    4  A    between atoms: C8_14  and  C9_15 
REMARK    5  A    between atoms: N4_26  and  C19_27 
REMARK    6  A    between atoms: C19_27  and  C20_28 
REMARK       I    between atoms: C20_28  and  N5_30 
REMARK    7  A    between atoms: N6_33  and  C23_34 
REMARK    8  A    between atoms: C26_37  and  C27_38 
ROOT
HETATM    1  C2  UNL     1      -1.106  50.373 -18.060  1.00  0.00     0.168 C 
HETATM    2  C17 UNL     1      -2.236  50.547 -17.040  1.00  0.00     0.080 C 
HETATM    3  C18 UNL     1      -1.679  49.824 -15.821  1.00  0.00     0.276 C 
HETATM    4  N4  UNL     1      -0.278  50.271 -15.765  1.00  0.00     0.100 N 
HETATM    5  C35 UNL     1       0.128  50.587 -17.155  1.00  0.00     0.321 C 
ENDROOT
BRANCH   1   6
HETATM    6  O1  UNL     1      -1.278  49.021 -18.530  1.00  0.00    -0.373 OA
HETATM    7  C1  UNL     1      -1.527  48.830 -19.913  1.00  0.00     0.203 C 
ENDBRANCH   1   6
BRANCH   1   8
HETATM    8  C3  UNL     1      -1.048  51.392 -19.245  1.00  0.00     0.259 C 
HETATM    9  O2  UNL     1      -2.095  51.835 -19.720  1.00  0.00    -0.270 OA
HETATM   10  N1  UNL     1       0.208  51.702 -19.740  1.00  0.00    -0.325 N 
HETATM   11  H4  UNL     1       1.012  51.347 -19.244  1.00  0.00     0.169 HD
BRANCH  10  12
HETATM   12  C4  UNL     1       0.525  52.517 -20.853  1.00  0.00     0.035 A 
HETATM   13  C5  UNL     1       1.272  53.694 -20.776  1.00  0.00     0.032 A 
HETATM   14  C6  UNL     1       1.547  54.469 -21.911  1.00  0.00     0.034 A 
HETATM   15  C7  UNL     1       1.037  54.022 -23.131  1.00  0.00     0.060 A 
HETATM   16  N2  UNL     1       1.124  54.536 -24.394  1.00  0.00    -0.299 N 
HETATM   17  C15 UNL     1       0.277  52.866 -23.259  1.00  0.00     0.023 A 
HETATM   18  N3  UNL     1       0.500  53.807 -25.330  1.00  0.00    -0.299 N 
HETATM   19  H7  UNL     1       1.601  55.382 -24.684  1.00  0.00     0.187 HD
HETATM   20  C8  UNL     1      -0.044  52.783 -24.652  1.00  0.00     0.070 A 
ATOM     21  H3  UNL     1       0.450  53.990 -26.332  1.00  0.00     0.187 HD
HETATM   22  C16 UNL     1       0.029  52.096 -22.102  1.00  0.00     0.045 A 
BRANCH  20  23
HETATM   23  C9  UNL     1      -0.837  51.770 -25.350  1.00  0.00    -0.007 A 
HETATM   24  C10 UNL     1      -0.855  51.704 -26.753  1.00  0.00     0.017 A 
HETATM   25  C11 UNL     1      -1.607  50.723 -27.402  1.00  0.00     0.043 A 
HETATM   26  C12 UNL     1      -2.330  49.801 -26.651  1.00  0.00     0.116 A 
HETATM   27  F1  UNL     1      -3.035  48.851 -27.279  1.00  0.00    -0.206 F 
HETATM   28  C13 UNL     1      -2.321  49.843 -25.262  1.00  0.00     0.043 A 
HETATM   29  C14 UNL     1      -1.572  50.826 -24.612  1.00  0.00     0.017 A 
ENDBRANCH  20  23
ENDBRANCH  10  12
ENDBRANCH   1   8
BRANCH   4  30
HETATM   30  C19 UNL     1       0.608  49.261 -15.155  1.00  0.00     0.374 C 
BRANCH  30  31
HETATM   31  C20 UNL     1       0.446  49.140 -13.622  1.00  0.00     0.248 C 
HETATM   32  O3  UNL     1       0.065  48.105 -13.074  1.00  0.00    -0.271 OA
HETATM   33  N5  UNL     1       0.743  50.285 -12.873  1.00  0.00    -0.348 N 
HETATM   34  C21 UNL     1       1.603  51.373 -13.359  1.00  0.00     0.145 C 
HETATM   35  C34 UNL     1       0.810  50.135 -11.414  1.00  0.00     0.145 C 
HETATM   36  C22 UNL     1       3.075  51.079 -12.991  1.00  0.00     0.143 C 
HETATM   37  N6  UNL     1       3.211  50.863 -11.527  1.00  0.00    -0.378 N 
HETATM   38  C33 UNL     1       2.265  49.857 -10.974  1.00  0.00     0.143 C 
BRANCH  37  39
HETATM   39  C23 UNL     1       3.577  51.982 -10.779  1.00  0.00     0.030 A 
HETATM   40  C24 UNL     1       3.018  53.252 -10.949  1.00  0.00     0.030 A 
HETATM   41  C25 UNL     1       3.420  54.348 -10.166  1.00  0.00     0.017 A 
HETATM   42  C26 UNL     1       4.393  54.220  -9.160  1.00  0.00     0.008 A 
HETATM   43  C31 UNL     1       4.940  52.942  -8.977  1.00  0.00     0.017 A 
HETATM   44  C32 UNL     1       4.537  51.854  -9.765  1.00  0.00     0.030 A 
BRANCH  42  45
HETATM   45  C27 UNL     1       4.808  55.368  -8.328  1.00  0.00     0.115 A 
HETATM   46  N7  UNL     1       3.955  56.405  -8.209  1.00  0.00    -0.352 N 
HETATM   47  C28 UNL     1       4.353  57.431  -7.432  1.00  0.00     0.091 A 
ATOM     48  H7  UNL     1       3.052  56.413  -8.684  1.00  0.00     0.166 HD
HETATM   49  C29 UNL     1       5.559  57.465  -6.778  1.00  0.00     0.034 A 
HETATM   50  C30 UNL     1       6.361  56.366  -6.963  1.00  0.00     0.091 A 
HETATM   51  N8  UNL     1       6.015  55.312  -7.726  1.00  0.00    -0.352 N 
ATOM     52  H8  UNL     1       6.634  54.510  -7.845  1.00  0.00     0.166 HD
ENDBRANCH  42  45
ENDBRANCH  37  39
ENDBRANCH  30  31
ENDBRANCH   4  30
TORSDOF 8
ENDMDL
MODEL 7
REMARK minimizedAffinity -10.6222782
REMARK CNNscore 0.198936731
REMARK CNNaffinity 6.73380804
REMARK  8 active torsions:
REMARK  status: ('A' for Active; 'I' for Inactive)
REMARK    1  A    between atoms: O1_2  and  C2_3 
REMARK    2  A    between atoms: C2_3  and  C3_4 
REMARK       I    between atoms: C3_4  and  N1_6 
REMARK    3  A    between atoms: N1_6  and  C4_7 
REMARK    4  A    between atoms: C8_14  and  C9_15 
REMARK    5  A    between atoms: N4_26  and  C19_27 
REMARK    6  A    between atoms: C19_27  and  C20_28 
REMARK       I    between atoms: C20_28  and  N5_30 
REMARK    7  A    between atoms: N6_33  and  C23_34 
REMARK    8  A    between atoms: C26_37  and  C27_38 
ROOT
HETATM    1  C2  UNL     1      -0.522  50.870 -17.448  1.00  0.00     0.168 C 
HETATM    2  C17 UNL     1      -0.012  49.548 -16.865  1.00  0.00     0.080 C 
HETATM    3  C18 UNL     1      -0.844  49.418 -15.597  1.00  0.00     0.276 C 
HETATM    4  N4  UNL     1      -2.197  49.801 -16.030  1.00  0.00     0.100 N 
HETATM    5  C35 UNL     1      -2.035  50.741 -17.165  1.00  0.00     0.321 C 
ENDROOT
BRANCH   1   6
HETATM    6  O1  UNL     1       0.154  51.871 -16.660  1.00  0.00    -0.373 OA
HETATM    7  C1  UNL     1       1.569  51.817 -16.596  1.00  0.00     0.203 C 
ENDBRANCH   1   6
BRANCH   1   8
HETATM    8  C3  UNL     1      -0.311  51.105 -18.980  1.00  0.00     0.259 C 
HETATM    9  O2  UNL     1      -0.396  50.155 -19.760  1.00  0.00    -0.270 OA
HETATM   10  N1  UNL     1       0.023  52.390 -19.374  1.00  0.00    -0.325 N 
HETATM   11  H4  UNL     1       0.001  53.119 -18.675  1.00  0.00     0.169 HD
BRANCH  10  12
HETATM   12  C4  UNL     1       0.350  52.843 -20.675  1.00  0.00     0.035 A 
HETATM   13  C5  UNL     1       1.173  53.938 -20.941  1.00  0.00     0.032 A 
HETATM   14  C6  UNL     1       1.455  54.347 -22.251  1.00  0.00     0.034 A 
HETATM   15  C7  UNL     1       0.870  53.620 -23.290  1.00  0.00     0.060 A 
HETATM   16  N2  UNL     1       0.942  53.759 -24.647  1.00  0.00    -0.299 N 
HETATM   17  C15 UNL     1       0.033  52.532 -23.078  1.00  0.00     0.023 A 
HETATM   18  N3  UNL     1       0.237  52.848 -25.332  1.00  0.00    -0.299 N 
HETATM   19  H7  UNL     1       1.462  54.455 -25.170  1.00  0.00     0.187 HD
HETATM   20  C8  UNL     1      -0.346  52.093 -24.387  1.00  0.00     0.070 A 
ATOM     21  H3  UNL     1       0.161  52.751 -26.344  1.00  0.00     0.187 HD
HETATM   22  C16 UNL     1      -0.220  52.131 -21.748  1.00  0.00     0.045 A 
BRANCH  20  23
HETATM   23  C9  UNL     1      -1.229  50.987 -24.761  1.00  0.00    -0.007 A 
HETATM   24  C10 UNL     1      -2.023  50.338 -23.802  1.00  0.00     0.017 A 
HETATM   25  C11 UNL     1      -2.870  49.293 -24.179  1.00  0.00     0.043 A 
HETATM   26  C12 UNL     1      -2.932  48.906 -25.514  1.00  0.00     0.116 A 
HETATM   27  F1  UNL     1      -3.760  47.916 -25.874  1.00  0.00    -0.206 F 
HETATM   28  C13 UNL     1      -2.160  49.540 -26.481  1.00  0.00     0.043 A 
HETATM   29  C14 UNL     1      -1.312  50.582 -26.104  1.00  0.00     0.017 A 
ENDBRANCH  20  23
ENDBRANCH  10  12
ENDBRANCH   1   8
BRANCH   4  30
HETATM   30  C19 UNL     1      -2.988  50.397 -14.937  1.00  0.00     0.374 C 
BRANCH  30  31
HETATM   31  C20 UNL     1      -2.551  49.931 -13.530  1.00  0.00     0.248 C 
HETATM   32  O3  UNL     1      -2.542  48.746 -13.195  1.00  0.00    -0.271 OA
HETATM   33  N5  UNL     1      -2.175  50.936 -12.631  1.00  0.00    -0.348 N 
HETATM   34  C21 UNL     1      -1.730  52.274 -13.047  1.00  0.00     0.145 C 
HETATM   35  C34 UNL     1      -1.551  50.513 -11.371  1.00  0.00     0.145 C 
HETATM   36  C22 UNL     1      -0.200  52.270 -13.265  1.00  0.00     0.143 C 
HETATM   37  N6  UNL     1       0.498  51.799 -12.041  1.00  0.00    -0.378 N 
HETATM   38  C33 UNL     1      -0.013  50.505 -11.514  1.00  0.00     0.143 C 
BRANCH  37  39
HETATM   39  C23 UNL     1       0.942  52.796 -11.172  1.00  0.00     0.030 A 
HETATM   40  C24 UNL     1       2.057  52.668 -10.340  1.00  0.00     0.030 A 
HETATM   41  C25 UNL     1       2.464  53.706  -9.484  1.00  0.00     0.017 A 
HETATM   42  C26 UNL     1       1.781  54.933  -9.432  1.00  0.00     0.008 A 
HETATM   43  C31 UNL     1       0.673  55.068 -10.281  1.00  0.00     0.017 A 
HETATM   44  C32 UNL     1       0.270  54.027 -11.130  1.00  0.00     0.030 A 
BRANCH  42  45
HETATM   45  C27 UNL     1       2.215  56.029  -8.542  1.00  0.00     0.115 A 
HETATM   46  N7  UNL     1       3.435  56.566  -8.747  1.00  0.00    -0.352 N 
HETATM   47  C28 UNL     1       3.798  57.573  -7.930  1.00  0.00     0.091 A 
ATOM     48  H7  UNL     1       4.052  56.225  -9.484  1.00  0.00     0.166 HD
HETATM   49  C29 UNL     1       3.001  58.060  -6.924  1.00  0.00     0.034 A 
HETATM   50  C30 UNL     1       1.779  57.448  -6.791  1.00  0.00     0.091 A 
HETATM   51  N8  UNL     1       1.363  56.437  -7.578  1.00  0.00    -0.352 N 
ATOM     52  H8  UNL     1       0.450  56.002  -7.452  1.00  0.00     0.166 HD
ENDBRANCH  42  45
ENDBRANCH  37  39
ENDBRANCH  30  31
ENDBRANCH   4  30
TORSDOF 8
ENDMDL
MODEL 8
REMARK minimizedAffinity -10.637702
REMARK CNNscore 0.18911311
REMARK CNNaffinity 7.25269079
REMARK  8 active torsions:
REMARK  status: ('A' for Active; 'I' for Inactive)
REMARK    1  A    between atoms: O1_2  and  C2_3 
REMARK    2  A    between atoms: C2_3  and  C3_4 
REMARK       I    between atoms: C3_4  and  N1_6 
REMARK    3  A    between atoms: N1_6  and  C4_7 
REMARK    4  A    between atoms: C8_14  and  C9_15 
REMARK    5  A    between atoms: N4_26  and  C19_27 
REMARK    6  A    between atoms: C19_27  and  C20_28 
REMARK       I    between atoms: C20_28  and  N5_30 
REMARK    7  A    between atoms: N6_33  and  C23_34 
REMARK    8  A    between atoms: C26_37  and  C27_38 
ROOT
HETATM    1  C2  UNL     1      -1.544  50.630 -25.898  1.00  0.00     0.168 C 
HETATM    2  C17 UNL     1      -2.243  51.750 -26.675  1.00  0.00     0.080 C 
HETATM    3  C18 UNL     1      -3.038  50.968 -27.713  1.00  0.00     0.276 C 
HETATM    4  N4  UNL     1      -3.610  49.853 -26.941  1.00  0.00     0.100 N 
HETATM    5  C35 UNL     1      -2.681  49.587 -25.817  1.00  0.00     0.321 C 
ENDROOT
BRANCH   1   6
HETATM    6  O1  UNL     1      -0.446  50.258 -26.754  1.00  0.00    -0.373 OA
HETATM    7  C1  UNL     1       0.282  51.298 -27.385  1.00  0.00     0.203 C 
ENDBRANCH   1   6
BRANCH   1   8
HETATM    8  C3  UNL     1      -1.057  50.962 -24.448  1.00  0.00     0.259 C 
HETATM    9  O2  UNL     1      -1.420  50.255 -23.507  1.00  0.00    -0.270 OA
HETATM   10  N1  UNL     1      -0.273  52.093 -24.299  1.00  0.00    -0.325 N 
HETATM   11  H4  UNL     1       0.033  52.571 -25.134  1.00  0.00     0.169 HD
BRANCH  10  12
HETATM   12  C4  UNL     1       0.218  52.657 -23.096  1.00  0.00     0.035 A 
HETATM   13  C5  UNL     1       1.003  53.809 -23.032  1.00  0.00     0.032 A 
HETATM   14  C6  UNL     1       1.470  54.317 -21.812  1.00  0.00     0.034 A 
HETATM   15  C7  UNL     1       1.125  53.618 -20.653  1.00  0.00     0.060 A 
HETATM   16  N2  UNL     1       1.415  53.845 -19.338  1.00  0.00    -0.299 N 
HETATM   17  C15 UNL     1       0.358  52.460 -20.664  1.00  0.00     0.023 A 
HETATM   18  N3  UNL     1       0.891  52.944 -18.495  1.00  0.00    -0.299 N 
HETATM   19  H7  UNL     1       1.963  54.603 -18.948  1.00  0.00     0.187 HD
HETATM   20  C8  UNL     1       0.251  52.071 -19.291  1.00  0.00     0.070 A 
ATOM     21  H3  UNL     1       0.962  52.926 -17.478  1.00  0.00     0.187 HD
HETATM   22  C16 UNL     1      -0.112  51.980 -21.906  1.00  0.00     0.045 A 
BRANCH  20  23
HETATM   23  C9  UNL     1      -0.438  50.914 -18.718  1.00  0.00    -0.007 A 
HETATM   24  C10 UNL     1      -1.604  50.399 -19.309  1.00  0.00     0.017 A 
HETATM   25  C11 UNL     1      -2.241  49.286 -18.757  1.00  0.00     0.043 A 
HETATM   26  C12 UNL     1      -1.708  48.680 -17.623  1.00  0.00     0.116 A 
HETATM   27  F1  UNL     1      -2.313  47.602 -17.109  1.00  0.00    -0.206 F 
HETATM   28  C13 UNL     1      -0.551  49.168 -17.027  1.00  0.00     0.043 A 
HETATM   29  C14 UNL     1       0.084  50.283 -17.576  1.00  0.00     0.017 A 
ENDBRANCH  20  23
ENDBRANCH  10  12
ENDBRANCH   1   8
BRANCH   4  30
HETATM   30  C19 UNL     1      -3.822  48.650 -27.769  1.00  0.00     0.374 C 
BRANCH  30  31
HETATM   31  C20 UNL     1      -5.209  47.998 -27.572  1.00  0.00     0.248 C 
HETATM   32  O3  UNL     1      -5.815  48.035 -26.500  1.00  0.00    -0.271 OA
HETATM   33  N5  UNL     1      -5.749  47.338 -28.683  1.00  0.00    -0.348 N 
HETATM   34  C21 UNL     1      -5.343  47.615 -30.068  1.00  0.00     0.145 C 
HETATM   35  C34 UNL     1      -7.148  46.903 -28.592  1.00  0.00     0.145 C 
HETATM   36  C22 UNL     1      -6.219  48.746 -30.653  1.00  0.00     0.143 C 
HETATM   37  N6  UNL     1      -7.659  48.395 -30.545  1.00  0.00    -0.378 N 
HETATM   38  C33 UNL     1      -8.082  47.985 -29.179  1.00  0.00     0.143 C 
BRANCH  37  39
HETATM   39  C23 UNL     1      -8.226  47.802 -31.674  1.00  0.00     0.030 A 
HETATM   40  C24 UNL     1      -7.632  47.804 -32.939  1.00  0.00     0.030 A 
HETATM   41  C25 UNL     1      -8.244  47.188 -34.044  1.00  0.00     0.017 A 
HETATM   42  C26 UNL     1      -9.477  46.523 -33.931  1.00  0.00     0.008 A 
HETATM   43  C31 UNL     1     -10.064  46.506 -32.658  1.00  0.00     0.017 A 
HETATM   44  C32 UNL     1      -9.450  47.126 -31.560  1.00  0.00     0.030 A 
BRANCH  42  45
HETATM   45  C27 UNL     1     -10.116  45.865 -35.089  1.00  0.00     0.115 A 
HETATM   46  N7  UNL     1     -11.439  45.615 -35.025  1.00  0.00    -0.352 N 
HETATM   47  C28 UNL     1     -11.998  45.028 -36.100  1.00  0.00     0.091 A 
ATOM     48  H7  UNL     1     -11.990  45.859 -34.202  1.00  0.00     0.166 HD
HETATM   49  C29 UNL     1     -11.295  44.679 -37.226  1.00  0.00     0.034 A 
HETATM   50  C30 UNL     1      -9.953  44.970 -37.197  1.00  0.00     0.091 A 
HETATM   51  N8  UNL     1      -9.341  45.557 -36.150  1.00  0.00    -0.352 N 
ATOM     52  H8  UNL     1      -8.342  45.758 -36.159  1.00  0.00     0.166 HD
ENDBRANCH  42  45
ENDBRANCH  37  39
ENDBRANCH  30  31
ENDBRANCH   4  30
TORSDOF 8
ENDMDL
MODEL 9
REMARK minimizedAffinity -10.2351322
REMARK CNNscore 0.170121506
REMARK CNNaffinity 6.7781105
REMARK  8 active torsions:
REMARK  status: ('A' for Active; 'I' for Inactive)
REMARK    1  A    between atoms: O1_2  and  C2_3 
REMARK    2  A    between atoms: C2_3  and  C3_4 
REMARK       I    between atoms: C3_4  and  N1_6 
REMARK    3  A    between atoms: N1_6  and  C4_7 
REMARK    4  A    between atoms: C8_14  and  C9_15 
REMARK    5  A    between atoms: N4_26  and  C19_27 
REMARK    6  A    between atoms: C19_27  and  C20_28 
REMARK       I    between atoms: C20_28  and  N5_30 
REMARK    7  A    between atoms: N6_33  and  C23_34 
REMARK    8  A    between atoms: C26_37  and  C27_38 
ROOT
HETATM    1  C2  UNL     1      -3.945  49.462 -20.247  1.00  0.00     0.168 C 
HETATM    2  C17 UNL     1      -3.313  48.183 -20.804  1.00  0.00     0.080 C 
HETATM    3  C18 UNL     1      -4.512  47.249 -20.896  1.00  0.00     0.276 C 
HETATM    4  N4  UNL     1      -5.572  48.102 -21.457  1.00  0.00     0.100 N 
HETATM    5  C35 UNL     1      -5.271  49.492 -21.039  1.00  0.00     0.321 C 
ENDROOT
BRANCH   1   6
HETATM    6  O1  UNL     1      -4.092  49.183 -18.840  1.00  0.00    -0.373 OA
HETATM    7  C1  UNL     1      -3.384  50.004 -17.927  1.00  0.00     0.203 C 
ENDBRANCH   1   6
BRANCH   1   8
HETATM    8  C3  UNL     1      -3.179  50.804 -20.491  1.00  0.00     0.259 C 
HETATM    9  O2  UNL     1      -3.813  51.833 -20.732  1.00  0.00    -0.270 OA
HETATM   10  N1  UNL     1      -1.796  50.743 -20.476  1.00  0.00    -0.325 N 
HETATM   11  H4  UNL     1      -1.363  49.873 -20.200  1.00  0.00     0.169 HD
BRANCH  10  12
HETATM   12  C4  UNL     1      -0.878  51.784 -20.754  1.00  0.00     0.035 A 
HETATM   13  C5  UNL     1      -0.324  52.622 -19.784  1.00  0.00     0.032 A 
HETATM   14  C6  UNL     1       0.574  53.645 -20.118  1.00  0.00     0.034 A 
HETATM   15  C7  UNL     1       0.891  53.804 -21.468  1.00  0.00     0.060 A 
HETATM   16  N2  UNL     1       1.713  54.686 -22.110  1.00  0.00    -0.299 N 
HETATM   17  C15 UNL     1       0.357  53.006 -22.473  1.00  0.00     0.023 A 
HETATM   18  N3  UNL     1       1.770  54.521 -23.438  1.00  0.00    -0.299 N 
HETATM   19  H7  UNL     1       2.269  55.425 -21.694  1.00  0.00     0.187 HD
HETATM   20  C8  UNL     1       0.929  53.504 -23.687  1.00  0.00     0.070 A 
ATOM     21  H3  UNL     1       2.326  55.050 -24.109  1.00  0.00     0.187 HD
HETATM   22  C16 UNL     1      -0.532  51.973 -22.106  1.00  0.00     0.045 A 
BRANCH  20  23
HETATM   23  C9  UNL     1       0.708  53.043 -25.059  1.00  0.00    -0.007 A 
HETATM   24  C10 UNL     1      -0.008  53.827 -25.980  1.00  0.00     0.017 A 
HETATM   25  C11 UNL     1      -0.198  53.377 -27.288  1.00  0.00     0.043 A 
HETATM   26  C12 UNL     1       0.336  52.154 -27.680  1.00  0.00     0.116 A 
HETATM   27  F1  UNL     1       0.166  51.736 -28.942  1.00  0.00    -0.206 F 
HETATM   28  C13 UNL     1       1.054  51.366 -26.787  1.00  0.00     0.043 A 
HETATM   29  C14 UNL     1       1.241  51.812 -25.479  1.00  0.00     0.017 A 
ENDBRANCH  20  23
ENDBRANCH  10  12
ENDBRANCH   1   8
BRANCH   4  30
HETATM   30  C19 UNL     1      -6.917  47.681 -21.024  1.00  0.00     0.374 C 
BRANCH  30  31
HETATM   31  C20 UNL     1      -7.541  46.583 -21.915  1.00  0.00     0.248 C 
HETATM   32  O3  UNL     1      -8.370  45.776 -21.493  1.00  0.00    -0.271 OA
HETATM   33  N5  UNL     1      -7.101  46.536 -23.243  1.00  0.00    -0.348 N 
HETATM   34  C21 UNL     1      -6.493  47.679 -23.938  1.00  0.00     0.145 C 
HETATM   35  C34 UNL     1      -7.830  45.653 -24.162  1.00  0.00     0.145 C 
HETATM   36  C22 UNL     1      -7.595  48.525 -24.616  1.00  0.00     0.143 C 
HETATM   37  N6  UNL     1      -8.411  47.680 -25.526  1.00  0.00    -0.378 N 
HETATM   38  C33 UNL     1      -8.940  46.443 -24.891  1.00  0.00     0.143 C 
BRANCH  37  39
HETATM   39  C23 UNL     1      -8.025  47.683 -26.867  1.00  0.00     0.030 A 
HETATM   40  C24 UNL     1      -6.748  47.328 -27.312  1.00  0.00     0.030 A 
HETATM   41  C25 UNL     1      -6.411  47.345 -28.677  1.00  0.00     0.017 A 
HETATM   42  C26 UNL     1      -7.344  47.701 -29.665  1.00  0.00     0.008 A 
HETATM   43  C31 UNL     1      -8.630  48.038 -29.219  1.00  0.00     0.017 A 
HETATM   44  C32 UNL     1      -8.959  48.024 -27.856  1.00  0.00     0.030 A 
BRANCH  42  45
HETATM   45  C27 UNL     1      -6.994  47.706 -31.101  1.00  0.00     0.115 A 
HETATM   46  N7  UNL     1      -8.000  47.684 -31.997  1.00  0.00    -0.352 N 
HETATM   47  C28 UNL     1      -7.653  47.705 -33.298  1.00  0.00     0.091 A 
ATOM     48  H7  UNL     1      -8.977  47.653 -31.705  1.00  0.00     0.166 HD
HETATM   49  C29 UNL     1      -6.353  47.743 -33.736  1.00  0.00     0.034 A 
HETATM   50  C30 UNL     1      -5.398  47.759 -32.750  1.00  0.00     0.091 A 
HETATM   51  N8  UNL     1      -5.687  47.741 -31.434  1.00  0.00    -0.352 N 
ATOM     52  H8  UNL     1      -4.954  47.752 -30.726  1.00  0.00     0.166 HD
ENDBRANCH  42  45
ENDBRANCH  37  39
ENDBRANCH  30  31
ENDBRANCH   4  30
TORSDOF 8
ENDMDL
