MODEL 1
REMARK minimizedAffinity -8.29741478
REMARK  8 active torsions:
REMARK  status: ('A' for Active; 'I' for Inactive)
REMARK    1  A    between atoms: C2_2  and  N1_3 
REMARK       I    between atoms: N1_3  and  C3_4 
REMARK    2  A    between atoms: C3_4  and  C4_6 
REMARK    3  A    between atoms: C6_8  and  C7_9 
REMARK    4  A    between atoms: C10_15  and  N4_16 
REMARK       I    between atoms: N4_16  and  C11_17 
REMARK       I    between atoms: C11_17  and  N5_19 
REMARK    5  A    between atoms: N5_19  and  C12_20 
REMARK    6  A    between atoms: C12_20  and  C13_21 
REMARK    7  A    between atoms: C12_20  and  C15_24 
REMARK    8  A    between atoms: C13_21  and  O3_22 
ROOT
HETATM    1  C7  UNL     1       0.485  51.221 -16.187  1.00  0.00     0.044 A 
HETATM    2  N2  UNL     1      -0.089  50.016 -16.145  1.00  0.00    -0.303 N 
ATOM      3  H2  UNL     1      -0.226  49.409 -15.338  1.00  0.00     0.186 HD
HETATM    4  N3  UNL     1      -0.444  49.794 -17.428  1.00  0.00    -0.300 N 
HETATM    5  C8  UNL     1      -0.118  50.816 -18.278  1.00  0.00     0.065 A 
HETATM    6  C9  UNL     1      -0.329  50.992 -19.646  1.00  0.00     0.080 A 
HETATM    7  C10 UNL     1       0.143  52.192 -20.167  1.00  0.00     0.111 A 
HETATM    8  N6  UNL     1       0.767  53.138 -19.427  1.00  0.00    -0.351 N 
ATOM      9  H6  UNL     1       1.094  53.998 -19.868  1.00  0.00     0.166 HD
HETATM   10  C21 UNL     1       0.957  52.943 -18.094  1.00  0.00     0.105 A 
HETATM   11  C22 UNL     1       0.511  51.770 -17.490  1.00  0.00     0.032 A 
HETATM   12  H11 UNL     1      -0.923  48.930 -17.656  1.00  0.00     0.187 HD
ENDROOT
BRANCH   7  13
HETATM   13  N4  UNL     1       0.000  52.557 -21.507  1.00  0.00    -0.295 N 
HETATM   14  C11 UNL     1      -0.471  51.809 -22.552  1.00  0.00     0.322 C 
HETATM   15  O2  UNL     1      -0.812  50.633 -22.509  1.00  0.00    -0.247 OA
HETATM   16  N5  UNL     1      -0.523  52.556 -23.711  1.00  0.00    -0.332 N 
HETATM   17  H14 UNL     1      -0.765  53.524 -23.555  1.00  0.00     0.165 HD
HETATM   18  H13 UNL     1       0.355  53.482 -21.696  1.00  0.00     0.172 HD
BRANCH  16  19
HETATM   19  C12 UNL     1      -1.103  51.976 -24.924  1.00  0.00     0.143 C 
BRANCH  19  20
HETATM   20  C13 UNL     1      -1.782  50.605 -24.672  1.00  0.00     0.197 C 
BRANCH  20  21
HETATM   21  O3  UNL     1      -1.894  49.835 -25.882  1.00  0.00    -0.394 OA
HETATM   22  C14 UNL     1      -2.904  48.830 -25.792  1.00  0.00     0.201 C 
ENDBRANCH  20  21
ENDBRANCH  19  20
BRANCH  19  23
HETATM   23  C15 UNL     1      -0.030  51.872 -26.002  1.00  0.00    -0.033 A 
HETATM   24  C16 UNL     1       1.319  51.643 -25.678  1.00  0.00     0.009 A 
HETATM   25  C17 UNL     1       2.291  51.570 -26.675  1.00  0.00     0.001 A 
HETATM   26  C18 UNL     1       1.931  51.721 -28.010  1.00  0.00     0.000 A 
HETATM   27  C19 UNL     1       0.597  51.941 -28.347  1.00  0.00     0.001 A 
HETATM   28  C20 UNL     1      -0.377  52.014 -27.350  1.00  0.00     0.009 A 
ENDBRANCH  19  23
ENDBRANCH  16  19
ENDBRANCH   7  13
BRANCH   1  29
HETATM   29  C6  UNL     1       0.990  51.984 -14.934  1.00  0.00     0.052 A 
HETATM   30  C4  UNL     1       0.241  52.266 -13.659  1.00  0.00     0.088 A 
HETATM   31  C5  UNL     1       1.303  51.187 -13.696  1.00  0.00     0.026 A 
BRANCH  30  32
HETATM   32  C3  UNL     1      -1.122  51.888 -13.201  1.00  0.00     0.222 C 
HETATM   33  N1  UNL     1      -1.764  52.725 -12.330  1.00  0.00    -0.361 N 
HETATM   34  H6  UNL     1      -1.225  53.488 -11.916  1.00  0.00     0.162 HD
HETATM   35  O1  UNL     1      -1.607  50.836 -13.615  1.00  0.00    -0.273 OA
BRANCH  33  36
HETATM   36  C2  UNL     1      -3.054  52.412 -11.765  1.00  0.00     0.118 C 
HETATM   37  C1  UNL     1      -3.791  53.664 -11.293  1.00  0.00     0.026 C 
ENDBRANCH  33  36
ENDBRANCH  30  32
ENDBRANCH   1  29
TORSDOF 8
ENDMDL
MODEL 2
REMARK minimizedAffinity -8.25206375
REMARK  8 active torsions:
REMARK  status: ('A' for Active; 'I' for Inactive)
REMARK    1  A    between atoms: C2_2  and  N1_3 
REMARK       I    between atoms: N1_3  and  C3_4 
REMARK    2  A    between atoms: C3_4  and  C4_6 
REMARK    3  A    between atoms: C6_8  and  C7_9 
REMARK    4  A    between atoms: C10_15  and  N4_16 
REMARK       I    between atoms: N4_16  and  C11_17 
REMARK       I    between atoms: C11_17  and  N5_19 
REMARK    5  A    between atoms: N5_19  and  C12_20 
REMARK    6  A    between atoms: C12_20  and  C13_21 
REMARK    7  A    between atoms: C12_20  and  C15_24 
REMARK    8  A    between atoms: C13_21  and  O3_22 
ROOT
HETATM    1  C7  UNL     1       0.790  53.148 -23.927  1.00  0.00     0.044 A 
HETATM    2  N2  UNL     1       1.248  54.384 -24.141  1.00  0.00    -0.303 N 
ATOM      3  H2  UNL     1       1.402  54.855 -25.033  1.00  0.00     0.186 HD
HETATM    4  N3  UNL     1       1.458  54.861 -22.897  1.00  0.00    -0.300 N 
HETATM    5  C8  UNL     1       1.147  53.972 -21.903  1.00  0.00     0.065 A 
HETATM    6  C9  UNL     1       1.192  54.078 -20.512  1.00  0.00     0.080 A 
HETATM    7  C10 UNL     1       0.777  52.945 -19.820  1.00  0.00     0.111 A 
HETATM    8  N6  UNL     1       0.357  51.808 -20.424  1.00  0.00    -0.351 N 
ATOM      9  H6  UNL     1       0.069  51.008 -19.861  1.00  0.00     0.166 HD
HETATM   10  C21 UNL     1       0.321  51.733 -21.782  1.00  0.00     0.105 A 
HETATM   11  C22 UNL     1       0.714  52.824 -22.552  1.00  0.00     0.032 A 
HETATM   12  H11 UNL     1       1.800  55.810 -22.792  1.00  0.00     0.187 HD
ENDROOT
BRANCH   7  13
HETATM   13  N4  UNL     1       0.727  52.871 -18.427  1.00  0.00    -0.295 N 
HETATM   14  C11 UNL     1       0.443  51.789 -17.639  1.00  0.00     0.322 C 
HETATM   15  O2  UNL     1       0.120  50.672 -18.025  1.00  0.00    -0.247 OA
HETATM   16  N5  UNL     1       0.565  52.106 -16.300  1.00  0.00    -0.332 N 
HETATM   17  H14 UNL     1       1.307  52.765 -16.111  1.00  0.00     0.165 HD
HETATM   18  H13 UNL     1       0.870  53.767 -17.986  1.00  0.00     0.172 HD
BRANCH  16  19
HETATM   19  C12 UNL     1       0.412  51.059 -15.289  1.00  0.00     0.143 C 
BRANCH  19  20
HETATM   20  C13 UNL     1      -0.516  51.480 -14.120  1.00  0.00     0.197 C 
BRANCH  20  21
HETATM   21  O3  UNL     1       0.024  52.593 -13.386  1.00  0.00    -0.394 OA
HETATM   22  C14 UNL     1      -0.539  52.702 -12.079  1.00  0.00     0.201 C 
ENDBRANCH  20  21
ENDBRANCH  19  20
BRANCH  19  23
HETATM   23  C15 UNL     1       1.787  50.638 -14.780  1.00  0.00    -0.033 A 
HETATM   24  C16 UNL     1       1.969  49.448 -14.054  1.00  0.00     0.009 A 
HETATM   25  C17 UNL     1       3.230  49.088 -13.579  1.00  0.00     0.001 A 
HETATM   26  C18 UNL     1       4.327  49.908 -13.825  1.00  0.00     0.000 A 
HETATM   27  C19 UNL     1       4.162  51.085 -14.550  1.00  0.00     0.001 A 
HETATM   28  C20 UNL     1       2.901  51.448 -15.026  1.00  0.00     0.009 A 
ENDBRANCH  19  23
ENDBRANCH  16  19
ENDBRANCH   7  13
BRANCH   1  29
HETATM   29  C6  UNL     1       0.304  52.197 -25.051  1.00  0.00     0.052 A 
HETATM   30  C4  UNL     1      -1.113  51.867 -25.435  1.00  0.00     0.088 A 
HETATM   31  C5  UNL     1      -0.293  52.809 -26.290  1.00  0.00     0.026 A 
BRANCH  30  32
HETATM   32  C3  UNL     1      -2.422  52.350 -24.923  1.00  0.00     0.222 C 
HETATM   33  N1  UNL     1      -2.716  52.138 -23.604  1.00  0.00    -0.361 N 
HETATM   34  H6  UNL     1      -2.097  51.528 -23.069  1.00  0.00     0.162 HD
HETATM   35  O1  UNL     1      -3.187  52.909 -25.708  1.00  0.00    -0.273 OA
BRANCH  33  36
HETATM   36  C2  UNL     1      -3.989  52.498 -23.027  1.00  0.00     0.118 C 
HETATM   37  C1  UNL     1      -5.001  51.359 -23.117  1.00  0.00     0.026 C 
ENDBRANCH  33  36
ENDBRANCH  30  32
ENDBRANCH   1  29
TORSDOF 8
ENDMDL
MODEL 3
REMARK minimizedAffinity -8.23501492
REMARK  8 active torsions:
REMARK  status: ('A' for Active; 'I' for Inactive)
REMARK    1  A    between atoms: C2_2  and  N1_3 
REMARK       I    between atoms: N1_3  and  C3_4 
REMARK    2  A    between atoms: C3_4  and  C4_6 
REMARK    3  A    between atoms: C6_8  and  C7_9 
REMARK    4  A    between atoms: C10_15  and  N4_16 
REMARK       I    between atoms: N4_16  and  C11_17 
REMARK       I    between atoms: C11_17  and  N5_19 
REMARK    5  A    between atoms: N5_19  and  C12_20 
REMARK    6  A    between atoms: C12_20  and  C13_21 
REMARK    7  A    between atoms: C12_20  and  C15_24 
REMARK    8  A    between atoms: C13_21  and  O3_22 
ROOT
HETATM    1  C7  UNL     1       0.071  52.184 -23.144  1.00  0.00     0.044 A 
HETATM    2  N2  UNL     1      -0.786  51.161 -23.107  1.00  0.00    -0.303 N 
ATOM      3  H2  UNL     1      -1.219  50.670 -23.889  1.00  0.00     0.186 HD
HETATM    4  N3  UNL     1      -0.943  50.931 -21.787  1.00  0.00    -0.300 N 
HETATM    5  C8  UNL     1      -0.215  51.770 -20.988  1.00  0.00     0.065 A 
HETATM    6  C9  UNL     1      -0.076  51.848 -19.602  1.00  0.00     0.080 A 
HETATM    7  C10 UNL     1       0.781  52.845 -19.149  1.00  0.00     0.111 A 
HETATM    8  N6  UNL     1       1.444  53.695 -19.968  1.00  0.00    -0.351 N 
ATOM      9  H6  UNL     1       2.057  54.410 -19.575  1.00  0.00     0.166 HD
HETATM   10  C21 UNL     1       1.293  53.595 -21.317  1.00  0.00     0.105 A 
HETATM   11  C22 UNL     1       0.457  52.620 -21.855  1.00  0.00     0.032 A 
HETATM   12  H11 UNL     1      -1.550  50.173 -21.495  1.00  0.00     0.187 HD
ENDROOT
BRANCH   7  13
HETATM   13  N4  UNL     1       1.067  53.059 -17.799  1.00  0.00    -0.295 N 
HETATM   14  C11 UNL     1       1.001  52.171 -16.760  1.00  0.00     0.322 C 
HETATM   15  O2  UNL     1       0.617  51.008 -16.819  1.00  0.00    -0.247 OA
HETATM   16  N5  UNL     1       1.433  52.751 -15.584  1.00  0.00    -0.332 N 
HETATM   17  H14 UNL     1       2.185  53.412 -15.716  1.00  0.00     0.165 HD
HETATM   18  H13 UNL     1       1.293  54.021 -17.599  1.00  0.00     0.172 HD
BRANCH  16  19
HETATM   19  C12 UNL     1       1.547  51.939 -14.372  1.00  0.00     0.143 C 
BRANCH  19  20
HETATM   20  C13 UNL     1       1.808  50.440 -14.672  1.00  0.00     0.197 C 
BRANCH  20  21
HETATM   21  O3  UNL     1       2.621  49.827 -13.655  1.00  0.00    -0.394 OA
HETATM   22  C14 UNL     1       4.015  50.055 -13.866  1.00  0.00     0.201 C 
ENDBRANCH  20  21
ENDBRANCH  19  20
BRANCH  19  23
HETATM   23  C15 UNL     1       0.298  52.122 -13.517  1.00  0.00    -0.033 A 
HETATM   24  C16 UNL     1       0.303  52.938 -12.372  1.00  0.00     0.009 A 
HETATM   25  C17 UNL     1      -0.843  53.080 -11.590  1.00  0.00     0.001 A 
HETATM   26  C18 UNL     1      -2.012  52.412 -11.942  1.00  0.00     0.000 A 
HETATM   27  C19 UNL     1      -2.034  51.607 -13.079  1.00  0.00     0.001 A 
HETATM   28  C20 UNL     1      -0.888  51.464 -13.862  1.00  0.00     0.009 A 
ENDBRANCH  19  23
ENDBRANCH  16  19
ENDBRANCH   7  13
BRANCH   1  29
HETATM   29  C6  UNL     1       0.656  52.777 -24.452  1.00  0.00     0.052 A 
HETATM   30  C4  UNL     1       0.075  52.710 -25.839  1.00  0.00     0.088 A 
HETATM   31  C5  UNL     1      -0.008  53.993 -25.039  1.00  0.00     0.026 A 
BRANCH  30  32
HETATM   32  C3  UNL     1      -1.190  52.130 -26.361  1.00  0.00     0.222 C 
HETATM   33  N1  UNL     1      -1.282  50.769 -26.463  1.00  0.00    -0.361 N 
HETATM   34  H6  UNL     1      -0.431  50.222 -26.320  1.00  0.00     0.162 HD
HETATM   35  O1  UNL     1      -2.093  52.899 -26.691  1.00  0.00    -0.273 OA
BRANCH  33  36
HETATM   36  C2  UNL     1      -2.434  50.111 -27.029  1.00  0.00     0.118 C 
HETATM   37  C1  UNL     1      -2.748  48.796 -26.319  1.00  0.00     0.026 C 
ENDBRANCH  33  36
ENDBRANCH  30  32
ENDBRANCH   1  29
TORSDOF 8
ENDMDL
MODEL 4
REMARK minimizedAffinity -8.22978973
REMARK  8 active torsions:
REMARK  status: ('A' for Active; 'I' for Inactive)
REMARK    1  A    between atoms: C2_2  and  N1_3 
REMARK       I    between atoms: N1_3  and  C3_4 
REMARK    2  A    between atoms: C3_4  and  C4_6 
REMARK    3  A    between atoms: C6_8  and  C7_9 
REMARK    4  A    between atoms: C10_15  and  N4_16 
REMARK       I    between atoms: N4_16  and  C11_17 
REMARK       I    between atoms: C11_17  and  N5_19 
REMARK    5  A    between atoms: N5_19  and  C12_20 
REMARK    6  A    between atoms: C12_20  and  C13_21 
REMARK    7  A    between atoms: C12_20  and  C15_24 
REMARK    8  A    between atoms: C13_21  and  O3_22 
ROOT
HETATM    1  C7  UNL     1      -0.852  51.078 -22.355  1.00  0.00     0.044 A 
HETATM    2  N2  UNL     1      -0.793  50.015 -21.550  1.00  0.00    -0.303 N 
ATOM      3  H2  UNL     1      -0.240  49.895 -20.701  1.00  0.00     0.186 HD
HETATM    4  N3  UNL     1      -1.639  49.136 -22.127  1.00  0.00    -0.300 N 
HETATM    5  C8  UNL     1      -2.233  49.606 -23.267  1.00  0.00     0.065 A 
HETATM    6  C9  UNL     1      -3.169  49.037 -24.131  1.00  0.00     0.080 A 
HETATM    7  C10 UNL     1      -3.553  49.841 -25.198  1.00  0.00     0.111 A 
HETATM    8  N6  UNL     1      -3.069  51.088 -25.412  1.00  0.00    -0.351 N 
ATOM      9  H6  UNL     1      -3.386  51.628 -26.217  1.00  0.00     0.166 HD
HETATM   10  C21 UNL     1      -2.158  51.620 -24.552  1.00  0.00     0.105 A 
HETATM   11  C22 UNL     1      -1.723  50.884 -23.453  1.00  0.00     0.032 A 
HETATM   12  H11 UNL     1      -1.781  48.236 -21.683  1.00  0.00     0.187 HD
ENDROOT
BRANCH   7  13
HETATM   13  N4  UNL     1      -4.498  49.456 -26.151  1.00  0.00    -0.295 N 
HETATM   14  C11 UNL     1      -4.307  48.748 -27.307  1.00  0.00     0.322 C 
HETATM   15  O2  UNL     1      -3.234  48.360 -27.754  1.00  0.00    -0.247 OA
HETATM   16  N5  UNL     1      -5.508  48.507 -27.943  1.00  0.00    -0.332 N 
HETATM   17  H14 UNL     1      -6.276  48.352 -27.306  1.00  0.00     0.165 HD
HETATM   18  H13 UNL     1      -5.419  49.814 -25.950  1.00  0.00     0.172 HD
BRANCH  16  19
HETATM   19  C12 UNL     1      -5.539  47.668 -29.143  1.00  0.00     0.143 C 
BRANCH  19  20
HETATM   20  C13 UNL     1      -5.898  48.462 -30.425  1.00  0.00     0.197 C 
BRANCH  20  21
HETATM   21  O3  UNL     1      -4.795  48.511 -31.348  1.00  0.00    -0.394 OA
HETATM   22  C14 UNL     1      -5.031  47.724 -32.515  1.00  0.00     0.201 C 
ENDBRANCH  20  21
ENDBRANCH  19  20
BRANCH  19  23
HETATM   23  C15 UNL     1      -6.500  46.504 -28.926  1.00  0.00    -0.033 A 
HETATM   24  C16 UNL     1      -7.305  46.420 -27.777  1.00  0.00     0.009 A 
HETATM   25  C17 UNL     1      -8.164  45.338 -27.585  1.00  0.00     0.001 A 
HETATM   26  C18 UNL     1      -8.234  44.327 -28.538  1.00  0.00     0.000 A 
HETATM   27  C19 UNL     1      -7.448  44.402 -29.685  1.00  0.00     0.001 A 
HETATM   28  C20 UNL     1      -6.587  45.483 -29.879  1.00  0.00     0.009 A 
ENDBRANCH  19  23
ENDBRANCH  16  19
ENDBRANCH   7  13
BRANCH   1  29
HETATM   29  C6  UNL     1      -0.122  52.418 -22.078  1.00  0.00     0.052 A 
HETATM   30  C4  UNL     1       0.341  52.961 -20.753  1.00  0.00     0.088 A 
HETATM   31  C5  UNL     1       1.340  52.369 -21.724  1.00  0.00     0.026 A 
BRANCH  30  32
HETATM   32  C3  UNL     1       0.292  52.404 -19.376  1.00  0.00     0.222 C 
HETATM   33  N1  UNL     1       1.095  52.966 -18.423  1.00  0.00    -0.361 N 
HETATM   34  H6  UNL     1       1.800  53.638 -18.730  1.00  0.00     0.162 HD
HETATM   35  O1  UNL     1      -0.461  51.455 -19.157  1.00  0.00    -0.273 OA
BRANCH  33  36
HETATM   36  C2  UNL     1       1.180  52.450 -17.078  1.00  0.00     0.118 C 
HETATM   37  C1  UNL     1       2.620  52.393 -16.577  1.00  0.00     0.026 C 
ENDBRANCH  33  36
ENDBRANCH  30  32
ENDBRANCH   1  29
TORSDOF 8
ENDMDL
MODEL 5
REMARK minimizedAffinity -8.11852169
REMARK  8 active torsions:
REMARK  status: ('A' for Active; 'I' for Inactive)
REMARK    1  A    between atoms: C2_2  and  N1_3 
REMARK       I    between atoms: N1_3  and  C3_4 
REMARK    2  A    between atoms: C3_4  and  C4_6 
REMARK    3  A    between atoms: C6_8  and  C7_9 
REMARK    4  A    between atoms: C10_15  and  N4_16 
REMARK       I    between atoms: N4_16  and  C11_17 
REMARK       I    between atoms: C11_17  and  N5_19 
REMARK    5  A    between atoms: N5_19  and  C12_20 
REMARK    6  A    between atoms: C12_20  and  C13_21 
REMARK    7  A    between atoms: C12_20  and  C15_24 
REMARK    8  A    between atoms: C13_21  and  O3_22 
ROOT
HETATM    1  C7  UNL     1      -4.780  49.997 -24.264  1.00  0.00     0.044 A 
HETATM    2  N2  UNL     1      -5.787  50.869 -24.360  1.00  0.00    -0.303 N 
ATOM      3  H2  UNL     1      -6.465  50.971 -25.115  1.00  0.00     0.186 HD
HETATM    4  N3  UNL     1      -5.693  51.583 -23.219  1.00  0.00    -0.300 N 
HETATM    5  C8  UNL     1      -4.664  51.193 -22.404  1.00  0.00     0.065 A 
HETATM    6  C9  UNL     1      -4.248  51.643 -21.151  1.00  0.00     0.080 A 
HETATM    7  C10 UNL     1      -3.147  50.978 -20.620  1.00  0.00     0.111 A 
HETATM    8  N6  UNL     1      -2.504  49.967 -21.252  1.00  0.00    -0.351 N 
ATOM      9  H6  UNL     1      -1.699  49.521 -20.812  1.00  0.00     0.166 HD
HETATM   10  C21 UNL     1      -2.933  49.546 -22.472  1.00  0.00     0.105 A 
HETATM   11  C22 UNL     1      -4.033  50.154 -23.073  1.00  0.00     0.032 A 
HETATM   12  H11 UNL     1      -6.373  52.315 -23.046  1.00  0.00     0.187 HD
ENDROOT
BRANCH   7  13
HETATM   13  N4  UNL     1      -2.604  51.269 -19.368  1.00  0.00    -0.295 N 
HETATM   14  C11 UNL     1      -1.981  50.424 -18.489  1.00  0.00     0.322 C 
HETATM   15  O2  UNL     1      -1.832  49.216 -18.623  1.00  0.00    -0.247 OA
HETATM   16  N5  UNL     1      -1.518  51.112 -17.385  1.00  0.00    -0.332 N 
HETATM   17  H14 UNL     1      -1.194  52.044 -17.600  1.00  0.00     0.165 HD
HETATM   18  H13 UNL     1      -2.762  52.226 -19.089  1.00  0.00     0.172 HD
BRANCH  16  19
HETATM   19  C12 UNL     1      -0.724  50.412 -16.374  1.00  0.00     0.143 C 
BRANCH  19  20
HETATM   20  C13 UNL     1      -1.450  50.297 -15.009  1.00  0.00     0.197 C 
BRANCH  20  21
HETATM   21  O3  UNL     1      -2.798  50.797 -15.079  1.00  0.00    -0.394 OA
HETATM   22  C14 UNL     1      -3.091  51.710 -14.021  1.00  0.00     0.201 C 
ENDBRANCH  20  21
ENDBRANCH  19  20
BRANCH  19  23
HETATM   23  C15 UNL     1       0.629  51.099 -16.225  1.00  0.00    -0.033 A 
HETATM   24  C16 UNL     1       1.495  50.795 -15.160  1.00  0.00     0.009 A 
HETATM   25  C17 UNL     1       2.721  51.447 -15.028  1.00  0.00     0.001 A 
HETATM   26  C18 UNL     1       3.101  52.409 -15.957  1.00  0.00     0.000 A 
HETATM   27  C19 UNL     1       2.257  52.715 -17.021  1.00  0.00     0.001 A 
HETATM   28  C20 UNL     1       1.029  52.064 -17.156  1.00  0.00     0.009 A 
ENDBRANCH  19  23
ENDBRANCH  16  19
ENDBRANCH   7  13
BRANCH   1  29
HETATM   29  C6  UNL     1      -4.507  48.872 -25.296  1.00  0.00     0.052 A 
HETATM   30  C4  UNL     1      -3.885  49.000 -26.661  1.00  0.00     0.088 A 
HETATM   31  C5  UNL     1      -3.082  48.435 -25.509  1.00  0.00     0.026 A 
BRANCH  30  32
HETATM   32  C3  UNL     1      -3.327  50.166 -27.395  1.00  0.00     0.222 C 
HETATM   33  N1  UNL     1      -2.730  51.160 -26.670  1.00  0.00    -0.361 N 
HETATM   34  H6  UNL     1      -2.827  51.133 -25.654  1.00  0.00     0.162 HD
HETATM   35  O1  UNL     1      -3.436  50.191 -28.621  1.00  0.00    -0.273 OA
BRANCH  33  36
HETATM   36  C2  UNL     1      -2.226  52.367 -27.278  1.00  0.00     0.118 C 
HETATM   37  C1  UNL     1      -0.721  52.299 -27.526  1.00  0.00     0.026 C 
ENDBRANCH  33  36
ENDBRANCH  30  32
ENDBRANCH   1  29
TORSDOF 8
ENDMDL
MODEL 6
REMARK minimizedAffinity -8.05772972
REMARK  8 active torsions:
REMARK  status: ('A' for Active; 'I' for Inactive)
REMARK    1  A    between atoms: C2_2  and  N1_3 
REMARK       I    between atoms: N1_3  and  C3_4 
REMARK    2  A    between atoms: C3_4  and  C4_6 
REMARK    3  A    between atoms: C6_8  and  C7_9 
REMARK    4  A    between atoms: C10_15  and  N4_16 
REMARK       I    between atoms: N4_16  and  C11_17 
REMARK       I    between atoms: C11_17  and  N5_19 
REMARK    5  A    between atoms: N5_19  and  C12_20 
REMARK    6  A    between atoms: C12_20  and  C13_21 
REMARK    7  A    between atoms: C12_20  and  C15_24 
REMARK    8  A    between atoms: C13_21  and  O3_22 
ROOT
HETATM    1  C7  UNL     1      -1.643  50.920 -24.922  1.00  0.00     0.044 A 
HETATM    2  N2  UNL     1      -1.693  50.229 -23.781  1.00  0.00    -0.303 N 
ATOM      3  H2  UNL     1      -1.187  50.404 -22.913  1.00  0.00     0.186 HD
HETATM    4  N3  UNL     1      -2.573  49.243 -24.050  1.00  0.00    -0.300 N 
HETATM    5  C8  UNL     1      -3.084  49.287 -25.319  1.00  0.00     0.065 A 
HETATM    6  C9  UNL     1      -4.021  48.487 -25.974  1.00  0.00     0.080 A 
HETATM    7  C10 UNL     1      -4.301  48.857 -27.285  1.00  0.00     0.111 A 
HETATM    8  N6  UNL     1      -3.721  49.910 -27.908  1.00  0.00    -0.351 N 
ATOM      9  H6  UNL     1      -3.965  50.130 -28.874  1.00  0.00     0.166 HD
HETATM   10  C21 UNL     1      -2.812  50.676 -27.245  1.00  0.00     0.105 A 
HETATM   11  C22 UNL     1      -2.478  50.378 -25.927  1.00  0.00     0.032 A 
HETATM   12  H11 UNL     1      -2.798  48.578 -23.317  1.00  0.00     0.187 HD
ENDROOT
BRANCH   7  13
HETATM   13  N4  UNL     1      -5.230  48.194 -28.089  1.00  0.00    -0.295 N 
HETATM   14  C11 UNL     1      -5.314  48.170 -29.455  1.00  0.00     0.322 C 
HETATM   15  O2  UNL     1      -4.601  48.785 -30.239  1.00  0.00    -0.247 OA
HETATM   16  N5  UNL     1      -6.334  47.339 -29.873  1.00  0.00    -0.332 N 
HETATM   17  H14 UNL     1      -6.457  46.528 -29.285  1.00  0.00     0.165 HD
HETATM   18  H13 UNL     1      -5.947  47.732 -27.552  1.00  0.00     0.172 HD
BRANCH  16  19
HETATM   19  C12 UNL     1      -6.523  47.084 -31.302  1.00  0.00     0.143 C 
BRANCH  19  20
HETATM   20  C13 UNL     1      -7.959  47.410 -31.788  1.00  0.00     0.197 C 
BRANCH  20  21
HETATM   21  O3  UNL     1      -8.743  48.031 -30.754  1.00  0.00    -0.394 OA
HETATM   22  C14 UNL     1      -8.798  49.451 -30.895  1.00  0.00     0.201 C 
ENDBRANCH  20  21
ENDBRANCH  19  20
BRANCH  19  23
HETATM   23  C15 UNL     1      -6.148  45.640 -31.616  1.00  0.00    -0.033 A 
HETATM   24  C16 UNL     1      -6.959  44.565 -31.215  1.00  0.00     0.009 A 
HETATM   25  C17 UNL     1      -6.591  43.249 -31.494  1.00  0.00     0.001 A 
HETATM   26  C18 UNL     1      -5.409  42.987 -32.179  1.00  0.00     0.000 A 
HETATM   27  C19 UNL     1      -4.599  44.043 -32.590  1.00  0.00     0.001 A 
HETATM   28  C20 UNL     1      -4.966  45.361 -32.312  1.00  0.00     0.009 A 
ENDBRANCH  19  23
ENDBRANCH  16  19
ENDBRANCH   7  13
BRANCH   1  29
HETATM   29  C6  UNL     1      -0.832  52.229 -25.107  1.00  0.00     0.052 A 
HETATM   30  C4  UNL     1      -0.000  52.954 -24.084  1.00  0.00     0.088 A 
HETATM   31  C5  UNL     1       0.669  52.132 -25.165  1.00  0.00     0.026 A 
BRANCH  30  32
HETATM   32  C3  UNL     1       0.328  52.645 -22.668  1.00  0.00     0.222 C 
HETATM   33  N1  UNL     1       1.030  53.575 -21.951  1.00  0.00    -0.361 N 
HETATM   34  H6  UNL     1       1.427  54.368 -22.457  1.00  0.00     0.162 HD
HETATM   35  O1  UNL     1      -0.035  51.564 -22.206  1.00  0.00    -0.273 OA
BRANCH  33  36
HETATM   36  C2  UNL     1       1.466  53.340 -20.595  1.00  0.00     0.118 C 
HETATM   37  C1  UNL     1       0.366  53.644 -19.580  1.00  0.00     0.026 C 
ENDBRANCH  33  36
ENDBRANCH  30  32
ENDBRANCH   1  29
TORSDOF 8
ENDMDL
MODEL 7
REMARK minimizedAffinity -8.02376175
REMARK  8 active torsions:
REMARK  status: ('A' for Active; 'I' for Inactive)
REMARK    1  A    between atoms: C2_2  and  N1_3 
REMARK       I    between atoms: N1_3  and  C3_4 
REMARK    2  A    between atoms: C3_4  and  C4_6 
REMARK    3  A    between atoms: C6_8  and  C7_9 
REMARK    4  A    between atoms: C10_15  and  N4_16 
REMARK       I    between atoms: N4_16  and  C11_17 
REMARK       I    between atoms: C11_17  and  N5_19 
REMARK    5  A    between atoms: N5_19  and  C12_20 
REMARK    6  A    between atoms: C12_20  and  C13_21 
REMARK    7  A    between atoms: C12_20  and  C15_24 
REMARK    8  A    between atoms: C13_21  and  O3_22 
ROOT
HETATM    1  C7  UNL     1       1.881  51.520 -15.485  1.00  0.00     0.044 A 
HETATM    2  N2  UNL     1       2.493  52.708 -15.482  1.00  0.00    -0.303 N 
ATOM      3  H2  UNL     1       3.123  53.092 -14.779  1.00  0.00     0.186 HD
HETATM    4  N3  UNL     1       2.076  53.278 -16.632  1.00  0.00    -0.300 N 
HETATM    5  C8  UNL     1       1.225  52.493 -17.363  1.00  0.00     0.065 A 
HETATM    6  C9  UNL     1       0.603  52.692 -18.596  1.00  0.00     0.080 A 
HETATM    7  C10 UNL     1      -0.196  51.641 -19.031  1.00  0.00     0.111 A 
HETATM    8  N6  UNL     1      -0.379  50.496 -18.331  1.00  0.00    -0.351 N 
ATOM      9  H6  UNL     1      -0.982  49.762 -18.701  1.00  0.00     0.166 HD
HETATM   10  C21 UNL     1       0.243  50.327 -17.132  1.00  0.00     0.105 A 
HETATM   11  C22 UNL     1       1.066  51.328 -16.625  1.00  0.00     0.032 A 
HETATM   12  H11 UNL     1       2.423  54.200 -16.870  1.00  0.00     0.187 HD
ENDROOT
BRANCH   7  13
HETATM   13  N4  UNL     1      -0.877  51.646 -20.250  1.00  0.00    -0.295 N 
HETATM   14  C11 UNL     1      -0.361  51.682 -21.517  1.00  0.00     0.322 C 
HETATM   15  O2  UNL     1       0.823  51.772 -21.818  1.00  0.00    -0.247 OA
HETATM   16  N5  UNL     1      -1.364  51.601 -22.462  1.00  0.00    -0.332 N 
HETATM   17  H14 UNL     1      -2.133  51.010 -22.181  1.00  0.00     0.165 HD
HETATM   18  H13 UNL     1      -1.878  51.685 -20.134  1.00  0.00     0.172 HD
BRANCH  16  19
HETATM   19  C12 UNL     1      -1.018  51.511 -23.882  1.00  0.00     0.143 C 
BRANCH  19  20
HETATM   20  C13 UNL     1      -1.158  52.865 -24.624  1.00  0.00     0.197 C 
BRANCH  20  21
HETATM   21  O3  UNL     1       0.119  53.374 -25.047  1.00  0.00    -0.394 OA
HETATM   22  C14 UNL     1       0.313  53.247 -26.456  1.00  0.00     0.201 C 
ENDBRANCH  20  21
ENDBRANCH  19  20
BRANCH  19  23
HETATM   23  C15 UNL     1      -1.864  50.428 -24.544  1.00  0.00    -0.033 A 
HETATM   24  C16 UNL     1      -2.666  49.556 -23.787  1.00  0.00     0.009 A 
HETATM   25  C17 UNL     1      -3.418  48.558 -24.408  1.00  0.00     0.001 A 
HETATM   26  C18 UNL     1      -3.382  48.419 -25.791  1.00  0.00     0.000 A 
HETATM   27  C19 UNL     1      -2.598  49.281 -26.554  1.00  0.00     0.001 A 
HETATM   28  C20 UNL     1      -1.844  50.280 -25.935  1.00  0.00     0.009 A 
ENDBRANCH  19  23
ENDBRANCH  16  19
ENDBRANCH   7  13
BRANCH   1  29
HETATM   29  C6  UNL     1       2.106  50.428 -14.408  1.00  0.00     0.052 A 
HETATM   30  C4  UNL     1       1.618  50.418 -12.984  1.00  0.00     0.088 A 
HETATM   31  C5  UNL     1       0.940  49.556 -14.028  1.00  0.00     0.026 A 
BRANCH  30  32
HETATM   32  C3  UNL     1       0.778  51.371 -12.213  1.00  0.00     0.222 C 
HETATM   33  N1  UNL     1       1.139  52.690 -12.207  1.00  0.00    -0.361 N 
HETATM   34  H6  UNL     1       2.048  52.938 -12.602  1.00  0.00     0.162 HD
HETATM   35  O1  UNL     1      -0.198  50.931 -11.606  1.00  0.00    -0.273 OA
BRANCH  33  36
HETATM   36  C2  UNL     1       0.437  53.682 -11.428  1.00  0.00     0.118 C 
HETATM   37  C1  UNL     1       1.392  54.687 -10.789  1.00  0.00     0.026 C 
ENDBRANCH  33  36
ENDBRANCH  30  32
ENDBRANCH   1  29
TORSDOF 8
ENDMDL
MODEL 8
REMARK minimizedAffinity -8.01347351
REMARK  8 active torsions:
REMARK  status: ('A' for Active; 'I' for Inactive)
REMARK    1  A    between atoms: C2_2  and  N1_3 
REMARK       I    between atoms: N1_3  and  C3_4 
REMARK    2  A    between atoms: C3_4  and  C4_6 
REMARK    3  A    between atoms: C6_8  and  C7_9 
REMARK    4  A    between atoms: C10_15  and  N4_16 
REMARK       I    between atoms: N4_16  and  C11_17 
REMARK       I    between atoms: C11_17  and  N5_19 
REMARK    5  A    between atoms: N5_19  and  C12_20 
REMARK    6  A    between atoms: C12_20  and  C13_21 
REMARK    7  A    between atoms: C12_20  and  C15_24 
REMARK    8  A    between atoms: C13_21  and  O3_22 
ROOT
HETATM    1  C7  UNL     1      -5.916  47.844 -28.050  1.00  0.00     0.044 A 
HETATM    2  N2  UNL     1      -7.075  47.848 -27.386  1.00  0.00    -0.303 N 
ATOM      3  H2  UNL     1      -8.009  47.651 -27.745  1.00  0.00     0.186 HD
HETATM    4  N3  UNL     1      -6.715  48.175 -26.128  1.00  0.00    -0.300 N 
HETATM    5  C8  UNL     1      -5.370  48.376 -25.971  1.00  0.00     0.065 A 
HETATM    6  C9  UNL     1      -4.601  48.695 -24.851  1.00  0.00     0.080 A 
HETATM    7  C10 UNL     1      -3.235  48.807 -25.085  1.00  0.00     0.111 A 
HETATM    8  N6  UNL     1      -2.663  48.627 -26.300  1.00  0.00    -0.351 N 
ATOM      9  H6  UNL     1      -1.654  48.727 -26.409  1.00  0.00     0.166 HD
HETATM   10  C21 UNL     1      -3.436  48.314 -27.375  1.00  0.00     0.105 A 
HETATM   11  C22 UNL     1      -4.814  48.178 -27.227  1.00  0.00     0.032 A 
HETATM   12  H11 UNL     1      -7.434  48.229 -25.416  1.00  0.00     0.187 HD
ENDROOT
BRANCH   7  13
HETATM   13  N4  UNL     1      -2.304  49.093 -24.084  1.00  0.00    -0.295 N 
HETATM   14  C11 UNL     1      -2.431  49.938 -23.016  1.00  0.00     0.322 C 
HETATM   15  O2  UNL     1      -3.390  50.658 -22.767  1.00  0.00    -0.247 OA
HETATM   16  N5  UNL     1      -1.309  49.891 -22.212  1.00  0.00    -0.332 N 
HETATM   17  H14 UNL     1      -0.892  48.973 -22.160  1.00  0.00     0.165 HD
HETATM   18  H13 UNL     1      -1.417  48.638 -24.239  1.00  0.00     0.172 HD
BRANCH  16  19
HETATM   19  C12 UNL     1      -1.285  50.639 -20.954  1.00  0.00     0.143 C 
BRANCH  19  20
HETATM   20  C13 UNL     1      -2.697  51.078 -20.486  1.00  0.00     0.197 C 
BRANCH  20  21
HETATM   21  O3  UNL     1      -3.103  50.383 -19.293  1.00  0.00    -0.394 OA
HETATM   22  C14 UNL     1      -2.782  51.111 -18.107  1.00  0.00     0.201 C 
ENDBRANCH  20  21
ENDBRANCH  19  20
BRANCH  19  23
HETATM   23  C15 UNL     1      -0.350  51.835 -21.091  1.00  0.00    -0.033 A 
HETATM   24  C16 UNL     1       0.080  52.565 -19.969  1.00  0.00     0.009 A 
HETATM   25  C17 UNL     1       0.920  53.669 -20.114  1.00  0.00     0.001 A 
HETATM   26  C18 UNL     1       1.345  54.058 -21.380  1.00  0.00     0.000 A 
HETATM   27  C19 UNL     1       0.934  53.339 -22.500  1.00  0.00     0.001 A 
HETATM   28  C20 UNL     1       0.093  52.235 -22.357  1.00  0.00     0.009 A 
ENDBRANCH  19  23
ENDBRANCH  16  19
ENDBRANCH   7  13
BRANCH   1  29
HETATM   29  C6  UNL     1      -5.770  47.431 -29.538  1.00  0.00     0.052 A 
HETATM   30  C4  UNL     1      -6.778  47.588 -30.644  1.00  0.00     0.088 A 
HETATM   31  C5  UNL     1      -5.587  48.519 -30.561  1.00  0.00     0.026 A 
BRANCH  30  32
HETATM   32  C3  UNL     1      -8.136  48.193 -30.675  1.00  0.00     0.222 C 
HETATM   33  N1  UNL     1      -9.156  47.521 -30.060  1.00  0.00    -0.361 N 
HETATM   34  H6  UNL     1      -8.975  46.569 -29.740  1.00  0.00     0.162 HD
HETATM   35  O1  UNL     1      -8.285  49.264 -31.263  1.00  0.00    -0.273 OA
BRANCH  33  36
HETATM   36  C2  UNL     1     -10.523  47.983 -30.100  1.00  0.00     0.118 C 
HETATM   37  C1  UNL     1     -11.430  47.018 -30.859  1.00  0.00     0.026 C 
ENDBRANCH  33  36
ENDBRANCH  30  32
ENDBRANCH   1  29
TORSDOF 8
ENDMDL
MODEL 9
REMARK minimizedAffinity -7.99580431
REMARK  8 active torsions:
REMARK  status: ('A' for Active; 'I' for Inactive)
REMARK    1  A    between atoms: C2_2  and  N1_3 
REMARK       I    between atoms: N1_3  and  C3_4 
REMARK    2  A    between atoms: C3_4  and  C4_6 
REMARK    3  A    between atoms: C6_8  and  C7_9 
REMARK    4  A    between atoms: C10_15  and  N4_16 
REMARK       I    between atoms: N4_16  and  C11_17 
REMARK       I    between atoms: C11_17  and  N5_19 
REMARK    5  A    between atoms: N5_19  and  C12_20 
REMARK    6  A    between atoms: C12_20  and  C13_21 
REMARK    7  A    between atoms: C12_20  and  C15_24 
REMARK    8  A    between atoms: C13_21  and  O3_22 
ROOT
HETATM    1  C7  UNL     1      -1.758  50.536 -23.519  1.00  0.00     0.044 A 
HETATM    2  N2  UNL     1      -1.777  49.659 -22.513  1.00  0.00    -0.303 N 
ATOM      3  H2  UNL     1      -1.274  49.703 -21.626  1.00  0.00     0.186 HD
HETATM    4  N3  UNL     1      -2.620  48.699 -22.948  1.00  0.00    -0.300 N 
HETATM    5  C8  UNL     1      -3.137  48.940 -24.193  1.00  0.00     0.065 A 
HETATM    6  C9  UNL     1      -4.045  48.228 -24.977  1.00  0.00     0.080 A 
HETATM    7  C10 UNL     1      -4.345  48.805 -26.206  1.00  0.00     0.111 A 
HETATM    8  N6  UNL     1      -3.809  49.971 -26.638  1.00  0.00    -0.351 N 
ATOM      9  H6  UNL     1      -4.066  50.343 -27.553  1.00  0.00     0.166 HD
HETATM   10  C21 UNL     1      -2.928  50.647 -25.852  1.00  0.00     0.105 A 
HETATM   11  C22 UNL     1      -2.576  50.141 -24.603  1.00  0.00     0.032 A 
HETATM   12  H11 UNL     1      -2.815  47.912 -22.341  1.00  0.00     0.187 HD
ENDROOT
BRANCH   7  13
HETATM   13  N4  UNL     1      -5.251  48.254 -27.114  1.00  0.00    -0.295 N 
HETATM   14  C11 UNL     1      -5.213  48.281 -28.481  1.00  0.00     0.322 C 
HETATM   15  O2  UNL     1      -4.383  48.855 -29.176  1.00  0.00    -0.247 OA
HETATM   16  N5  UNL     1      -6.259  47.558 -29.020  1.00  0.00    -0.332 N 
HETATM   17  H14 UNL     1      -6.505  46.743 -28.477  1.00  0.00     0.165 HD
HETATM   18  H13 UNL     1      -6.052  47.841 -26.660  1.00  0.00     0.172 HD
BRANCH  16  19
HETATM   19  C12 UNL     1      -6.341  47.367 -30.469  1.00  0.00     0.143 C 
BRANCH  19  20
HETATM   20  C13 UNL     1      -7.525  48.133 -31.113  1.00  0.00     0.197 C 
BRANCH  20  21
HETATM   21  O3  UNL     1      -8.522  48.489 -30.138  1.00  0.00    -0.394 OA
HETATM   22  C14 UNL     1      -9.847  48.221 -30.597  1.00  0.00     0.201 C 
ENDBRANCH  20  21
ENDBRANCH  19  20
BRANCH  19  23
HETATM   23  C15 UNL     1      -6.409  45.877 -30.783  1.00  0.00    -0.033 A 
HETATM   24  C16 UNL     1      -7.200  45.000 -30.020  1.00  0.00     0.009 A 
HETATM   25  C17 UNL     1      -7.236  43.636 -30.309  1.00  0.00     0.001 A 
HETATM   26  C18 UNL     1      -6.486  43.128 -31.365  1.00  0.00     0.000 A 
HETATM   27  C19 UNL     1      -5.704  43.987 -32.134  1.00  0.00     0.001 A 
HETATM   28  C20 UNL     1      -5.666  45.352 -31.846  1.00  0.00     0.009 A 
ENDBRANCH  19  23
ENDBRANCH  16  19
ENDBRANCH   7  13
BRANCH   1  29
HETATM   29  C6  UNL     1      -1.000  51.888 -23.476  1.00  0.00     0.052 A 
HETATM   30  C4  UNL     1       0.145  52.334 -24.344  1.00  0.00     0.088 A 
HETATM   31  C5  UNL     1      -1.247  52.876 -24.583  1.00  0.00     0.026 A 
BRANCH  30  32
HETATM   32  C3  UNL     1       0.845  51.681 -25.482  1.00  0.00     0.222 C 
HETATM   33  N1  UNL     1       1.973  52.278 -25.974  1.00  0.00    -0.361 N 
HETATM   34  H6  UNL     1       2.199  53.218 -25.643  1.00  0.00     0.162 HD
HETATM   35  O1  UNL     1       0.373  50.640 -25.938  1.00  0.00    -0.273 OA
BRANCH  33  36
HETATM   36  C2  UNL     1       2.681  51.769 -27.124  1.00  0.00     0.118 C 
HETATM   37  C1  UNL     1       1.839  51.851 -28.395  1.00  0.00     0.026 C 
ENDBRANCH  33  36
ENDBRANCH  30  32
ENDBRANCH   1  29
TORSDOF 8
ENDMDL
