MODEL 1
REMARK minimizedAffinity -8.2633419
REMARK  7 active torsions:
REMARK  status: ('A' for Active; 'I' for Inactive)
REMARK    1  A    between atoms: C2_2  and  C3_3 
REMARK       I    between atoms: C3_3  and  N1_5 
REMARK    2  A    between atoms: N1_5  and  C4_6 
REMARK    3  A    between atoms: C9_11  and  N2_12 
REMARK    4  A    between atoms: N2_12  and  C10_13 
REMARK    5  A    between atoms: C11_16  and  N4_17 
REMARK    6  A    between atoms: N4_17  and  C12_18 
REMARK    7  A    between atoms: C15_21  and  N5_22 
ROOT
HETATM    1  C10 UNL     1      -3.122  51.012 -22.523  1.00  0.00     0.110 A 
HETATM    2  N3  UNL     1      -2.877  51.690 -23.666  1.00  0.00    -0.322 N 
ATOM      3  H3  UNL     1      -1.939  52.026 -23.882  1.00  0.00     0.169 HD
HETATM    4  C11 UNL     1      -3.892  51.910 -24.510  1.00  0.00     0.158 A 
HETATM    5  N6  UNL     1      -5.145  51.501 -24.289  1.00  0.00    -0.341 N 
ATOM      6  H6  UNL     1      -5.901  51.713 -24.940  1.00  0.00     0.167 HD
HETATM    7  C20 UNL     1      -5.359  50.793 -23.162  1.00  0.00     0.117 A 
HETATM    8  C21 UNL     1      -4.382  50.508 -22.236  1.00  0.00     0.088 A 
HETATM    9 CL1  UNL     1      -4.765  49.519 -20.883  1.00  0.00    -0.079 Cl
ENDROOT
BRANCH   1  10
HETATM   10  N2  UNL     1      -2.008  50.828 -21.686  1.00  0.00    -0.242 NA
HETATM   11  H9  UNL     1      -1.687  49.859 -21.815  1.00  0.00     0.135 HD
BRANCH  10  12
HETATM   12  C9  UNL     1      -0.858  51.648 -21.527  1.00  0.00     0.041 A 
HETATM   13  C4  UNL     1      -0.292  51.863 -20.246  1.00  0.00     0.056 A 
HETATM   14  C5  UNL     1       0.738  52.809 -20.094  1.00  0.00     0.031 A 
HETATM   15  C6  UNL     1       1.261  53.487 -21.193  1.00  0.00     0.002 A 
HETATM   16  C7  UNL     1       0.754  53.236 -22.461  1.00  0.00     0.002 A 
HETATM   17  C8  UNL     1      -0.296  52.331 -22.623  1.00  0.00     0.026 A 
BRANCH  13  18
HETATM   18  N1  UNL     1      -0.700  51.223 -19.047  1.00  0.00    -0.322 N 
HETATM   19  C3  UNL     1      -1.902  51.359 -18.395  1.00  0.00     0.244 C 
HETATM   20  O1  UNL     1      -2.892  51.963 -18.796  1.00  0.00    -0.268 OA
HETATM   21  H4  UNL     1      -0.124  50.451 -18.745  1.00  0.00     0.169 HD
BRANCH  19  22
HETATM   22  C2  UNL     1      -2.008  50.576 -17.133  1.00  0.00     0.064 C 
HETATM   23  C1  UNL     1      -2.970  50.734 -16.214  1.00  0.00     0.017 C 
ENDBRANCH  19  22
ENDBRANCH  13  18
ENDBRANCH  10  12
ENDBRANCH   1  10
BRANCH   4  24
HETATM   24  N4  UNL     1      -3.564  52.612 -25.660  1.00  0.00    -0.259 NA
HETATM   25  H10 UNL     1      -4.446  52.980 -26.003  1.00  0.00     0.131 HD
BRANCH  24  26
HETATM   26  C12 UNL     1      -2.736  51.911 -26.637  1.00  0.00     0.063 C 
HETATM   27  C13 UNL     1      -1.818  52.930 -27.339  1.00  0.00     0.022 C 
HETATM   28  C14 UNL     1      -0.557  53.225 -26.529  1.00  0.00     0.037 C 
HETATM   29  C15 UNL     1       0.290  51.959 -26.253  1.00  0.00     0.222 C 
HETATM   30  C18 UNL     1      -0.514  50.660 -26.476  1.00  0.00     0.037 C 
HETATM   31  C19 UNL     1      -1.933  50.797 -25.934  1.00  0.00     0.022 C 
BRANCH  29  32
HETATM   32  N5  UNL     1       1.596  52.014 -26.943  1.00  0.00     0.084 N 
HETATM   33  C16 UNL     1       2.600  51.166 -26.300  1.00  0.00     0.309 C 
HETATM   34  C17 UNL     1       1.547  51.740 -28.377  1.00  0.00     0.309 C 
ENDBRANCH  29  32
ENDBRANCH  24  26
ENDBRANCH   4  24
TORSDOF 7
ENDMDL
MODEL 2
REMARK minimizedAffinity -8.20867348
REMARK  7 active torsions:
REMARK  status: ('A' for Active; 'I' for Inactive)
REMARK    1  A    between atoms: C2_2  and  C3_3 
REMARK       I    between atoms: C3_3  and  N1_5 
REMARK    2  A    between atoms: N1_5  and  C4_6 
REMARK    3  A    between atoms: C9_11  and  N2_12 
REMARK    4  A    between atoms: N2_12  and  C10_13 
REMARK    5  A    between atoms: C11_16  and  N4_17 
REMARK    6  A    between atoms: N4_17  and  C12_18 
REMARK    7  A    between atoms: C15_21  and  N5_22 
ROOT
HETATM    1  C10 UNL     1      -1.112  52.337 -25.960  1.00  0.00     0.110 A 
HETATM    2  N3  UNL     1      -0.970  52.683 -24.662  1.00  0.00    -0.322 N 
ATOM      3  H3  UNL     1      -1.783  52.760 -24.051  1.00  0.00     0.169 HD
HETATM    4  C11 UNL     1       0.260  52.922 -24.194  1.00  0.00     0.158 A 
HETATM    5  N6  UNL     1       1.368  52.843 -24.938  1.00  0.00    -0.341 N 
ATOM      6  H6  UNL     1       2.288  53.062 -24.556  1.00  0.00     0.167 HD
HETATM    7  C20 UNL     1       1.207  52.458 -26.220  1.00  0.00     0.117 A 
HETATM    8  C21 UNL     1      -0.013  52.184 -26.793  1.00  0.00     0.088 A 
HETATM    9 CL1  UNL     1      -0.075  51.615 -28.414  1.00  0.00    -0.079 Cl
ENDROOT
BRANCH   1  10
HETATM   10  N2  UNL     1      -2.435  52.111 -26.377  1.00  0.00    -0.242 NA
HETATM   11  H9  UNL     1      -2.575  52.642 -27.249  1.00  0.00     0.135 HD
BRANCH  10  12
HETATM   12  C9  UNL     1      -3.143  50.885 -26.499  1.00  0.00     0.041 A 
HETATM   13  C4  UNL     1      -3.576  50.179 -25.349  1.00  0.00     0.056 A 
HETATM   14  C5  UNL     1      -4.123  48.892 -25.492  1.00  0.00     0.031 A 
HETATM   15  C6  UNL     1      -4.312  48.324 -26.751  1.00  0.00     0.002 A 
HETATM   16  C7  UNL     1      -3.947  49.035 -27.886  1.00  0.00     0.002 A 
HETATM   17  C8  UNL     1      -3.365  50.297 -27.760  1.00  0.00     0.026 A 
BRANCH  13  18
HETATM   18  N1  UNL     1      -3.476  50.644 -24.012  1.00  0.00    -0.322 N 
HETATM   19  C3  UNL     1      -4.253  51.595 -23.398  1.00  0.00     0.244 C 
HETATM   20  O1  UNL     1      -5.259  52.130 -23.854  1.00  0.00    -0.268 OA
HETATM   21  H4  UNL     1      -2.900  50.087 -23.397  1.00  0.00     0.169 HD
BRANCH  19  22
HETATM   22  C2  UNL     1      -3.867  51.888 -21.990  1.00  0.00     0.064 C 
HETATM   23  C1  UNL     1      -4.044  51.050 -20.959  1.00  0.00     0.017 C 
ENDBRANCH  19  22
ENDBRANCH  13  18
ENDBRANCH  10  12
ENDBRANCH   1  10
BRANCH   4  24
HETATM   24  N4  UNL     1       0.326  53.272 -22.853  1.00  0.00    -0.259 NA
HETATM   25  H10 UNL     1       0.782  54.179 -22.842  1.00  0.00     0.131 HD
BRANCH  24  26
HETATM   26  C12 UNL     1       0.869  52.267 -21.944  1.00  0.00     0.063 C 
HETATM   27  C13 UNL     1       1.381  52.969 -20.670  1.00  0.00     0.022 C 
HETATM   28  C14 UNL     1       0.262  53.229 -19.665  1.00  0.00     0.037 C 
HETATM   29  C15 UNL     1      -0.457  51.934 -19.217  1.00  0.00     0.222 C 
HETATM   30  C18 UNL     1      -0.182  50.754 -20.174  1.00  0.00     0.037 C 
HETATM   31  C19 UNL     1      -0.212  51.213 -21.629  1.00  0.00     0.022 C 
BRANCH  29  32
HETATM   32  N5  UNL     1      -0.224  51.646 -17.786  1.00  0.00     0.084 N 
HETATM   33  C16 UNL     1      -0.334  50.219 -17.482  1.00  0.00     0.309 C 
HETATM   34  C17 UNL     1       1.021  52.184 -17.243  1.00  0.00     0.309 C 
ENDBRANCH  29  32
ENDBRANCH  24  26
ENDBRANCH   4  24
TORSDOF 7
ENDMDL
MODEL 3
REMARK minimizedAffinity -8.19095707
REMARK  7 active torsions:
REMARK  status: ('A' for Active; 'I' for Inactive)
REMARK    1  A    between atoms: C2_2  and  C3_3 
REMARK       I    between atoms: C3_3  and  N1_5 
REMARK    2  A    between atoms: N1_5  and  C4_6 
REMARK    3  A    between atoms: C9_11  and  N2_12 
REMARK    4  A    between atoms: N2_12  and  C10_13 
REMARK    5  A    between atoms: C11_16  and  N4_17 
REMARK    6  A    between atoms: N4_17  and  C12_18 
REMARK    7  A    between atoms: C15_21  and  N5_22 
ROOT
HETATM    1  C10 UNL     1      -3.049  50.315 -27.339  1.00  0.00     0.110 A 
HETATM    2  N3  UNL     1      -3.429  50.304 -28.635  1.00  0.00    -0.322 N 
ATOM      3  H3  UNL     1      -3.110  51.029 -29.278  1.00  0.00     0.169 HD
HETATM    4  C11 UNL     1      -4.233  49.322 -29.058  1.00  0.00     0.158 A 
HETATM    5  N6  UNL     1      -4.691  48.344 -28.271  1.00  0.00    -0.341 N 
ATOM      6  H6  UNL     1      -5.328  47.628 -28.620  1.00  0.00     0.167 HD
HETATM    7  C20 UNL     1      -4.268  48.352 -26.991  1.00  0.00     0.117 A 
HETATM    8  C21 UNL     1      -3.437  49.313 -26.462  1.00  0.00     0.088 A 
HETATM    9 CL1  UNL     1      -2.897  49.159 -24.837  1.00  0.00    -0.079 Cl
ENDROOT
BRANCH   1  10
HETATM   10  N2  UNL     1      -2.212  51.382 -26.970  1.00  0.00    -0.242 NA
HETATM   11  H9  UNL     1      -2.544  51.730 -26.059  1.00  0.00     0.135 HD
BRANCH  10  12
HETATM   12  C9  UNL     1      -0.792  51.454 -26.969  1.00  0.00     0.041 A 
HETATM   13  C4  UNL     1      -0.070  51.532 -25.753  1.00  0.00     0.056 A 
HETATM   14  C5  UNL     1       1.316  51.771 -25.785  1.00  0.00     0.031 A 
HETATM   15  C6  UNL     1       2.004  51.861 -26.994  1.00  0.00     0.002 A 
HETATM   16  C7  UNL     1       1.313  51.724 -28.190  1.00  0.00     0.002 A 
HETATM   17  C8  UNL     1      -0.069  51.527 -28.176  1.00  0.00     0.026 A 
BRANCH  13  18
HETATM   18  N1  UNL     1      -0.631  51.427 -24.454  1.00  0.00    -0.322 N 
HETATM   19  C3  UNL     1      -1.581  52.240 -23.886  1.00  0.00     0.244 C 
HETATM   20  O1  UNL     1      -2.213  53.132 -24.442  1.00  0.00    -0.268 OA
HETATM   21  H4  UNL     1      -0.451  50.559 -23.968  1.00  0.00     0.169 HD
BRANCH  19  22
HETATM   22  C2  UNL     1      -1.935  51.885 -22.484  1.00  0.00     0.064 C 
HETATM   23  C1  UNL     1      -3.185  51.752 -22.021  1.00  0.00     0.017 C 
ENDBRANCH  19  22
ENDBRANCH  13  18
ENDBRANCH  10  12
ENDBRANCH   1  10
BRANCH   4  24
HETATM   24  N4  UNL     1      -4.581  49.379 -30.400  1.00  0.00    -0.259 NA
HETATM   25  H10 UNL     1      -4.655  50.370 -30.609  1.00  0.00     0.131 HD
BRANCH  24  26
HETATM   26  C12 UNL     1      -5.706  48.547 -30.816  1.00  0.00     0.063 C 
HETATM   27  C13 UNL     1      -5.527  48.166 -32.299  1.00  0.00     0.022 C 
HETATM   28  C14 UNL     1      -4.608  46.959 -32.478  1.00  0.00     0.037 C 
HETATM   29  C15 UNL     1      -5.121  45.699 -31.740  1.00  0.00     0.222 C 
HETATM   30  C18 UNL     1      -6.181  46.040 -30.671  1.00  0.00     0.037 C 
HETATM   31  C19 UNL     1      -5.798  47.304 -29.907  1.00  0.00     0.022 C 
BRANCH  29  32
HETATM   32  N5  UNL     1      -5.508  44.631 -32.686  1.00  0.00     0.084 N 
HETATM   33  C16 UNL     1      -4.542  43.532 -32.708  1.00  0.00     0.309 C 
HETATM   34  C17 UNL     1      -6.861  44.111 -32.510  1.00  0.00     0.309 C 
ENDBRANCH  29  32
ENDBRANCH  24  26
ENDBRANCH   4  24
TORSDOF 7
ENDMDL
MODEL 4
REMARK minimizedAffinity -8.08627415
REMARK  7 active torsions:
REMARK  status: ('A' for Active; 'I' for Inactive)
REMARK    1  A    between atoms: C2_2  and  C3_3 
REMARK       I    between atoms: C3_3  and  N1_5 
REMARK    2  A    between atoms: N1_5  and  C4_6 
REMARK    3  A    between atoms: C9_11  and  N2_12 
REMARK    4  A    between atoms: N2_12  and  C10_13 
REMARK    5  A    between atoms: C11_16  and  N4_17 
REMARK    6  A    between atoms: N4_17  and  C12_18 
REMARK    7  A    between atoms: C15_21  and  N5_22 
ROOT
HETATM    1  C10 UNL     1      -2.607  50.653 -22.045  1.00  0.00     0.110 A 
HETATM    2  N3  UNL     1      -2.799  50.324 -23.342  1.00  0.00    -0.322 N 
ATOM      3  H3  UNL     1      -2.016  50.034 -23.927  1.00  0.00     0.169 HD
HETATM    4  C11 UNL     1      -4.038  50.386 -23.842  1.00  0.00     0.158 A 
HETATM    5  N6  UNL     1      -5.108  50.761 -23.133  1.00  0.00    -0.341 N 
ATOM      6  H6  UNL     1      -6.035  50.827 -23.555  1.00  0.00     0.167 HD
HETATM    7  C20 UNL     1      -4.901  51.047 -21.833  1.00  0.00     0.117 A 
HETATM    8  C21 UNL     1      -3.668  51.007 -21.223  1.00  0.00     0.088 A 
HETATM    9 CL1  UNL     1      -3.550  51.307 -19.535  1.00  0.00    -0.079 Cl
ENDROOT
BRANCH   1  10
HETATM   10  N2  UNL     1      -1.278  50.571 -21.598  1.00  0.00    -0.242 NA
HETATM   11  H9  UNL     1      -0.823  49.814 -22.128  1.00  0.00     0.135 HD
BRANCH  10  12
HETATM   12  C9  UNL     1      -0.323  51.608 -21.419  1.00  0.00     0.041 A 
HETATM   13  C4  UNL     1       0.165  51.931 -20.128  1.00  0.00     0.056 A 
HETATM   14  C5  UNL     1       0.977  53.067 -19.959  1.00  0.00     0.031 A 
HETATM   15  C6  UNL     1       1.370  53.841 -21.050  1.00  0.00     0.002 A 
HETATM   16  C7  UNL     1       0.947  53.494 -22.326  1.00  0.00     0.002 A 
HETATM   17  C8  UNL     1       0.107  52.394 -22.505  1.00  0.00     0.026 A 
BRANCH  13  18
HETATM   18  N1  UNL     1      -0.125  51.218 -18.936  1.00  0.00    -0.322 N 
HETATM   19  C3  UNL     1       0.330  51.489 -17.669  1.00  0.00     0.244 C 
HETATM   20  O1  UNL     1       0.971  52.473 -17.312  1.00  0.00    -0.268 OA
HETATM   21  H4  UNL     1      -0.890  50.560 -18.994  1.00  0.00     0.169 HD
BRANCH  19  22
HETATM   22  C2  UNL     1      -0.130  50.525 -16.632  1.00  0.00     0.064 C 
HETATM   23  C1  UNL     1      -0.109  49.191 -16.764  1.00  0.00     0.017 C 
ENDBRANCH  19  22
ENDBRANCH  13  18
ENDBRANCH  10  12
ENDBRANCH   1  10
BRANCH   4  24
HETATM   24  N4  UNL     1      -4.156  50.035 -25.178  1.00  0.00    -0.259 NA
HETATM   25  H10 UNL     1      -4.840  49.285 -25.192  1.00  0.00     0.131 HD
BRANCH  24  26
HETATM   26  C12 UNL     1      -2.910  49.782 -25.896  1.00  0.00     0.063 C 
HETATM   27  C13 UNL     1      -3.037  50.335 -27.329  1.00  0.00     0.022 C 
HETATM   28  C14 UNL     1      -2.737  51.831 -27.399  1.00  0.00     0.037 C 
HETATM   29  C15 UNL     1      -1.317  52.184 -26.896  1.00  0.00     0.222 C 
HETATM   30  C18 UNL     1      -0.694  51.044 -26.061  1.00  0.00     0.037 C 
HETATM   31  C19 UNL     1      -1.731  50.419 -25.132  1.00  0.00     0.022 C 
BRANCH  29  32
HETATM   32  N5  UNL     1      -0.462  52.699 -27.987  1.00  0.00     0.084 N 
HETATM   33  C16 UNL     1      -0.196  54.131 -27.854  1.00  0.00     0.309 C 
HETATM   34  C17 UNL     1       0.787  51.969 -28.189  1.00  0.00     0.309 C 
ENDBRANCH  29  32
ENDBRANCH  24  26
ENDBRANCH   4  24
TORSDOF 7
ENDMDL
MODEL 5
REMARK minimizedAffinity -8.08423519
REMARK  7 active torsions:
REMARK  status: ('A' for Active; 'I' for Inactive)
REMARK    1  A    between atoms: C2_2  and  C3_3 
REMARK       I    between atoms: C3_3  and  N1_5 
REMARK    2  A    between atoms: N1_5  and  C4_6 
REMARK    3  A    between atoms: C9_11  and  N2_12 
REMARK    4  A    between atoms: N2_12  and  C10_13 
REMARK    5  A    between atoms: C11_16  and  N4_17 
REMARK    6  A    between atoms: N4_17  and  C12_18 
REMARK    7  A    between atoms: C15_21  and  N5_22 
ROOT
HETATM    1  C10 UNL     1      -0.839  51.334 -25.916  1.00  0.00     0.110 A 
HETATM    2  N3  UNL     1      -0.878  51.666 -24.606  1.00  0.00    -0.322 N 
ATOM      3  H3  UNL     1      -1.551  51.228 -23.978  1.00  0.00     0.169 HD
HETATM    4  C11 UNL     1      -0.015  52.582 -24.152  1.00  0.00     0.158 A 
HETATM    5  N6  UNL     1       0.890  53.198 -24.921  1.00  0.00    -0.341 N 
ATOM      6  H6  UNL     1       1.512  53.914 -24.547  1.00  0.00     0.167 HD
HETATM    7  C20 UNL     1       0.938  52.823 -26.214  1.00  0.00     0.117 A 
HETATM    8  C21 UNL     1       0.100  51.887 -26.775  1.00  0.00     0.088 A 
HETATM    9 CL1  UNL     1       0.323  51.431 -28.418  1.00  0.00    -0.079 Cl
ENDROOT
BRANCH   1  10
HETATM   10  N2  UNL     1      -1.781  50.372 -26.317  1.00  0.00    -0.242 NA
HETATM   11  H9  UNL     1      -1.303  49.726 -26.961  1.00  0.00     0.135 HD
BRANCH  10  12
HETATM   12  C9  UNL     1      -2.678  49.606 -25.524  1.00  0.00     0.041 A 
HETATM   13  C4  UNL     1      -3.782  48.941 -26.114  1.00  0.00     0.056 A 
HETATM   14  C5  UNL     1      -4.745  48.333 -25.289  1.00  0.00     0.031 A 
HETATM   15  C6  UNL     1      -4.597  48.311 -23.903  1.00  0.00     0.002 A 
HETATM   16  C7  UNL     1      -3.487  48.907 -23.321  1.00  0.00     0.002 A 
HETATM   17  C8  UNL     1      -2.542  49.550 -24.123  1.00  0.00     0.026 A 
BRANCH  13  18
HETATM   18  N1  UNL     1      -4.043  48.854 -27.506  1.00  0.00    -0.322 N 
HETATM   19  C3  UNL     1      -5.081  48.199 -28.122  1.00  0.00     0.244 C 
HETATM   20  O1  UNL     1      -6.046  47.673 -27.576  1.00  0.00    -0.268 OA
HETATM   21  H4  UNL     1      -3.522  49.493 -28.089  1.00  0.00     0.169 HD
BRANCH  19  22
HETATM   22  C2  UNL     1      -5.054  48.266 -29.609  1.00  0.00     0.064 C 
HETATM   23  C1  UNL     1      -5.605  47.358 -30.426  1.00  0.00     0.017 C 
ENDBRANCH  19  22
ENDBRANCH  13  18
ENDBRANCH  10  12
ENDBRANCH   1  10
BRANCH   4  24
HETATM   24  N4  UNL     1      -0.116  52.871 -22.800  1.00  0.00    -0.259 NA
HETATM   25  H10 UNL     1       0.122  53.856 -22.724  1.00  0.00     0.131 HD
BRANCH  24  26
HETATM   26  C12 UNL     1       0.580  51.969 -21.887  1.00  0.00     0.063 C 
HETATM   27  C13 UNL     1       1.211  52.796 -20.749  1.00  0.00     0.022 C 
HETATM   28  C14 UNL     1       0.211  53.101 -19.636  1.00  0.00     0.037 C 
HETATM   29  C15 UNL     1      -0.387  51.824 -18.997  1.00  0.00     0.222 C 
HETATM   30  C18 UNL     1      -0.176  50.577 -19.882  1.00  0.00     0.037 C 
HETATM   31  C19 UNL     1      -0.404  50.908 -21.355  1.00  0.00     0.022 C 
BRANCH  29  32
HETATM   32  N5  UNL     1       0.032  51.670 -17.588  1.00  0.00     0.084 N 
HETATM   33  C16 UNL     1       0.164  50.265 -17.200  1.00  0.00     0.309 C 
HETATM   34  C17 UNL     1       1.234  52.412 -17.217  1.00  0.00     0.309 C 
ENDBRANCH  29  32
ENDBRANCH  24  26
ENDBRANCH   4  24
TORSDOF 7
ENDMDL
MODEL 6
REMARK minimizedAffinity -8.06624413
REMARK  7 active torsions:
REMARK  status: ('A' for Active; 'I' for Inactive)
REMARK    1  A    between atoms: C2_2  and  C3_3 
REMARK       I    between atoms: C3_3  and  N1_5 
REMARK    2  A    between atoms: N1_5  and  C4_6 
REMARK    3  A    between atoms: C9_11  and  N2_12 
REMARK    4  A    between atoms: N2_12  and  C10_13 
REMARK    5  A    between atoms: C11_16  and  N4_17 
REMARK    6  A    between atoms: N4_17  and  C12_18 
REMARK    7  A    between atoms: C15_21  and  N5_22 
ROOT
HETATM    1  C10 UNL     1      -1.450  49.242 -21.263  1.00  0.00     0.110 A 
HETATM    2  N3  UNL     1      -1.613  49.573 -22.563  1.00  0.00    -0.322 N 
ATOM      3  H3  UNL     1      -0.929  50.158 -23.041  1.00  0.00     0.169 HD
HETATM    4  C11 UNL     1      -2.692  49.115 -23.209  1.00  0.00     0.158 A 
HETATM    5  N6  UNL     1      -3.629  48.348 -22.643  1.00  0.00    -0.341 N 
ATOM      6  H6  UNL     1      -4.455  48.043 -23.157  1.00  0.00     0.167 HD
HETATM    7  C20 UNL     1      -3.426  47.999 -21.357  1.00  0.00     0.117 A 
HETATM    8  C21 UNL     1      -2.348  48.410 -20.609  1.00  0.00     0.088 A 
HETATM    9 CL1  UNL     1      -2.158  47.821 -19.005  1.00  0.00    -0.079 Cl
ENDROOT
BRANCH   1  10
HETATM   10  N2  UNL     1      -0.298  49.768 -20.652  1.00  0.00    -0.242 NA
HETATM   11  H9  UNL     1       0.511  49.271 -21.051  1.00  0.00     0.135 HD
BRANCH  10  12
HETATM   12  C9  UNL     1       0.077  51.124 -20.458  1.00  0.00     0.041 A 
HETATM   13  C4  UNL     1      -0.227  51.796 -19.248  1.00  0.00     0.056 A 
HETATM   14  C5  UNL     1       0.004  53.179 -19.147  1.00  0.00     0.031 A 
HETATM   15  C6  UNL     1       0.595  53.889 -20.191  1.00  0.00     0.002 A 
HETATM   16  C7  UNL     1       0.954  53.226 -21.356  1.00  0.00     0.002 A 
HETATM   17  C8  UNL     1       0.693  51.861 -21.488  1.00  0.00     0.026 A 
BRANCH  13  18
HETATM   18  N1  UNL     1      -0.801  51.197 -18.096  1.00  0.00    -0.322 N 
HETATM   19  C3  UNL     1      -2.128  51.164 -17.744  1.00  0.00     0.244 C 
HETATM   20  O1  UNL     1      -3.079  51.537 -18.425  1.00  0.00    -0.268 OA
HETATM   21  H4  UNL     1      -0.196  50.574 -17.580  1.00  0.00     0.169 HD
BRANCH  19  22
HETATM   22  C2  UNL     1      -2.403  50.488 -16.447  1.00  0.00     0.064 C 
HETATM   23  C1  UNL     1      -3.051  51.046 -15.415  1.00  0.00     0.017 C 
ENDBRANCH  19  22
ENDBRANCH  13  18
ENDBRANCH  10  12
ENDBRANCH   1  10
BRANCH   4  24
HETATM   24  N4  UNL     1      -2.791  49.497 -24.539  1.00  0.00    -0.259 NA
HETATM   25  H10 UNL     1      -2.265  48.796 -25.052  1.00  0.00     0.131 HD
BRANCH  24  26
HETATM   26  C12 UNL     1      -2.474  50.890 -24.841  1.00  0.00     0.063 C 
HETATM   27  C13 UNL     1      -0.947  51.034 -24.994  1.00  0.00     0.022 C 
HETATM   28  C14 UNL     1      -0.468  50.653 -26.394  1.00  0.00     0.037 C 
HETATM   29  C15 UNL     1      -1.123  51.506 -27.506  1.00  0.00     0.222 C 
HETATM   30  C18 UNL     1      -2.390  52.237 -27.011  1.00  0.00     0.037 C 
HETATM   31  C19 UNL     1      -3.227  51.329 -26.114  1.00  0.00     0.022 C 
BRANCH  29  32
HETATM   32  N5  UNL     1      -0.133  52.366 -28.190  1.00  0.00     0.084 N 
HETATM   33  C16 UNL     1      -0.228  53.764 -27.770  1.00  0.00     0.309 C 
HETATM   34  C17 UNL     1       1.250  51.904 -28.101  1.00  0.00     0.309 C 
ENDBRANCH  29  32
ENDBRANCH  24  26
ENDBRANCH   4  24
TORSDOF 7
ENDMDL
MODEL 7
REMARK minimizedAffinity -7.95214653
REMARK  7 active torsions:
REMARK  status: ('A' for Active; 'I' for Inactive)
REMARK    1  A    between atoms: C2_2  and  C3_3 
REMARK       I    between atoms: C3_3  and  N1_5 
REMARK    2  A    between atoms: N1_5  and  C4_6 
REMARK    3  A    between atoms: C9_11  and  N2_12 
REMARK    4  A    between atoms: N2_12  and  C10_13 
REMARK    5  A    between atoms: C11_16  and  N4_17 
REMARK    6  A    between atoms: N4_17  and  C12_18 
REMARK    7  A    between atoms: C15_21  and  N5_22 
ROOT
HETATM    1  C10 UNL     1      -2.715  52.118 -23.354  1.00  0.00     0.110 A 
HETATM    2  N3  UNL     1      -1.684  51.936 -22.500  1.00  0.00    -0.322 N 
ATOM      3  H3  UNL     1      -0.729  52.155 -22.782  1.00  0.00     0.169 HD
HETATM    4  C11 UNL     1      -1.943  51.462 -21.276  1.00  0.00     0.158 A 
HETATM    5  N6  UNL     1      -3.169  51.151 -20.842  1.00  0.00    -0.341 N 
ATOM      6  H6  UNL     1      -3.326  50.763 -19.912  1.00  0.00     0.167 HD
HETATM    7  C20 UNL     1      -4.186  51.377 -21.696  1.00  0.00     0.117 A 
HETATM    8  C21 UNL     1      -4.025  51.867 -22.972  1.00  0.00     0.088 A 
HETATM    9 CL1  UNL     1      -5.413  52.196 -23.932  1.00  0.00    -0.079 Cl
ENDROOT
BRANCH   1  10
HETATM   10  N2  UNL     1      -2.361  52.609 -24.622  1.00  0.00    -0.242 NA
HETATM   11  H9  UNL     1      -2.449  53.635 -24.587  1.00  0.00     0.135 HD
BRANCH  10  12
HETATM   12  C9  UNL     1      -1.229  52.299 -25.424  1.00  0.00     0.041 A 
HETATM   13  C4  UNL     1      -1.088  51.019 -26.016  1.00  0.00     0.056 A 
HETATM   14  C5  UNL     1       0.115  50.684 -26.661  1.00  0.00     0.031 A 
HETATM   15  C6  UNL     1       1.146  51.613 -26.792  1.00  0.00     0.002 A 
HETATM   16  C7  UNL     1       0.991  52.889 -26.269  1.00  0.00     0.002 A 
HETATM   17  C8  UNL     1      -0.181  53.225 -25.589  1.00  0.00     0.026 A 
BRANCH  13  18
HETATM   18  N1  UNL     1      -2.062  49.987 -25.989  1.00  0.00    -0.322 N 
HETATM   19  C3  UNL     1      -2.974  49.674 -26.968  1.00  0.00     0.244 C 
HETATM   20  O1  UNL     1      -3.031  50.147 -28.099  1.00  0.00    -0.268 OA
HETATM   21  H4  UNL     1      -1.951  49.298 -25.259  1.00  0.00     0.169 HD
BRANCH  19  22
HETATM   22  C2  UNL     1      -3.890  48.554 -26.618  1.00  0.00     0.064 C 
HETATM   23  C1  UNL     1      -4.669  48.515 -25.528  1.00  0.00     0.017 C 
ENDBRANCH  19  22
ENDBRANCH  13  18
ENDBRANCH  10  12
ENDBRANCH   1  10
BRANCH   4  24
HETATM   24  N4  UNL     1      -0.835  51.301 -20.457  1.00  0.00    -0.259 NA
HETATM   25  H10 UNL     1      -0.726  50.296 -20.360  1.00  0.00     0.131 HD
BRANCH  24  26
HETATM   26  C12 UNL     1      -0.825  52.072 -19.217  1.00  0.00     0.063 C 
HETATM   27  C13 UNL     1      -1.335  51.181 -18.068  1.00  0.00     0.022 C 
HETATM   28  C14 UNL     1      -0.233  50.296 -17.490  1.00  0.00     0.037 C 
HETATM   29  C15 UNL     1       0.965  51.108 -16.943  1.00  0.00     0.222 C 
HETATM   30  C18 UNL     1       0.976  52.559 -17.471  1.00  0.00     0.037 C 
HETATM   31  C19 UNL     1       0.598  52.604 -18.949  1.00  0.00     0.022 C 
BRANCH  29  32
HETATM   32  N5  UNL     1       1.091  50.975 -15.476  1.00  0.00     0.084 N 
HETATM   33  C16 UNL     1       2.282  51.648 -14.958  1.00  0.00     0.309 C 
HETATM   34  C17 UNL     1      -0.089  51.381 -14.717  1.00  0.00     0.309 C 
ENDBRANCH  29  32
ENDBRANCH  24  26
ENDBRANCH   4  24
TORSDOF 7
ENDMDL
MODEL 8
REMARK minimizedAffinity -7.95007706
REMARK  7 active torsions:
REMARK  status: ('A' for Active; 'I' for Inactive)
REMARK    1  A    between atoms: C2_2  and  C3_3 
REMARK       I    between atoms: C3_3  and  N1_5 
REMARK    2  A    between atoms: N1_5  and  C4_6 
REMARK    3  A    between atoms: C9_11  and  N2_12 
REMARK    4  A    between atoms: N2_12  and  C10_13 
REMARK    5  A    between atoms: C11_16  and  N4_17 
REMARK    6  A    between atoms: N4_17  and  C12_18 
REMARK    7  A    between atoms: C15_21  and  N5_22 
ROOT
HETATM    1  C10 UNL     1      -2.363  51.039 -23.266  1.00  0.00     0.110 A 
HETATM    2  N3  UNL     1      -2.371  50.678 -21.964  1.00  0.00    -0.322 N 
ATOM      3  H3  UNL     1      -1.614  50.117 -21.574  1.00  0.00     0.169 HD
HETATM    4  C11 UNL     1      -3.395  51.072 -21.197  1.00  0.00     0.158 A 
HETATM    5  N6  UNL     1      -4.420  51.804 -21.643  1.00  0.00    -0.341 N 
ATOM      6  H6  UNL     1      -5.200  52.061 -21.038  1.00  0.00     0.167 HD
HETATM    7  C20 UNL     1      -4.372  52.186 -22.935  1.00  0.00     0.117 A 
HETATM    8  C21 UNL     1      -3.361  51.839 -23.802  1.00  0.00     0.088 A 
HETATM    9 CL1  UNL     1      -3.371  52.466 -25.403  1.00  0.00    -0.079 Cl
ENDROOT
BRANCH   1  10
HETATM   10  N2  UNL     1      -1.260  50.580 -24.006  1.00  0.00    -0.242 NA
HETATM   11  H9  UNL     1      -1.423  49.584 -24.211  1.00  0.00     0.135 HD
BRANCH  10  12
HETATM   12  C9  UNL     1      -0.636  51.160 -25.144  1.00  0.00     0.041 A 
HETATM   13  C4  UNL     1       0.208  52.291 -25.012  1.00  0.00     0.056 A 
HETATM   14  C5  UNL     1       0.675  52.944 -26.166  1.00  0.00     0.031 A 
HETATM   15  C6  UNL     1       0.381  52.457 -27.439  1.00  0.00     0.002 A 
HETATM   16  C7  UNL     1      -0.394  51.314 -27.575  1.00  0.00     0.002 A 
HETATM   17  C8  UNL     1      -0.899  50.677 -26.440  1.00  0.00     0.026 A 
BRANCH  13  18
HETATM   18  N1  UNL     1       0.615  52.876 -23.785  1.00  0.00    -0.322 N 
HETATM   19  C3  UNL     1       1.046  54.163 -23.576  1.00  0.00     0.244 C 
HETATM   20  O1  UNL     1       1.040  55.082 -24.389  1.00  0.00    -0.268 OA
HETATM   21  H4  UNL     1       0.387  52.351 -22.953  1.00  0.00     0.169 HD
BRANCH  19  22
HETATM   22  C2  UNL     1       1.439  54.458 -22.171  1.00  0.00     0.064 C 
HETATM   23  C1  UNL     1       1.521  53.547 -21.192  1.00  0.00     0.017 C 
ENDBRANCH  19  22
ENDBRANCH  13  18
ENDBRANCH  10  12
ENDBRANCH   1  10
BRANCH   4  24
HETATM   24  N4  UNL     1      -3.334  50.662 -19.873  1.00  0.00    -0.259 NA
HETATM   25  H10 UNL     1      -4.289  50.415 -19.632  1.00  0.00     0.131 HD
BRANCH  24  26
HETATM   26  C12 UNL     1      -2.647  51.556 -18.946  1.00  0.00     0.063 C 
HETATM   27  C13 UNL     1      -2.580  50.885 -17.560  1.00  0.00     0.022 C 
HETATM   28  C14 UNL     1      -1.407  49.914 -17.445  1.00  0.00     0.037 C 
HETATM   29  C15 UNL     1      -0.038  50.593 -17.692  1.00  0.00     0.222 C 
HETATM   30  C18 UNL     1      -0.184  51.958 -18.399  1.00  0.00     0.037 C 
HETATM   31  C19 UNL     1      -1.245  51.895 -19.493  1.00  0.00     0.022 C 
BRANCH  29  32
HETATM   32  N5  UNL     1       0.794  50.607 -16.470  1.00  0.00     0.084 N 
HETATM   33  C16 UNL     1       1.262  51.952 -16.133  1.00  0.00     0.309 C 
HETATM   34  C17 UNL     1       0.185  49.977 -15.302  1.00  0.00     0.309 C 
ENDBRANCH  29  32
ENDBRANCH  24  26
ENDBRANCH   4  24
TORSDOF 7
ENDMDL
MODEL 9
REMARK minimizedAffinity -7.94018221
REMARK  7 active torsions:
REMARK  status: ('A' for Active; 'I' for Inactive)
REMARK    1  A    between atoms: C2_2  and  C3_3 
REMARK       I    between atoms: C3_3  and  N1_5 
REMARK    2  A    between atoms: N1_5  and  C4_6 
REMARK    3  A    between atoms: C9_11  and  N2_12 
REMARK    4  A    between atoms: N2_12  and  C10_13 
REMARK    5  A    between atoms: C11_16  and  N4_17 
REMARK    6  A    between atoms: N4_17  and  C12_18 
REMARK    7  A    between atoms: C15_21  and  N5_22 
ROOT
HETATM    1  C10 UNL     1       0.022  52.348 -21.559  1.00  0.00     0.110 A 
HETATM    2  N3  UNL     1      -0.337  51.739 -20.408  1.00  0.00    -0.322 N 
ATOM      3  H3  UNL     1      -0.822  50.842 -20.422  1.00  0.00     0.169 HD
HETATM    4  C11 UNL     1      -0.040  52.336 -19.248  1.00  0.00     0.158 A 
HETATM    5  N6  UNL     1       0.591  53.511 -19.156  1.00  0.00    -0.341 N 
ATOM      6  H6  UNL     1       0.773  53.953 -18.255  1.00  0.00     0.167 HD
HETATM    7  C20 UNL     1       0.973  54.083 -20.315  1.00  0.00     0.117 A 
HETATM    8  C21 UNL     1       0.722  53.546 -21.557  1.00  0.00     0.088 A 
HETATM    9 CL1  UNL     1       1.343  54.329 -22.956  1.00  0.00    -0.079 Cl
ENDROOT
BRANCH   1  10
HETATM   10  N2  UNL     1      -0.332  51.663 -22.734  1.00  0.00    -0.242 NA
HETATM   11  H9  UNL     1      -0.125  50.666 -22.579  1.00  0.00     0.135 HD
BRANCH  10  12
HETATM   12  C9  UNL     1      -1.528  51.744 -23.497  1.00  0.00     0.041 A 
HETATM   13  C4  UNL     1      -1.486  51.746 -24.914  1.00  0.00     0.056 A 
HETATM   14  C5  UNL     1      -2.664  51.996 -25.641  1.00  0.00     0.031 A 
HETATM   15  C6  UNL     1      -3.886  52.171 -24.994  1.00  0.00     0.002 A 
HETATM   16  C7  UNL     1      -3.946  52.107 -23.609  1.00  0.00     0.002 A 
HETATM   17  C8  UNL     1      -2.779  51.901 -22.871  1.00  0.00     0.026 A 
BRANCH  13  18
HETATM   18  N1  UNL     1      -0.323  51.553 -25.704  1.00  0.00    -0.322 N 
HETATM   19  C3  UNL     1       0.447  52.516 -26.307  1.00  0.00     0.244 C 
HETATM   20  O1  UNL     1       0.345  53.732 -26.170  1.00  0.00    -0.268 OA
HETATM   21  H4  UNL     1       0.084  50.629 -25.663  1.00  0.00     0.169 HD
BRANCH  19  22
HETATM   22  C2  UNL     1       1.586  51.983 -27.103  1.00  0.00     0.064 C 
HETATM   23  C1  UNL     1       2.643  51.338 -26.589  1.00  0.00     0.017 C 
ENDBRANCH  19  22
ENDBRANCH  13  18
ENDBRANCH  10  12
ENDBRANCH   1  10
BRANCH   4  24
HETATM   24  N4  UNL     1      -0.440  51.651 -18.110  1.00  0.00    -0.259 NA
HETATM   25  H10 UNL     1      -0.835  52.362 -17.502  1.00  0.00     0.131 HD
BRANCH  24  26
HETATM   26  C12 UNL     1       0.548  50.763 -17.504  1.00  0.00     0.063 C 
HETATM   27  C13 UNL     1       1.343  51.548 -16.443  1.00  0.00     0.022 C 
HETATM   28  C14 UNL     1       0.616  51.604 -15.101  1.00  0.00     0.037 C 
HETATM   29  C15 UNL     1       0.329  50.201 -14.514  1.00  0.00     0.222 C 
HETATM   30  C18 UNL     1       0.451  49.088 -15.577  1.00  0.00     0.037 C 
HETATM   31  C19 UNL     1      -0.160  49.532 -16.903  1.00  0.00     0.022 C 
BRANCH  29  32
HETATM   32  N5  UNL     1       1.090  49.963 -13.269  1.00  0.00     0.084 N 
HETATM   33  C16 UNL     1       2.370  49.301 -13.520  1.00  0.00     0.309 C 
HETATM   34  C17 UNL     1       1.288  51.143 -12.432  1.00  0.00     0.309 C 
ENDBRANCH  29  32
ENDBRANCH  24  26
ENDBRANCH   4  24
TORSDOF 7
ENDMDL
