MODEL 1
REMARK minimizedAffinity -7.77710485
REMARK CNNscore 0.599104881
REMARK CNNaffinity 6.12563944
REMARK  7 active torsions:
REMARK  status: ('A' for Active; 'I' for Inactive)
REMARK       I    between atoms: C1_2  and  N1_3 
REMARK    1  A    between atoms: C1_2  and  C8_12 
REMARK    2  A    between atoms: N1_3  and  C2_4 
REMARK    3  A    between atoms: C5_7  and  O2_8 
REMARK    4  A    between atoms: N2_15  and  C11_16 
REMARK    5  A    between atoms: C11_16  and  C12_17 
REMARK       I    between atoms: C12_17  and  N3_19 
REMARK    6  A    between atoms: N4_22  and  C15_23 
REMARK    7  A    between atoms: C18_26  and  C19_27 
ROOT
HETATM    1  C12 UNL     1      -8.180  46.650 -29.397  1.00  0.00     0.248 C 
HETATM    2  O3  UNL     1      -8.115  46.844 -30.614  1.00  0.00    -0.271 OA
HETATM    3  N3  UNL     1      -9.415  46.466 -28.763  1.00  0.00    -0.348 N 
HETATM    4  C13 UNL     1      -9.559  45.888 -27.418  1.00  0.00     0.140 C 
HETATM    5  C14 UNL     1     -10.894  46.250 -26.737  1.00  0.00     0.115 C 
HETATM    6  N4  UNL     1     -12.034  45.971 -27.640  1.00  0.00    -0.280 NA
HETATM    7  C24 UNL     1     -11.909  46.684 -28.928  1.00  0.00     0.115 C 
HETATM    8  C25 UNL     1     -10.592  46.306 -29.626  1.00  0.00     0.140 C 
ENDROOT
BRANCH   1   9
HETATM    9  C11 UNL     1      -6.932  46.584 -28.490  1.00  0.00     0.374 C 
BRANCH   9  10
HETATM   10  N2  UNL     1      -6.404  47.908 -28.101  1.00  0.00     0.098 N 
HETATM   11  C10 UNL     1      -5.122  48.226 -28.754  1.00  0.00     0.274 C 
HETATM   12  C9  UNL     1      -4.235  48.811 -27.669  1.00  0.00     0.046 C 
HETATM   13  C8  UNL     1      -4.697  48.064 -26.431  1.00  0.00     0.108 C 
HETATM   14  C26 UNL     1      -6.204  48.011 -26.644  1.00  0.00     0.287 C 
BRANCH  13  15
HETATM   15  C1  UNL     1      -4.305  48.718 -25.115  1.00  0.00     0.228 C 
HETATM   16  O1  UNL     1      -4.942  48.529 -24.084  1.00  0.00    -0.273 OA
HETATM   17  N1  UNL     1      -3.143  49.467 -25.227  1.00  0.00    -0.327 N 
HETATM   18  H1  UNL     1      -2.731  49.529 -26.149  1.00  0.00     0.169 HD
BRANCH  17  19
HETATM   19  C2  UNL     1      -2.456  50.154 -24.202  1.00  0.00     0.036 A 
HETATM   20  C3  UNL     1      -2.295  51.538 -24.365  1.00  0.00     0.032 A 
HETATM   21  C4  UNL     1      -1.613  52.298 -23.414  1.00  0.00     0.040 A 
HETATM   22  C5  UNL     1      -1.081  51.672 -22.296  1.00  0.00     0.087 A 
HETATM   23  C6  UNL     1      -1.229  50.297 -22.121  1.00  0.00     0.069 A 
HETATM   24 CL1  UNL     1      -0.549  49.525 -20.734  1.00  0.00    -0.081 Cl
HETATM   25  C7  UNL     1      -1.919  49.538 -23.068  1.00  0.00     0.056 A 
BRANCH  22  26
HETATM   26  O2  UNL     1      -0.417  52.456 -21.394  1.00  0.00    -0.359 OA
HETATM   27  H4  UNL     1      -0.098  51.867 -20.683  1.00  0.00     0.217 HD
ENDBRANCH  22  26
ENDBRANCH  17  19
ENDBRANCH  13  15
ENDBRANCH   9  10
ENDBRANCH   1   9
BRANCH   6  28
HETATM   28  C15 UNL     1     -13.279  45.998 -26.993  1.00  0.00     0.010 A 
HETATM   29  C16 UNL     1     -14.365  45.319 -27.566  1.00  0.00     0.024 A 
HETATM   30  C17 UNL     1     -15.635  45.321 -26.974  1.00  0.00     0.016 A 
HETATM   31  C18 UNL     1     -15.868  46.014 -25.783  1.00  0.00    -0.001 A 
HETATM   32  C22 UNL     1     -14.795  46.706 -25.208  1.00  0.00     0.016 A 
HETATM   33  C23 UNL     1     -13.524  46.698 -25.806  1.00  0.00     0.024 A 
BRANCH  31  34
HETATM   34  C19 UNL     1     -17.186  46.038 -25.163  1.00  0.00     0.102 A 
HETATM   35  C20 UNL     1     -18.128  45.095 -24.805  1.00  0.00     0.127 A 
HETATM   36  N5  UNL     1     -19.220  45.703 -24.236  1.00  0.00    -0.354 N 
HETATM   37  C21 UNL     1     -18.910  46.978 -24.273  1.00  0.00     0.233 A 
ATOM     38  H5  UNL     1     -20.069  45.268 -23.873  1.00  0.00     0.166 HD
HETATM   39  O4  UNL     1     -17.697  47.265 -24.815  1.00  0.00    -0.304 OA
ENDBRANCH  31  34
ENDBRANCH   6  28
TORSDOF 7
ENDMDL
MODEL 2
REMARK minimizedAffinity -7.84549427
REMARK CNNscore 0.568153977
REMARK CNNaffinity 6.06918335
REMARK  7 active torsions:
REMARK  status: ('A' for Active; 'I' for Inactive)
REMARK       I    between atoms: C1_2  and  N1_3 
REMARK    1  A    between atoms: C1_2  and  C8_12 
REMARK    2  A    between atoms: N1_3  and  C2_4 
REMARK    3  A    between atoms: C5_7  and  O2_8 
REMARK    4  A    between atoms: N2_15  and  C11_16 
REMARK    5  A    between atoms: C11_16  and  C12_17 
REMARK       I    between atoms: C12_17  and  N3_19 
REMARK    6  A    between atoms: N4_22  and  C15_23 
REMARK    7  A    between atoms: C18_26  and  C19_27 
ROOT
HETATM    1  C12 UNL     1      -7.654  46.605 -25.380  1.00  0.00     0.248 C 
HETATM    2  O3  UNL     1      -7.640  46.284 -26.571  1.00  0.00    -0.271 OA
HETATM    3  N3  UNL     1      -6.685  47.469 -24.855  1.00  0.00    -0.348 N 
HETATM    4  C13 UNL     1      -6.831  48.168 -23.570  1.00  0.00     0.140 C 
HETATM    5  C14 UNL     1      -5.488  48.628 -22.967  1.00  0.00     0.115 C 
HETATM    6  N4  UNL     1      -4.691  49.368 -23.972  1.00  0.00    -0.280 NA
HETATM    7  C24 UNL     1      -4.455  48.570 -25.193  1.00  0.00     0.115 C 
HETATM    8  C25 UNL     1      -5.793  48.132 -25.814  1.00  0.00     0.140 C 
ENDROOT
BRANCH   1   9
HETATM    9  C11 UNL     1      -8.726  46.100 -24.387  1.00  0.00     0.374 C 
BRANCH   9  10
HETATM   10  N2  UNL     1      -9.862  45.411 -25.034  1.00  0.00     0.098 N 
HETATM   11  C10 UNL     1      -9.669  45.229 -26.483  1.00  0.00     0.274 C 
HETATM   12  C9  UNL     1     -10.991  45.601 -27.130  1.00  0.00     0.046 C 
HETATM   13  C8  UNL     1     -11.513  46.686 -26.206  1.00  0.00     0.108 C 
HETATM   14  C26 UNL     1     -11.128  46.141 -24.837  1.00  0.00     0.287 C 
BRANCH  13  15
HETATM   15  C1  UNL     1     -13.003  46.964 -26.337  1.00  0.00     0.228 C 
HETATM   16  O1  UNL     1     -13.426  48.043 -26.741  1.00  0.00    -0.273 OA
HETATM   17  N1  UNL     1     -13.774  45.857 -26.015  1.00  0.00    -0.327 N 
HETATM   18  H1  UNL     1     -13.277  45.036 -25.697  1.00  0.00     0.169 HD
BRANCH  17  19
HETATM   19  C2  UNL     1     -15.179  45.733 -26.087  1.00  0.00     0.036 A 
HETATM   20  C3  UNL     1     -15.696  45.007 -27.171  1.00  0.00     0.032 A 
HETATM   21  C4  UNL     1     -17.072  44.847 -27.337  1.00  0.00     0.040 A 
HETATM   22  C5  UNL     1     -17.940  45.421 -26.419  1.00  0.00     0.087 A 
HETATM   23  C6  UNL     1     -17.442  46.149 -25.339  1.00  0.00     0.069 A 
HETATM   24 CL1  UNL     1     -18.531  46.873 -24.211  1.00  0.00    -0.081 Cl
HETATM   25  C7  UNL     1     -16.066  46.302 -25.168  1.00  0.00     0.056 A 
BRANCH  22  26
HETATM   26  O2  UNL     1     -19.279  45.243 -26.625  1.00  0.00    -0.359 OA
HETATM   27  H4  UNL     1     -19.745  45.715 -25.907  1.00  0.00     0.217 HD
ENDBRANCH  22  26
ENDBRANCH  17  19
ENDBRANCH  13  15
ENDBRANCH   9  10
ENDBRANCH   1   9
BRANCH   6  28
HETATM   28  C15 UNL     1      -3.601  50.060 -23.421  1.00  0.00     0.010 A 
HETATM   29  C16 UNL     1      -3.491  51.444 -23.629  1.00  0.00     0.024 A 
HETATM   30  C17 UNL     1      -2.420  52.186 -23.115  1.00  0.00     0.016 A 
HETATM   31  C18 UNL     1      -1.409  51.565 -22.375  1.00  0.00    -0.001 A 
HETATM   32  C22 UNL     1      -1.501  50.183 -22.172  1.00  0.00     0.016 A 
HETATM   33  C23 UNL     1      -2.580  49.446 -22.688  1.00  0.00     0.024 A 
BRANCH  31  34
HETATM   34  C19 UNL     1      -0.282  52.321 -21.847  1.00  0.00     0.102 A 
HETATM   35  C20 UNL     1       0.685  53.154 -22.374  1.00  0.00     0.127 A 
HETATM   36  N5  UNL     1       1.521  53.604 -21.381  1.00  0.00    -0.354 N 
HETATM   37  C21 UNL     1       1.042  53.033 -20.301  1.00  0.00     0.233 A 
ATOM     38  H5  UNL     1       2.321  54.232 -21.464  1.00  0.00     0.166 HD
HETATM   39  O4  UNL     1      -0.048  52.244 -20.495  1.00  0.00    -0.304 OA
ENDBRANCH  31  34
ENDBRANCH   6  28
TORSDOF 7
ENDMDL
MODEL 3
REMARK minimizedAffinity -7.69672155
REMARK CNNscore 0.504658937
REMARK CNNaffinity 5.84296656
REMARK  7 active torsions:
REMARK  status: ('A' for Active; 'I' for Inactive)
REMARK       I    between atoms: C1_2  and  N1_3 
REMARK    1  A    between atoms: C1_2  and  C8_12 
REMARK    2  A    between atoms: N1_3  and  C2_4 
REMARK    3  A    between atoms: C5_7  and  O2_8 
REMARK    4  A    between atoms: N2_15  and  C11_16 
REMARK    5  A    between atoms: C11_16  and  C12_17 
REMARK       I    between atoms: C12_17  and  N3_19 
REMARK    6  A    between atoms: N4_22  and  C15_23 
REMARK    7  A    between atoms: C18_26  and  C19_27 
ROOT
HETATM    1  C12 UNL     1      -7.904  46.948 -23.833  1.00  0.00     0.248 C 
HETATM    2  O3  UNL     1      -8.148  45.886 -23.254  1.00  0.00    -0.271 OA
HETATM    3  N3  UNL     1      -6.788  47.719 -23.485  1.00  0.00    -0.348 N 
HETATM    4  C13 UNL     1      -6.237  48.782 -24.338  1.00  0.00     0.140 C 
HETATM    5  C14 UNL     1      -5.379  49.804 -23.566  1.00  0.00     0.115 C 
HETATM    6  N4  UNL     1      -4.369  49.114 -22.731  1.00  0.00    -0.280 NA
HETATM    7  C24 UNL     1      -4.986  48.153 -21.793  1.00  0.00     0.115 C 
HETATM    8  C25 UNL     1      -5.820  47.113 -22.561  1.00  0.00     0.140 C 
ENDROOT
BRANCH   1   9
HETATM    9  C11 UNL     1      -8.784  47.501 -24.976  1.00  0.00     0.374 C 
BRANCH   9  10
HETATM   10  N2  UNL     1      -9.760  46.525 -25.506  1.00  0.00     0.098 N 
HETATM   11  C10 UNL     1      -9.906  46.602 -26.970  1.00  0.00     0.274 C 
HETATM   12  C9  UNL     1     -11.398  46.536 -27.244  1.00  0.00     0.046 C 
HETATM   13  C8  UNL     1     -11.984  47.234 -26.030  1.00  0.00     0.108 C 
HETATM   14  C26 UNL     1     -11.096  46.710 -24.910  1.00  0.00     0.287 C 
BRANCH  13  15
HETATM   15  C1  UNL     1     -13.461  46.958 -25.795  1.00  0.00     0.228 C 
HETATM   16  O1  UNL     1     -14.223  46.686 -26.718  1.00  0.00    -0.273 OA
HETATM   17  N1  UNL     1     -13.793  46.989 -24.449  1.00  0.00    -0.327 N 
HETATM   18  H1  UNL     1     -13.052  47.229 -23.804  1.00  0.00     0.169 HD
BRANCH  17  19
HETATM   19  C2  UNL     1     -15.050  46.716 -23.863  1.00  0.00     0.036 A 
HETATM   20  C3  UNL     1     -15.039  46.096 -22.604  1.00  0.00     0.032 A 
HETATM   21  C4  UNL     1     -16.230  45.769 -21.955  1.00  0.00     0.040 A 
HETATM   22  C5  UNL     1     -17.441  46.056 -22.569  1.00  0.00     0.087 A 
HETATM   23  C6  UNL     1     -17.468  46.668 -23.821  1.00  0.00     0.069 A 
HETATM   24 CL1  UNL     1     -18.981  47.006 -24.583  1.00  0.00    -0.081 Cl
HETATM   25  C7  UNL     1     -16.277  47.003 -24.467  1.00  0.00     0.056 A 
BRANCH  22  26
HETATM   26  O2  UNL     1     -18.581  45.713 -21.898  1.00  0.00    -0.359 OA
HETATM   27  H4  UNL     1     -19.335  45.968 -22.466  1.00  0.00     0.217 HD
ENDBRANCH  22  26
ENDBRANCH  17  19
ENDBRANCH  13  15
ENDBRANCH   9  10
ENDBRANCH   1   9
BRANCH   6  28
HETATM   28  C15 UNL     1      -3.376  49.971 -22.233  1.00  0.00     0.010 A 
HETATM   29  C16 UNL     1      -2.217  50.193 -22.993  1.00  0.00     0.024 A 
HETATM   30  C17 UNL     1      -1.186  51.027 -22.543  1.00  0.00     0.016 A 
HETATM   31  C18 UNL     1      -1.273  51.668 -21.304  1.00  0.00    -0.001 A 
HETATM   32  C22 UNL     1      -2.419  51.445 -20.531  1.00  0.00     0.016 A 
HETATM   33  C23 UNL     1      -3.451  50.609 -20.990  1.00  0.00     0.024 A 
BRANCH  31  34
HETATM   34  C19 UNL     1      -0.203  52.527 -20.816  1.00  0.00     0.102 A 
HETATM   35  C20 UNL     1       0.292  52.885 -19.578  1.00  0.00     0.127 A 
HETATM   36  N5  UNL     1       1.348  53.752 -19.718  1.00  0.00    -0.354 N 
HETATM   37  C21 UNL     1       1.454  53.892 -21.019  1.00  0.00     0.233 A 
ATOM     38  H5  UNL     1       1.914  54.183 -18.986  1.00  0.00     0.166 HD
HETATM   39  O4  UNL     1       0.557  53.183 -21.754  1.00  0.00    -0.304 OA
ENDBRANCH  31  34
ENDBRANCH   6  28
TORSDOF 7
ENDMDL
MODEL 4
REMARK minimizedAffinity -7.78354645
REMARK CNNscore 0.48107487
REMARK CNNaffinity 5.56347847
REMARK  7 active torsions:
REMARK  status: ('A' for Active; 'I' for Inactive)
REMARK       I    between atoms: C1_2  and  N1_3 
REMARK    1  A    between atoms: C1_2  and  C8_12 
REMARK    2  A    between atoms: N1_3  and  C2_4 
REMARK    3  A    between atoms: C5_7  and  O2_8 
REMARK    4  A    between atoms: N2_15  and  C11_16 
REMARK    5  A    between atoms: C11_16  and  C12_17 
REMARK       I    between atoms: C12_17  and  N3_19 
REMARK    6  A    between atoms: N4_22  and  C15_23 
REMARK    7  A    between atoms: C18_26  and  C19_27 
ROOT
HETATM    1  C12 UNL     1      -8.704  46.576 -22.727  1.00  0.00     0.248 C 
HETATM    2  O3  UNL     1      -8.739  46.071 -21.601  1.00  0.00    -0.271 OA
HETATM    3  N3  UNL     1      -7.522  47.131 -23.231  1.00  0.00    -0.348 N 
HETATM    4  C13 UNL     1      -7.304  47.421 -24.656  1.00  0.00     0.140 C 
HETATM    5  C14 UNL     1      -6.197  48.465 -24.906  1.00  0.00     0.115 C 
HETATM    6  N4  UNL     1      -4.965  48.107 -24.166  1.00  0.00    -0.280 NA
HETATM    7  C24 UNL     1      -5.210  47.960 -22.717  1.00  0.00     0.115 C 
HETATM    8  C25 UNL     1      -6.294  46.899 -22.460  1.00  0.00     0.140 C 
ENDROOT
BRANCH   1   9
HETATM    9  C11 UNL     1      -9.934  46.628 -23.661  1.00  0.00     0.374 C 
BRANCH   9  10
HETATM   10  N2  UNL     1     -11.096  45.863 -23.163  1.00  0.00     0.098 N 
HETATM   11  C10 UNL     1     -11.615  44.904 -24.155  1.00  0.00     0.274 C 
HETATM   12  C9  UNL     1     -13.127  45.046 -24.121  1.00  0.00     0.046 C 
HETATM   13  C8  UNL     1     -13.309  46.518 -23.795  1.00  0.00     0.108 C 
HETATM   14  C26 UNL     1     -12.207  46.749 -22.770  1.00  0.00     0.287 C 
BRANCH  13  15
HETATM   15  C1  UNL     1     -14.691  46.882 -23.274  1.00  0.00     0.228 C 
HETATM   16  O1  UNL     1     -15.337  47.811 -23.749  1.00  0.00    -0.273 OA
HETATM   17  N1  UNL     1     -15.123  46.015 -22.281  1.00  0.00    -0.327 N 
HETATM   18  H1  UNL     1     -14.474  45.294 -21.995  1.00  0.00     0.169 HD
BRANCH  17  19
HETATM   19  C2  UNL     1     -16.373  46.010 -21.622  1.00  0.00     0.036 A 
HETATM   20  C3  UNL     1     -16.471  46.772 -20.448  1.00  0.00     0.032 A 
HETATM   21  C4  UNL     1     -17.659  46.814 -19.717  1.00  0.00     0.040 A 
HETATM   22  C5  UNL     1     -18.755  46.086 -20.156  1.00  0.00     0.087 A 
HETATM   23  C6  UNL     1     -18.672  45.321 -21.319  1.00  0.00     0.069 A 
HETATM   24 CL1  UNL     1     -20.037  44.405 -21.849  1.00  0.00    -0.081 Cl
HETATM   25  C7  UNL     1     -17.487  45.285 -22.055  1.00  0.00     0.056 A 
BRANCH  22  26
HETATM   26  O2  UNL     1     -19.895  46.153 -19.406  1.00  0.00    -0.359 OA
HETATM   27  H4  UNL     1     -20.558  45.580 -19.840  1.00  0.00     0.217 HD
ENDBRANCH  22  26
ENDBRANCH  17  19
ENDBRANCH  13  15
ENDBRANCH   9  10
ENDBRANCH   1   9
BRANCH   6  28
HETATM   28  C15 UNL     1      -3.839  48.840 -24.570  1.00  0.00     0.010 A 
HETATM   29  C16 UNL     1      -3.403  48.750 -25.902  1.00  0.00     0.024 A 
HETATM   30  C17 UNL     1      -2.278  49.448 -26.361  1.00  0.00     0.016 A 
HETATM   31  C18 UNL     1      -1.538  50.261 -25.496  1.00  0.00    -0.001 A 
HETATM   32  C22 UNL     1      -1.956  50.348 -24.163  1.00  0.00     0.016 A 
HETATM   33  C23 UNL     1      -3.087  49.648 -23.710  1.00  0.00     0.024 A 
BRANCH  31  34
HETATM   34  C19 UNL     1      -0.358  50.980 -25.955  1.00  0.00     0.102 A 
HETATM   35  C20 UNL     1       0.306  51.128 -27.156  1.00  0.00     0.127 A 
HETATM   36  N5  UNL     1       1.394  51.952 -27.002  1.00  0.00    -0.354 N 
HETATM   37  C21 UNL     1       1.356  52.269 -25.729  1.00  0.00     0.233 A 
ATOM     38  H5  UNL     1       2.069  52.247 -27.708  1.00  0.00     0.166 HD
HETATM   39  O4  UNL     1       0.327  51.725 -25.026  1.00  0.00    -0.304 OA
ENDBRANCH  31  34
ENDBRANCH   6  28
TORSDOF 7
ENDMDL
MODEL 5
REMARK minimizedAffinity -7.73250246
REMARK CNNscore 0.37240535
REMARK CNNaffinity 6.40553617
REMARK  7 active torsions:
REMARK  status: ('A' for Active; 'I' for Inactive)
REMARK       I    between atoms: C1_2  and  N1_3 
REMARK    1  A    between atoms: C1_2  and  C8_12 
REMARK    2  A    between atoms: N1_3  and  C2_4 
REMARK    3  A    between atoms: C5_7  and  O2_8 
REMARK    4  A    between atoms: N2_15  and  C11_16 
REMARK    5  A    between atoms: C11_16  and  C12_17 
REMARK       I    between atoms: C12_17  and  N3_19 
REMARK    6  A    between atoms: N4_22  and  C15_23 
REMARK    7  A    between atoms: C18_26  and  C19_27 
ROOT
HETATM    1  C12 UNL     1      -7.622  47.031 -24.604  1.00  0.00     0.248 C 
HETATM    2  O3  UNL     1      -7.541  45.998 -23.935  1.00  0.00    -0.271 OA
HETATM    3  N3  UNL     1      -7.923  46.983 -25.971  1.00  0.00    -0.348 N 
HETATM    4  C13 UNL     1      -8.381  48.148 -26.743  1.00  0.00     0.140 C 
HETATM    5  C14 UNL     1      -8.156  48.002 -28.262  1.00  0.00     0.115 C 
HETATM    6  N4  UNL     1      -8.688  46.708 -28.747  1.00  0.00    -0.280 NA
HETATM    7  C24 UNL     1      -8.094  45.560 -28.030  1.00  0.00     0.115 C 
HETATM    8  C25 UNL     1      -8.341  45.686 -26.518  1.00  0.00     0.140 C 
ENDROOT
BRANCH   1   9
HETATM    9  C11 UNL     1      -7.413  48.439 -24.002  1.00  0.00     0.374 C 
BRANCH   9  10
HETATM   10  N2  UNL     1      -6.136  49.073 -24.392  1.00  0.00     0.098 N 
HETATM   11  C10 UNL     1      -5.003  48.131 -24.374  1.00  0.00     0.274 C 
HETATM   12  C9  UNL     1      -3.859  48.869 -23.700  1.00  0.00     0.046 C 
HETATM   13  C8  UNL     1      -4.584  49.756 -22.704  1.00  0.00     0.108 C 
HETATM   14  C26 UNL     1      -5.795  50.204 -23.511  1.00  0.00     0.287 C 
BRANCH  13  15
HETATM   15  C1  UNL     1      -3.758  50.919 -22.176  1.00  0.00     0.228 C 
HETATM   16  O1  UNL     1      -4.273  51.860 -21.582  1.00  0.00    -0.273 OA
HETATM   17  N1  UNL     1      -2.400  50.738 -22.392  1.00  0.00    -0.327 N 
HETATM   18  H1  UNL     1      -2.128  49.906 -22.899  1.00  0.00     0.169 HD
BRANCH  17  19
HETATM   19  C2  UNL     1      -1.340  51.577 -21.979  1.00  0.00     0.036 A 
HETATM   20  C3  UNL     1      -0.597  52.202 -22.992  1.00  0.00     0.032 A 
HETATM   21  C4  UNL     1       0.480  53.033 -22.683  1.00  0.00     0.040 A 
HETATM   22  C5  UNL     1       0.823  53.237 -21.354  1.00  0.00     0.087 A 
HETATM   23  C6  UNL     1       0.097  52.621 -20.336  1.00  0.00     0.069 A 
HETATM   24 CL1  UNL     1       0.542  52.868 -18.686  1.00  0.00    -0.081 Cl
HETATM   25  C7  UNL     1      -0.986  51.796 -20.645  1.00  0.00     0.056 A 
BRANCH  22  26
HETATM   26  O2  UNL     1       1.888  54.055 -21.099  1.00  0.00    -0.359 OA
HETATM   27  H4  UNL     1       2.003  54.081 -20.129  1.00  0.00     0.217 HD
ENDBRANCH  22  26
ENDBRANCH  17  19
ENDBRANCH  13  15
ENDBRANCH   9  10
ENDBRANCH   1   9
BRANCH   6  28
HETATM   28  C15 UNL     1      -8.781  46.632 -30.145  1.00  0.00     0.010 A 
HETATM   29  C16 UNL     1      -7.611  46.708 -30.916  1.00  0.00     0.024 A 
HETATM   30  C17 UNL     1      -7.642  46.651 -32.315  1.00  0.00     0.016 A 
HETATM   31  C18 UNL     1      -8.854  46.522 -33.000  1.00  0.00    -0.001 A 
HETATM   32  C22 UNL     1     -10.029  46.457 -32.242  1.00  0.00     0.016 A 
HETATM   33  C23 UNL     1      -9.991  46.513 -30.839  1.00  0.00     0.024 A 
BRANCH  31  34
HETATM   34  C19 UNL     1      -8.903  46.476 -34.454  1.00  0.00     0.102 A 
HETATM   35  C20 UNL     1      -9.454  45.635 -35.400  1.00  0.00     0.127 A 
HETATM   36  N5  UNL     1      -9.181  46.094 -36.665  1.00  0.00    -0.354 N 
HETATM   37  C21 UNL     1      -8.480  47.182 -36.447  1.00  0.00     0.233 A 
ATOM     38  H5  UNL     1      -9.458  45.687 -37.559  1.00  0.00     0.166 HD
HETATM   39  O4  UNL     1      -8.270  47.485 -35.139  1.00  0.00    -0.304 OA
ENDBRANCH  31  34
ENDBRANCH   6  28
TORSDOF 7
ENDMDL
MODEL 6
REMARK minimizedAffinity -8.99140167
REMARK CNNscore 0.353631705
REMARK CNNaffinity 6.44112539
REMARK  7 active torsions:
REMARK  status: ('A' for Active; 'I' for Inactive)
REMARK       I    between atoms: C1_2  and  N1_3 
REMARK    1  A    between atoms: C1_2  and  C8_12 
REMARK    2  A    between atoms: N1_3  and  C2_4 
REMARK    3  A    between atoms: C5_7  and  O2_8 
REMARK    4  A    between atoms: N2_15  and  C11_16 
REMARK    5  A    between atoms: C11_16  and  C12_17 
REMARK       I    between atoms: C12_17  and  N3_19 
REMARK    6  A    between atoms: N4_22  and  C15_23 
REMARK    7  A    between atoms: C18_26  and  C19_27 
ROOT
HETATM    1  C12 UNL     1      -4.790  48.061 -28.281  1.00  0.00     0.248 C 
HETATM    2  O3  UNL     1      -4.460  47.904 -29.459  1.00  0.00    -0.271 OA
HETATM    3  N3  UNL     1      -6.100  47.803 -27.859  1.00  0.00    -0.348 N 
HETATM    4  C13 UNL     1      -6.479  47.623 -26.449  1.00  0.00     0.140 C 
HETATM    5  C14 UNL     1      -7.979  47.864 -26.184  1.00  0.00     0.115 C 
HETATM    6  N4  UNL     1      -8.809  47.091 -27.136  1.00  0.00    -0.280 NA
HETATM    7  C24 UNL     1      -8.483  47.409 -28.542  1.00  0.00     0.115 C 
HETATM    8  C25 UNL     1      -6.994  47.144 -28.821  1.00  0.00     0.140 C 
ENDROOT
BRANCH   1   9
HETATM    9  C11 UNL     1      -3.805  48.538 -27.190  1.00  0.00     0.374 C 
BRANCH   9  10
HETATM   10  N2  UNL     1      -3.793  50.003 -26.994  1.00  0.00     0.098 N 
HETATM   11  C10 UNL     1      -2.887  50.695 -27.928  1.00  0.00     0.274 C 
HETATM   12  C9  UNL     1      -2.129  51.714 -27.095  1.00  0.00     0.046 C 
HETATM   13  C8  UNL     1      -2.020  51.019 -25.750  1.00  0.00     0.108 C 
HETATM   14  C26 UNL     1      -3.390  50.368 -25.623  1.00  0.00     0.287 C 
BRANCH  13  15
HETATM   15  C1  UNL     1      -1.692  51.944 -24.587  1.00  0.00     0.228 C 
HETATM   16  O1  UNL     1      -2.253  53.025 -24.442  1.00  0.00    -0.273 OA
HETATM   17  N1  UNL     1      -0.765  51.387 -23.719  1.00  0.00    -0.327 N 
HETATM   18  H1  UNL     1      -0.391  50.482 -23.974  1.00  0.00     0.169 HD
BRANCH  17  19
HETATM   19  C2  UNL     1      -0.281  51.929 -22.507  1.00  0.00     0.036 A 
HETATM   20  C3  UNL     1       0.683  52.943 -22.609  1.00  0.00     0.032 A 
HETATM   21  C4  UNL     1       1.234  53.526 -21.467  1.00  0.00     0.040 A 
HETATM   22  C5  UNL     1       0.826  53.090 -20.215  1.00  0.00     0.087 A 
HETATM   23  C6  UNL     1      -0.129  52.082 -20.097  1.00  0.00     0.069 A 
HETATM   24 CL1  UNL     1      -0.619  51.535 -18.534  1.00  0.00    -0.081 Cl
HETATM   25  C7  UNL     1      -0.687  51.504 -21.239  1.00  0.00     0.056 A 
BRANCH  22  26
HETATM   26  O2  UNL     1       1.396  53.687 -19.125  1.00  0.00    -0.359 OA
HETATM   27  H4  UNL     1       1.014  53.261 -18.333  1.00  0.00     0.217 HD
ENDBRANCH  22  26
ENDBRANCH  17  19
ENDBRANCH  13  15
ENDBRANCH   9  10
ENDBRANCH   1   9
BRANCH   6  28
HETATM   28  C15 UNL     1     -10.164  47.031 -26.775  1.00  0.00     0.010 A 
HETATM   29  C16 UNL     1     -10.561  46.162 -25.747  1.00  0.00     0.024 A 
HETATM   30  C17 UNL     1     -11.900  46.048 -25.350  1.00  0.00     0.016 A 
HETATM   31  C18 UNL     1     -12.898  46.799 -25.979  1.00  0.00    -0.001 A 
HETATM   32  C22 UNL     1     -12.516  47.659 -27.014  1.00  0.00     0.016 A 
HETATM   33  C23 UNL     1     -11.171  47.770 -27.405  1.00  0.00     0.024 A 
BRANCH  31  34
HETATM   34  C19 UNL     1     -14.296  46.680 -25.588  1.00  0.00     0.102 A 
HETATM   35  C20 UNL     1     -15.377  45.924 -25.995  1.00  0.00     0.127 A 
HETATM   36  N5  UNL     1     -16.486  46.235 -25.248  1.00  0.00    -0.354 N 
HETATM   37  C21 UNL     1     -16.049  47.161 -24.427  1.00  0.00     0.233 A 
ATOM     38  H5  UNL     1     -17.425  45.841 -25.316  1.00  0.00     0.166 HD
HETATM   39  O4  UNL     1     -14.736  47.486 -24.565  1.00  0.00    -0.304 OA
ENDBRANCH  31  34
ENDBRANCH   6  28
TORSDOF 7
ENDMDL
MODEL 7
REMARK minimizedAffinity -8.18589211
REMARK CNNscore 0.348288685
REMARK CNNaffinity 6.3338666
REMARK  7 active torsions:
REMARK  status: ('A' for Active; 'I' for Inactive)
REMARK       I    between atoms: C1_2  and  N1_3 
REMARK    1  A    between atoms: C1_2  and  C8_12 
REMARK    2  A    between atoms: N1_3  and  C2_4 
REMARK    3  A    between atoms: C5_7  and  O2_8 
REMARK    4  A    between atoms: N2_15  and  C11_16 
REMARK    5  A    between atoms: C11_16  and  C12_17 
REMARK       I    between atoms: C12_17  and  N3_19 
REMARK    6  A    between atoms: N4_22  and  C15_23 
REMARK    7  A    between atoms: C18_26  and  C19_27 
ROOT
HETATM    1  C12 UNL     1      -7.762  48.272 -25.126  1.00  0.00     0.248 C 
HETATM    2  O3  UNL     1      -8.539  49.001 -24.502  1.00  0.00    -0.271 OA
HETATM    3  N3  UNL     1      -8.095  47.783 -26.394  1.00  0.00    -0.348 N 
HETATM    4  C13 UNL     1      -7.112  47.221 -27.332  1.00  0.00     0.140 C 
HETATM    5  C14 UNL     1      -7.740  46.304 -28.401  1.00  0.00     0.115 C 
HETATM    6  N4  UNL     1      -8.886  46.975 -29.057  1.00  0.00    -0.280 NA
HETATM    7  C24 UNL     1      -9.913  47.400 -28.082  1.00  0.00     0.115 C 
HETATM    8  C25 UNL     1      -9.298  48.338 -27.030  1.00  0.00     0.140 C 
ENDROOT
BRANCH   1   9
HETATM    9  C11 UNL     1      -6.380  47.855 -24.576  1.00  0.00     0.374 C 
BRANCH   9  10
HETATM   10  N2  UNL     1      -5.331  48.881 -24.753  1.00  0.00     0.098 N 
HETATM   11  C10 UNL     1      -4.326  48.502 -25.761  1.00  0.00     0.274 C 
HETATM   12  C9  UNL     1      -2.977  48.849 -25.156  1.00  0.00     0.046 C 
HETATM   13  C8  UNL     1      -3.212  48.611 -23.676  1.00  0.00     0.108 C 
HETATM   14  C26 UNL     1      -4.620  49.160 -23.491  1.00  0.00     0.287 C 
BRANCH  13  15
HETATM   15  C1  UNL     1      -2.192  49.273 -22.761  1.00  0.00     0.228 C 
HETATM   16  O1  UNL     1      -1.574  48.636 -21.914  1.00  0.00    -0.273 OA
HETATM   17  N1  UNL     1      -2.021  50.618 -23.052  1.00  0.00    -0.327 N 
HETATM   18  H1  UNL     1      -2.606  51.002 -23.781  1.00  0.00     0.169 HD
BRANCH  17  19
HETATM   19  C2  UNL     1      -1.114  51.522 -22.454  1.00  0.00     0.036 A 
HETATM   20  C3  UNL     1      -0.201  52.160 -23.308  1.00  0.00     0.032 A 
HETATM   21  C4  UNL     1       0.744  53.055 -22.807  1.00  0.00     0.040 A 
HETATM   22  C5  UNL     1       0.785  53.310 -21.444  1.00  0.00     0.087 A 
HETATM   23  C6  UNL     1      -0.113  52.682 -20.582  1.00  0.00     0.069 A 
HETATM   24 CL1  UNL     1      -0.043  52.995 -18.885  1.00  0.00    -0.081 Cl
HETATM   25  C7  UNL     1      -1.065  51.794 -21.084  1.00  0.00     0.056 A 
BRANCH  22  26
HETATM   26  O2  UNL     1       1.732  54.190 -20.997  1.00  0.00    -0.359 OA
HETATM   27  H4  UNL     1       1.635  54.247 -20.027  1.00  0.00     0.217 HD
ENDBRANCH  22  26
ENDBRANCH  17  19
ENDBRANCH  13  15
ENDBRANCH   9  10
ENDBRANCH   1   9
BRANCH   6  28
HETATM   28  C15 UNL     1      -9.318  46.328 -30.224  1.00  0.00     0.010 A 
HETATM   29  C16 UNL     1      -9.726  47.098 -31.325  1.00  0.00     0.024 A 
HETATM   30  C17 UNL     1     -10.180  46.509 -32.512  1.00  0.00     0.016 A 
HETATM   31  C18 UNL     1     -10.250  45.119 -32.641  1.00  0.00    -0.001 A 
HETATM   32  C22 UNL     1      -9.857  44.340 -31.545  1.00  0.00     0.016 A 
HETATM   33  C23 UNL     1      -9.401  44.937 -30.358  1.00  0.00     0.024 A 
BRANCH  31  34
HETATM   34  C19 UNL     1     -10.733  44.493 -33.863  1.00  0.00     0.102 A 
HETATM   35  C20 UNL     1     -10.253  44.326 -35.146  1.00  0.00     0.127 A 
HETATM   36  N5  UNL     1     -11.159  43.631 -35.910  1.00  0.00    -0.354 N 
HETATM   37  C21 UNL     1     -12.148  43.408 -35.076  1.00  0.00     0.233 A 
ATOM     38  H5  UNL     1     -11.082  43.356 -36.889  1.00  0.00     0.166 HD
HETATM   39  O4  UNL     1     -11.969  43.893 -33.819  1.00  0.00    -0.304 OA
ENDBRANCH  31  34
ENDBRANCH   6  28
TORSDOF 7
ENDMDL
MODEL 8
REMARK minimizedAffinity -8.73247051
REMARK CNNscore 0.303573996
REMARK CNNaffinity 6.31320143
REMARK  7 active torsions:
REMARK  status: ('A' for Active; 'I' for Inactive)
REMARK       I    between atoms: C1_2  and  N1_3 
REMARK    1  A    between atoms: C1_2  and  C8_12 
REMARK    2  A    between atoms: N1_3  and  C2_4 
REMARK    3  A    between atoms: C5_7  and  O2_8 
REMARK    4  A    between atoms: N2_15  and  C11_16 
REMARK    5  A    between atoms: C11_16  and  C12_17 
REMARK       I    between atoms: C12_17  and  N3_19 
REMARK    6  A    between atoms: N4_22  and  C15_23 
REMARK    7  A    between atoms: C18_26  and  C19_27 
ROOT
HETATM    1  C12 UNL     1      -5.477  47.998 -27.521  1.00  0.00     0.248 C 
HETATM    2  O3  UNL     1      -6.142  47.830 -26.495  1.00  0.00    -0.271 OA
HETATM    3  N3  UNL     1      -6.054  47.841 -28.787  1.00  0.00    -0.348 N 
HETATM    4  C13 UNL     1      -5.451  48.357 -30.025  1.00  0.00     0.140 C 
HETATM    5  C14 UNL     1      -5.959  47.647 -31.296  1.00  0.00     0.115 C 
HETATM    6  N4  UNL     1      -7.440  47.607 -31.315  1.00  0.00    -0.280 NA
HETATM    7  C24 UNL     1      -7.994  46.955 -30.111  1.00  0.00     0.115 C 
HETATM    8  C25 UNL     1      -7.513  47.677 -28.840  1.00  0.00     0.140 C 
ENDROOT
BRANCH   1   9
HETATM    9  C11 UNL     1      -3.985  48.400 -27.498  1.00  0.00     0.374 C 
BRANCH   9  10
HETATM   10  N2  UNL     1      -3.728  49.709 -26.862  1.00  0.00     0.098 N 
HETATM   11  C10 UNL     1      -2.569  50.408 -27.445  1.00  0.00     0.274 C 
HETATM   12  C9  UNL     1      -1.777  50.953 -26.269  1.00  0.00     0.046 C 
HETATM   13  C8  UNL     1      -2.021  49.906 -25.198  1.00  0.00     0.108 C 
HETATM   14  C26 UNL     1      -3.492  49.576 -25.413  1.00  0.00     0.287 C 
BRANCH  13  15
HETATM   15  C1  UNL     1      -1.718  50.370 -23.781  1.00  0.00     0.228 C 
HETATM   16  O1  UNL     1      -2.209  49.820 -22.801  1.00  0.00    -0.273 OA
HETATM   17  N1  UNL     1      -0.798  51.408 -23.754  1.00  0.00    -0.327 N 
HETATM   18  H1  UNL     1      -0.481  51.756 -24.649  1.00  0.00     0.169 HD
BRANCH  17  19
HETATM   19  C2  UNL     1      -0.238  52.037 -22.620  1.00  0.00     0.036 A 
HETATM   20  C3  UNL     1       0.626  53.117 -22.858  1.00  0.00     0.032 A 
HETATM   21  C4  UNL     1       1.241  53.789 -21.801  1.00  0.00     0.040 A 
HETATM   22  C5  UNL     1       0.999  53.377 -20.499  1.00  0.00     0.087 A 
HETATM   23  C6  UNL     1       0.147  52.304 -20.246  1.00  0.00     0.069 A 
HETATM   24 CL1  UNL     1      -0.135  51.788 -18.622  1.00  0.00    -0.081 Cl
HETATM   25  C7  UNL     1      -0.476  51.636 -21.302  1.00  0.00     0.056 A 
BRANCH  22  26
HETATM   26  O2  UNL     1       1.628  54.062 -19.496  1.00  0.00    -0.359 OA
HETATM   27  H4  UNL     1       1.364  53.643 -18.654  1.00  0.00     0.217 HD
ENDBRANCH  22  26
ENDBRANCH  17  19
ENDBRANCH  13  15
ENDBRANCH   9  10
ENDBRANCH   1   9
BRANCH   6  28
HETATM   28  C15 UNL     1      -7.972  47.243 -32.562  1.00  0.00     0.010 A 
HETATM   29  C16 UNL     1      -7.292  47.613 -33.733  1.00  0.00     0.024 A 
HETATM   30  C17 UNL     1      -7.780  47.289 -35.005  1.00  0.00     0.016 A 
HETATM   31  C18 UNL     1      -8.979  46.587 -35.154  1.00  0.00    -0.001 A 
HETATM   32  C22 UNL     1      -9.674  46.225 -33.994  1.00  0.00     0.016 A 
HETATM   33  C23 UNL     1      -9.177  46.550 -32.721  1.00  0.00     0.024 A 
BRANCH  31  34
HETATM   34  C19 UNL     1      -9.507  46.257 -36.471  1.00  0.00     0.102 A 
HETATM   35  C20 UNL     1      -9.394  46.782 -37.742  1.00  0.00     0.127 A 
HETATM   36  N5  UNL     1     -10.131  46.040 -38.633  1.00  0.00    -0.354 N 
HETATM   37  C21 UNL     1     -10.663  45.105 -37.880  1.00  0.00     0.233 A 
ATOM     38  H5  UNL     1     -10.238  46.181 -39.638  1.00  0.00     0.166 HD
HETATM   39  O4  UNL     1     -10.335  45.164 -36.563  1.00  0.00    -0.304 OA
ENDBRANCH  31  34
ENDBRANCH   6  28
TORSDOF 7
ENDMDL
MODEL 9
REMARK minimizedAffinity -10.0006809
REMARK CNNscore 0.301519126
REMARK CNNaffinity 7.3207283
REMARK  7 active torsions:
REMARK  status: ('A' for Active; 'I' for Inactive)
REMARK       I    between atoms: C1_2  and  N1_3 
REMARK    1  A    between atoms: C1_2  and  C8_12 
REMARK    2  A    between atoms: N1_3  and  C2_4 
REMARK    3  A    between atoms: C5_7  and  O2_8 
REMARK    4  A    between atoms: N2_15  and  C11_16 
REMARK    5  A    between atoms: C11_16  and  C12_17 
REMARK       I    between atoms: C12_17  and  N3_19 
REMARK    6  A    between atoms: N4_22  and  C15_23 
REMARK    7  A    between atoms: C18_26  and  C19_27 
ROOT
HETATM    1  C12 UNL     1      -2.002  49.566 -18.904  1.00  0.00     0.248 C 
HETATM    2  O3  UNL     1      -1.940  48.627 -18.107  1.00  0.00    -0.271 OA
HETATM    3  N3  UNL     1      -2.559  49.394 -20.177  1.00  0.00    -0.348 N 
HETATM    4  C13 UNL     1      -2.989  50.511 -21.033  1.00  0.00     0.140 C 
HETATM    5  C14 UNL     1      -3.077  50.138 -22.527  1.00  0.00     0.115 C 
HETATM    6  N4  UNL     1      -3.865  48.897 -22.710  1.00  0.00    -0.280 NA
HETATM    7  C24 UNL     1      -3.311  47.768 -21.934  1.00  0.00     0.115 C 
HETATM    8  C25 UNL     1      -3.248  48.124 -20.439  1.00  0.00     0.140 C 
ENDROOT
BRANCH   1   9
HETATM    9  C11 UNL     1      -1.490  50.985 -18.570  1.00  0.00     0.374 C 
BRANCH   9  10
HETATM   10  N2  UNL     1      -0.188  51.312 -19.189  1.00  0.00     0.098 N 
HETATM   11  C10 UNL     1       0.424  52.527 -18.622  1.00  0.00     0.274 C 
HETATM   12  C9  UNL     1       0.940  53.325 -19.807  1.00  0.00     0.046 C 
HETATM   13  C8  UNL     1      -0.069  52.989 -20.890  1.00  0.00     0.108 C 
HETATM   14  C26 UNL     1      -0.308  51.506 -20.645  1.00  0.00     0.287 C 
BRANCH  13  15
HETATM   15  C1  UNL     1       0.402  53.290 -22.305  1.00  0.00     0.228 C 
HETATM   16  O1  UNL     1       1.305  54.090 -22.530  1.00  0.00    -0.273 OA
HETATM   17  N1  UNL     1      -0.255  52.518 -23.252  1.00  0.00    -0.327 N 
HETATM   18  H1  UNL     1      -0.979  51.900 -22.910  1.00  0.00     0.169 HD
BRANCH  17  19
HETATM   19  C2  UNL     1      -0.029  52.483 -24.646  1.00  0.00     0.036 A 
HETATM   20  C3  UNL     1      -1.122  52.786 -25.472  1.00  0.00     0.032 A 
HETATM   21  C4  UNL     1      -1.001  52.759 -26.861  1.00  0.00     0.040 A 
HETATM   22  C5  UNL     1       0.218  52.420 -27.432  1.00  0.00     0.087 A 
HETATM   23  C6  UNL     1       1.312  52.113 -26.626  1.00  0.00     0.069 A 
HETATM   24 CL1  UNL     1       2.820  51.677 -27.346  1.00  0.00    -0.081 Cl
HETATM   25  C7  UNL     1       1.194  52.148 -25.236  1.00  0.00     0.056 A 
BRANCH  22  26
HETATM   26  O2  UNL     1       0.288  52.402 -28.797  1.00  0.00    -0.359 OA
HETATM   27  H4  UNL     1       1.198  52.135 -29.034  1.00  0.00     0.217 HD
ENDBRANCH  22  26
ENDBRANCH  17  19
ENDBRANCH  13  15
ENDBRANCH   9  10
ENDBRANCH   1   9
BRANCH   6  28
HETATM   28  C15 UNL     1      -4.230  48.660 -24.044  1.00  0.00     0.010 A 
HETATM   29  C16 UNL     1      -5.554  48.296 -24.338  1.00  0.00     0.024 A 
HETATM   30  C17 UNL     1      -5.975  48.034 -25.648  1.00  0.00     0.016 A 
HETATM   31  C18 UNL     1      -5.079  48.119 -26.718  1.00  0.00    -0.001 A 
HETATM   32  C22 UNL     1      -3.753  48.469 -26.436  1.00  0.00     0.016 A 
HETATM   33  C23 UNL     1      -3.339  48.733 -25.120  1.00  0.00     0.024 A 
BRANCH  31  34
HETATM   34  C19 UNL     1      -5.499  47.835 -28.084  1.00  0.00     0.102 A 
HETATM   35  C20 UNL     1      -6.533  47.140 -28.677  1.00  0.00     0.127 A 
HETATM   36  N5  UNL     1      -6.432  47.208 -30.045  1.00  0.00    -0.354 N 
HETATM   37  C21 UNL     1      -5.352  47.929 -30.233  1.00  0.00     0.233 A 
ATOM     38  H5  UNL     1      -7.049  46.797 -30.746  1.00  0.00     0.166 HD
HETATM   39  O4  UNL     1      -4.730  48.350 -29.100  1.00  0.00    -0.304 OA
ENDBRANCH  31  34
ENDBRANCH   6  28
TORSDOF 7
ENDMDL
