MODEL 1
REMARK minimizedAffinity -9.06987286
REMARK  7 active torsions:
REMARK  status: ('A' for Active; 'I' for Inactive)
REMARK    1  A    between atoms: C2_2  and  N1_3 
REMARK    2  A    between atoms: C2_2  and  C17_27 
REMARK       I    between atoms: N1_3  and  C3_4 
REMARK       I    between atoms: C3_4  and  N2_6 
REMARK    3  A    between atoms: N2_6  and  C4_7 
REMARK    4  A    between atoms: C7_13  and  O2_14 
REMARK    5  A    between atoms: O2_14  and  C8_15 
REMARK    6  A    between atoms: C8_15  and  C9_16 
REMARK    7  A    between atoms: C9_16  and  C10_17 
ROOT
HETATM    1  C4  UNL     1       0.236  52.510 -20.088  1.00  0.00     0.111 A 
HETATM    2  C5  UNL     1       1.203  53.121 -19.296  1.00  0.00     0.080 A 
HETATM    3  C6  UNL     1       1.195  52.743 -17.954  1.00  0.00     0.067 A 
HETATM    4  N3  UNL     1       1.968  53.120 -16.888  1.00  0.00    -0.298 N 
HETATM    5  N4  UNL     1       1.634  52.521 -15.729  1.00  0.00    -0.279 N 
ATOM      6  H4  UNL     1       2.053  52.644 -14.807  1.00  0.00     0.189 HD
HETATM    7  C7  UNL     1       0.621  51.725 -16.079  1.00  0.00     0.171 A 
HETATM    8  C15 UNL     1       0.292  51.819 -17.445  1.00  0.00     0.060 A 
HETATM    9  C16 UNL     1      -0.641  51.250 -18.309  1.00  0.00     0.108 A 
HETATM   10  N6  UNL     1      -0.656  51.603 -19.621  1.00  0.00    -0.351 N 
ATOM     11  H6  UNL     1      -1.338  51.186 -20.254  1.00  0.00     0.166 HD
HETATM   12  H8  UNL     1       2.733  53.786 -16.884  1.00  0.00     0.187 HD
ENDROOT
BRANCH   1  13
HETATM   13  N2  UNL     1       0.091  52.758 -21.453  1.00  0.00    -0.295 N 
HETATM   14  C3  UNL     1      -0.421  51.936 -22.420  1.00  0.00     0.322 C 
HETATM   15  N1  UNL     1      -0.424  52.563 -23.648  1.00  0.00    -0.335 N 
HETATM   16  O1  UNL     1      -0.823  50.791 -22.261  1.00  0.00    -0.247 OA
HETATM   17  H5  UNL     1      -0.552  53.564 -23.609  1.00  0.00     0.165 HD
HETATM   18  H6  UNL     1       0.539  53.615 -21.738  1.00  0.00     0.172 HD
BRANCH  15  19
HETATM   19  C2  UNL     1      -0.988  51.907 -24.820  1.00  0.00     0.115 C 
HETATM   20  C1  UNL     1      -1.569  50.531 -24.479  1.00  0.00     0.037 C 
BRANCH  19  21
HETATM   21  C17 UNL     1       0.073  51.805 -25.904  1.00  0.00    -0.036 A 
HETATM   22  C18 UNL     1       1.437  51.686 -25.587  1.00  0.00     0.009 A 
HETATM   23  C19 UNL     1       2.399  51.610 -26.596  1.00  0.00     0.001 A 
HETATM   24  C20 UNL     1       2.012  51.658 -27.934  1.00  0.00     0.000 A 
HETATM   25  C21 UNL     1       0.664  51.783 -28.264  1.00  0.00     0.001 A 
HETATM   26  C22 UNL     1      -0.299  51.858 -27.256  1.00  0.00     0.009 A 
ENDBRANCH  19  21
ENDBRANCH  15  19
ENDBRANCH   1  13
BRANCH   7  27
HETATM   27  O2  UNL     1      -0.010  50.947 -15.172  1.00  0.00    -0.334 OA
BRANCH  27  28
HETATM   28  C8  UNL     1       0.014  51.458 -13.838  1.00  0.00     0.179 C 
BRANCH  28  29
HETATM   29  C9  UNL     1      -1.392  51.937 -13.468  1.00  0.00     0.062 C 
BRANCH  29  30
HETATM   30  C10 UNL     1      -1.609  52.123 -11.950  1.00  0.00     0.222 C 
HETATM   31  C11 UNL     1      -3.054  51.738 -11.553  1.00  0.00     0.036 C 
HETATM   32  C12 UNL     1      -3.993  52.938 -11.584  1.00  0.00     0.004 C 
HETATM   33  C13 UNL     1      -3.481  54.063 -10.682  1.00  0.00     0.030 C 
HETATM   34  C14 UNL     1      -1.990  53.933 -10.366  1.00  0.00     0.270 C 
HETATM   35  N5  UNL     1      -1.245  53.495 -11.543  1.00  0.00     0.088 N 
HETATM   36  H22 UNL     1      -1.437  54.145 -12.306  1.00  0.00     0.316 HD
ENDBRANCH  29  30
ENDBRANCH  28  29
ENDBRANCH  27  28
ENDBRANCH   7  27
TORSDOF 7
ENDMDL
MODEL 2
REMARK minimizedAffinity -8.74094772
REMARK  7 active torsions:
REMARK  status: ('A' for Active; 'I' for Inactive)
REMARK    1  A    between atoms: C2_2  and  N1_3 
REMARK    2  A    between atoms: C2_2  and  C17_27 
REMARK       I    between atoms: N1_3  and  C3_4 
REMARK       I    between atoms: C3_4  and  N2_6 
REMARK    3  A    between atoms: N2_6  and  C4_7 
REMARK    4  A    between atoms: C7_13  and  O2_14 
REMARK    5  A    between atoms: O2_14  and  C8_15 
REMARK    6  A    between atoms: C8_15  and  C9_16 
REMARK    7  A    between atoms: C9_16  and  C10_17 
ROOT
HETATM    1  C4  UNL     1       0.867  53.041 -19.614  1.00  0.00     0.111 A 
HETATM    2  C5  UNL     1       1.335  54.149 -20.314  1.00  0.00     0.080 A 
HETATM    3  C6  UNL     1       1.231  54.059 -21.702  1.00  0.00     0.067 A 
HETATM    4  N3  UNL     1       1.581  54.921 -22.707  1.00  0.00    -0.298 N 
HETATM    5  N4  UNL     1       1.320  54.456 -23.945  1.00  0.00    -0.279 N 
ATOM      6  H4  UNL     1       1.497  54.907 -24.842  1.00  0.00     0.189 HD
HETATM    7  C7  UNL     1       0.771  53.262 -23.710  1.00  0.00     0.171 A 
HETATM    8  C15 UNL     1       0.693  52.950 -22.339  1.00  0.00     0.060 A 
HETATM    9  C16 UNL     1       0.241  51.886 -21.563  1.00  0.00     0.108 A 
HETATM   10  N6  UNL     1       0.334  51.946 -20.208  1.00  0.00    -0.351 N 
ATOM     11  H6  UNL     1       0.002  51.168 -19.638  1.00  0.00     0.166 HD
HETATM   12  H8  UNL     1       2.008  55.836 -22.616  1.00  0.00     0.187 HD
ENDROOT
BRANCH   1  13
HETATM   13  N2  UNL     1       0.885  52.948 -18.223  1.00  0.00    -0.295 N 
HETATM   14  C3  UNL     1       0.571  51.874 -17.435  1.00  0.00     0.322 C 
HETATM   15  N1  UNL     1       0.748  52.172 -16.101  1.00  0.00    -0.335 N 
HETATM   16  O1  UNL     1       0.175  50.782 -17.821  1.00  0.00    -0.247 OA
HETATM   17  H5  UNL     1       1.487  52.834 -15.913  1.00  0.00     0.165 HD
HETATM   18  H6  UNL     1       1.041  53.840 -17.779  1.00  0.00     0.172 HD
BRANCH  15  19
HETATM   19  C2  UNL     1       0.542  51.159 -15.075  1.00  0.00     0.115 C 
HETATM   20  C1  UNL     1      -0.302  51.689 -13.911  1.00  0.00     0.037 C 
BRANCH  19  21
HETATM   21  C17 UNL     1       1.889  50.646 -14.591  1.00  0.00    -0.036 A 
HETATM   22  C18 UNL     1       3.070  51.377 -14.800  1.00  0.00     0.009 A 
HETATM   23  C19 UNL     1       4.301  50.884 -14.363  1.00  0.00     0.001 A 
HETATM   24  C20 UNL     1       4.368  49.650 -13.718  1.00  0.00     0.000 A 
HETATM   25  C21 UNL     1       3.206  48.910 -13.510  1.00  0.00     0.001 A 
HETATM   26  C22 UNL     1       1.975  49.403 -13.945  1.00  0.00     0.009 A 
ENDBRANCH  19  21
ENDBRANCH  15  19
ENDBRANCH   1  13
BRANCH   7  27
HETATM   27  O2  UNL     1       0.373  52.459 -24.722  1.00  0.00    -0.334 OA
BRANCH  27  28
HETATM   28  C8  UNL     1      -0.806  51.703 -24.448  1.00  0.00     0.179 C 
BRANCH  28  29
HETATM   29  C9  UNL     1      -2.000  52.388 -25.120  1.00  0.00     0.062 C 
BRANCH  29  30
HETATM   30  C10 UNL     1      -1.842  52.560 -26.647  1.00  0.00     0.222 C 
HETATM   31  C11 UNL     1      -1.478  51.212 -27.314  1.00  0.00     0.036 C 
HETATM   32  C12 UNL     1       0.030  51.020 -27.427  1.00  0.00     0.004 C 
HETATM   33  C13 UNL     1       0.677  52.178 -28.192  1.00  0.00     0.030 C 
HETATM   34  C14 UNL     1      -0.206  53.426 -28.229  1.00  0.00     0.270 C 
HETATM   35  N5  UNL     1      -0.871  53.632 -26.946  1.00  0.00     0.088 N 
HETATM   36  H22 UNL     1      -0.159  53.668 -26.216  1.00  0.00     0.316 HD
ENDBRANCH  29  30
ENDBRANCH  28  29
ENDBRANCH  27  28
ENDBRANCH   7  27
TORSDOF 7
ENDMDL
MODEL 3
REMARK minimizedAffinity -8.71497345
REMARK  7 active torsions:
REMARK  status: ('A' for Active; 'I' for Inactive)
REMARK    1  A    between atoms: C2_2  and  N1_3 
REMARK    2  A    between atoms: C2_2  and  C17_27 
REMARK       I    between atoms: N1_3  and  C3_4 
REMARK       I    between atoms: C3_4  and  N2_6 
REMARK    3  A    between atoms: N2_6  and  C4_7 
REMARK    4  A    between atoms: C7_13  and  O2_14 
REMARK    5  A    between atoms: O2_14  and  C8_15 
REMARK    6  A    between atoms: C8_15  and  C9_16 
REMARK    7  A    between atoms: C9_16  and  C10_17 
ROOT
HETATM    1  C4  UNL     1      -3.318  48.674 -24.695  1.00  0.00     0.111 A 
HETATM    2  C5  UNL     1      -4.688  48.443 -24.767  1.00  0.00     0.080 A 
HETATM    3  C6  UNL     1      -5.193  48.280 -26.057  1.00  0.00     0.067 A 
HETATM    4  N3  UNL     1      -6.459  48.048 -26.526  1.00  0.00    -0.298 N 
HETATM    5  N4  UNL     1      -6.539  47.957 -27.867  1.00  0.00    -0.279 N 
ATOM      6  H4  UNL     1      -7.366  47.799 -28.444  1.00  0.00     0.189 HD
HETATM    7  C7  UNL     1      -5.274  48.124 -28.259  1.00  0.00     0.171 A 
HETATM    8  C15 UNL     1      -4.387  48.337 -27.186  1.00  0.00     0.060 A 
HETATM    9  C16 UNL     1      -3.023  48.566 -27.024  1.00  0.00     0.108 A 
HETATM   10  N6  UNL     1      -2.506  48.732 -25.778  1.00  0.00    -0.351 N 
ATOM     11  H6  UNL     1      -1.507  48.899 -25.658  1.00  0.00     0.166 HD
HETATM   12  H8  UNL     1      -7.310  47.949 -25.983  1.00  0.00     0.187 HD
ENDROOT
BRANCH   1  13
HETATM   13  N2  UNL     1      -2.632  48.858 -23.494  1.00  0.00    -0.295 N 
HETATM   14  C3  UNL     1      -2.739  49.888 -22.599  1.00  0.00     0.322 C 
HETATM   15  N1  UNL     1      -1.914  49.686 -21.514  1.00  0.00    -0.335 N 
HETATM   16  O1  UNL     1      -3.451  50.878 -22.713  1.00  0.00    -0.247 OA
HETATM   17  H5  UNL     1      -1.772  48.716 -21.269  1.00  0.00     0.165 HD
HETATM   18  H6  UNL     1      -1.893  48.185 -23.366  1.00  0.00     0.172 HD
BRANCH  15  19
HETATM   19  C2  UNL     1      -1.908  50.619 -20.395  1.00  0.00     0.115 C 
HETATM   20  C1  UNL     1      -3.277  51.276 -20.194  1.00  0.00     0.037 C 
BRANCH  19  21
HETATM   21  C17 UNL     1      -0.821  51.660 -20.609  1.00  0.00    -0.036 A 
HETATM   22  C18 UNL     1      -0.209  51.834 -21.862  1.00  0.00     0.009 A 
HETATM   23  C19 UNL     1       0.798  52.785 -22.037  1.00  0.00     0.001 A 
HETATM   24  C20 UNL     1       1.211  53.570 -20.962  1.00  0.00     0.000 A 
HETATM   25  C21 UNL     1       0.618  53.404 -19.712  1.00  0.00     0.001 A 
HETATM   26  C22 UNL     1      -0.390  52.455 -19.536  1.00  0.00     0.009 A 
ENDBRANCH  19  21
ENDBRANCH  15  19
ENDBRANCH   1  13
BRANCH   7  27
HETATM   27  O2  UNL     1      -4.935  48.111 -29.567  1.00  0.00    -0.334 OA
BRANCH  27  28
HETATM   28  C8  UNL     1      -6.039  47.972 -30.463  1.00  0.00     0.179 C 
BRANCH  28  29
HETATM   29  C9  UNL     1      -6.072  46.534 -30.987  1.00  0.00     0.062 C 
BRANCH  29  30
HETATM   30  C10 UNL     1      -5.912  46.424 -32.519  1.00  0.00     0.222 C 
HETATM   31  C11 UNL     1      -4.432  46.175 -32.898  1.00  0.00     0.036 C 
HETATM   32  C12 UNL     1      -3.684  47.477 -33.161  1.00  0.00     0.004 C 
HETATM   33  C13 UNL     1      -4.377  48.301 -34.250  1.00  0.00     0.030 C 
HETATM   34  C14 UNL     1      -5.836  47.894 -34.459  1.00  0.00     0.270 C 
HETATM   35  N5  UNL     1      -6.486  47.612 -33.182  1.00  0.00     0.088 N 
HETATM   36  H22 UNL     1      -6.381  48.429 -32.580  1.00  0.00     0.316 HD
ENDBRANCH  29  30
ENDBRANCH  28  29
ENDBRANCH  27  28
ENDBRANCH   7  27
TORSDOF 7
ENDMDL
MODEL 4
REMARK minimizedAffinity -8.67764854
REMARK  7 active torsions:
REMARK  status: ('A' for Active; 'I' for Inactive)
REMARK    1  A    between atoms: C2_2  and  N1_3 
REMARK    2  A    between atoms: C2_2  and  C17_27 
REMARK       I    between atoms: N1_3  and  C3_4 
REMARK       I    between atoms: C3_4  and  N2_6 
REMARK    3  A    between atoms: N2_6  and  C4_7 
REMARK    4  A    between atoms: C7_13  and  O2_14 
REMARK    5  A    between atoms: O2_14  and  C8_15 
REMARK    6  A    between atoms: C8_15  and  C9_16 
REMARK    7  A    between atoms: C9_16  and  C10_17 
ROOT
HETATM    1  C4  UNL     1      -2.932  51.464 -20.496  1.00  0.00     0.111 A 
HETATM    2  C5  UNL     1      -4.292  51.460 -20.788  1.00  0.00     0.080 A 
HETATM    3  C6  UNL     1      -4.607  51.484 -22.146  1.00  0.00     0.067 A 
HETATM    4  N3  UNL     1      -5.803  51.494 -22.813  1.00  0.00    -0.298 N 
HETATM    5  N4  UNL     1      -5.684  51.526 -24.154  1.00  0.00    -0.279 N 
ATOM      6  H4  UNL     1      -6.424  51.548 -24.856  1.00  0.00     0.189 HD
HETATM    7  C7  UNL     1      -4.362  51.522 -24.341  1.00  0.00     0.171 A 
HETATM    8  C15 UNL     1      -3.634  51.504 -23.137  1.00  0.00     0.060 A 
HETATM    9  C16 UNL     1      -2.294  51.500 -22.758  1.00  0.00     0.108 A 
HETATM   10  N6  UNL     1      -1.960  51.480 -21.440  1.00  0.00    -0.351 N 
ATOM     11  H6  UNL     1      -0.979  51.477 -21.162  1.00  0.00     0.166 HD
HETATM   12  H8  UNL     1      -6.734  51.487 -22.411  1.00  0.00     0.187 HD
ENDROOT
BRANCH   1  13
HETATM   13  N2  UNL     1      -2.424  51.439 -19.197  1.00  0.00    -0.295 N 
HETATM   14  C3  UNL     1      -1.604  50.508 -18.620  1.00  0.00     0.322 C 
HETATM   15  N1  UNL     1      -1.296  50.860 -17.323  1.00  0.00    -0.335 N 
HETATM   16  O1  UNL     1      -1.184  49.485 -19.144  1.00  0.00    -0.247 OA
HETATM   17  H5  UNL     1      -1.254  51.855 -17.155  1.00  0.00     0.165 HD
HETATM   18  H6  UNL     1      -2.831  52.151 -18.611  1.00  0.00     0.172 HD
BRANCH  15  19
HETATM   19  C2  UNL     1      -0.379  50.054 -16.527  1.00  0.00     0.115 C 
HETATM   20  C1  UNL     1      -1.046  49.520 -15.255  1.00  0.00     0.037 C 
BRANCH  19  21
HETATM   21  C17 UNL     1       0.860  50.871 -16.201  1.00  0.00    -0.036 A 
HETATM   22  C18 UNL     1       1.308  51.897 -17.051  1.00  0.00     0.009 A 
HETATM   23  C19 UNL     1       2.457  52.627 -16.743  1.00  0.00     0.001 A 
HETATM   24  C20 UNL     1       3.178  52.338 -15.586  1.00  0.00     0.000 A 
HETATM   25  C21 UNL     1       2.751  51.319 -14.737  1.00  0.00     0.001 A 
HETATM   26  C22 UNL     1       1.601  50.589 -15.042  1.00  0.00     0.009 A 
ENDBRANCH  19  21
ENDBRANCH  15  19
ENDBRANCH   1  13
BRANCH   7  27
HETATM   27  O2  UNL     1      -3.827  51.561 -25.582  1.00  0.00    -0.334 OA
BRANCH  27  28
HETATM   28  C8  UNL     1      -2.585  52.261 -25.668  1.00  0.00     0.179 C 
BRANCH  28  29
HETATM   29  C9  UNL     1      -2.198  52.398 -27.143  1.00  0.00     0.062 C 
BRANCH  29  30
HETATM   30  C10 UNL     1      -1.041  51.469 -27.573  1.00  0.00     0.222 C 
HETATM   31  C11 UNL     1      -0.373  50.820 -26.337  1.00  0.00     0.036 C 
HETATM   32  C12 UNL     1       0.805  51.642 -25.828  1.00  0.00     0.004 C 
HETATM   33  C13 UNL     1       1.842  51.864 -26.932  1.00  0.00     0.030 C 
HETATM   34  C14 UNL     1       1.265  51.653 -28.333  1.00  0.00     0.270 C 
HETATM   35  N5  UNL     1      -0.085  52.201 -28.428  1.00  0.00     0.088 N 
HETATM   36  H22 UNL     1      -0.055  53.182 -28.153  1.00  0.00     0.316 HD
ENDBRANCH  29  30
ENDBRANCH  28  29
ENDBRANCH  27  28
ENDBRANCH   7  27
TORSDOF 7
ENDMDL
MODEL 5
REMARK minimizedAffinity -8.62010288
REMARK  7 active torsions:
REMARK  status: ('A' for Active; 'I' for Inactive)
REMARK    1  A    between atoms: C2_2  and  N1_3 
REMARK    2  A    between atoms: C2_2  and  C17_27 
REMARK       I    between atoms: N1_3  and  C3_4 
REMARK       I    between atoms: C3_4  and  N2_6 
REMARK    3  A    between atoms: N2_6  and  C4_7 
REMARK    4  A    between atoms: C7_13  and  O2_14 
REMARK    5  A    between atoms: O2_14  and  C8_15 
REMARK    6  A    between atoms: C8_15  and  C9_16 
REMARK    7  A    between atoms: C9_16  and  C10_17 
ROOT
HETATM    1  C4  UNL     1      -0.744  51.210 -19.396  1.00  0.00     0.111 A 
HETATM    2  C5  UNL     1       0.247  52.170 -19.213  1.00  0.00     0.080 A 
HETATM    3  C6  UNL     1       0.725  52.286 -17.908  1.00  0.00     0.067 A 
HETATM    4  N3  UNL     1       1.671  53.100 -17.345  1.00  0.00    -0.298 N 
HETATM    5  N4  UNL     1       1.845  52.908 -16.023  1.00  0.00    -0.279 N 
ATOM      6  H4  UNL     1       2.479  53.394 -15.389  1.00  0.00     0.189 HD
HETATM    7  C7  UNL     1       0.986  51.924 -15.745  1.00  0.00     0.171 A 
HETATM    8  C15 UNL     1       0.253  51.496 -16.868  1.00  0.00     0.060 A 
HETATM    9  C16 UNL     1      -0.736  50.554 -17.139  1.00  0.00     0.108 A 
HETATM   10  N6  UNL     1      -1.222  50.423 -18.402  1.00  0.00    -0.351 N 
ATOM     11  H6  UNL     1      -1.945  49.733 -18.602  1.00  0.00     0.166 HD
HETATM   12  H8  UNL     1       2.228  53.812 -17.806  1.00  0.00     0.187 HD
ENDROOT
BRANCH   1  13
HETATM   13  N2  UNL     1      -1.340  50.947 -20.629  1.00  0.00    -0.295 N 
HETATM   14  C3  UNL     1      -0.831  51.147 -21.884  1.00  0.00     0.322 C 
HETATM   15  N1  UNL     1      -1.720  50.727 -22.849  1.00  0.00    -0.335 N 
HETATM   16  O1  UNL     1       0.257  51.639 -22.156  1.00  0.00    -0.247 OA
HETATM   17  H5  UNL     1      -2.300  49.946 -22.575  1.00  0.00     0.165 HD
HETATM   18  H6  UNL     1      -2.310  50.688 -20.540  1.00  0.00     0.172 HD
BRANCH  15  19
HETATM   19  C2  UNL     1      -1.368  50.777 -24.262  1.00  0.00     0.115 C 
HETATM   20  C1  UNL     1      -1.333  52.214 -24.790  1.00  0.00     0.037 C 
BRANCH  19  21
HETATM   21  C17 UNL     1      -2.339  49.919 -25.057  1.00  0.00    -0.036 A 
HETATM   22  C18 UNL     1      -2.264  49.832 -26.458  1.00  0.00     0.009 A 
HETATM   23  C19 UNL     1      -3.174  49.052 -27.173  1.00  0.00     0.001 A 
HETATM   24  C20 UNL     1      -4.175  48.353 -26.500  1.00  0.00     0.000 A 
HETATM   25  C21 UNL     1      -4.267  48.436 -25.112  1.00  0.00     0.001 A 
HETATM   26  C22 UNL     1      -3.356  49.214 -24.395  1.00  0.00     0.009 A 
ENDBRANCH  19  21
ENDBRANCH  15  19
ENDBRANCH   1  13
BRANCH   7  27
HETATM   27  O2  UNL     1       0.851  51.443 -14.489  1.00  0.00    -0.334 OA
BRANCH  27  28
HETATM   28  C8  UNL     1       0.344  52.387 -13.546  1.00  0.00     0.179 C 
BRANCH  28  29
HETATM   29  C9  UNL     1      -1.109  52.027 -13.220  1.00  0.00     0.062 C 
BRANCH  29  30
HETATM   30  C10 UNL     1      -1.485  52.233 -11.736  1.00  0.00     0.222 C 
HETATM   31  C11 UNL     1      -2.912  51.704 -11.455  1.00  0.00     0.036 C 
HETATM   32  C12 UNL     1      -3.966  52.793 -11.617  1.00  0.00     0.004 C 
HETATM   33  C13 UNL     1      -3.662  53.993 -10.717  1.00  0.00     0.030 C 
HETATM   34  C14 UNL     1      -2.202  54.036 -10.264  1.00  0.00     0.270 C 
HETATM   35  N5  UNL     1      -1.308  53.648 -11.352  1.00  0.00     0.088 N 
HETATM   36  H22 UNL     1      -1.495  54.250 -12.153  1.00  0.00     0.316 HD
ENDBRANCH  29  30
ENDBRANCH  28  29
ENDBRANCH  27  28
ENDBRANCH   7  27
TORSDOF 7
ENDMDL
MODEL 6
REMARK minimizedAffinity -8.5821476
REMARK  7 active torsions:
REMARK  status: ('A' for Active; 'I' for Inactive)
REMARK    1  A    between atoms: C2_2  and  N1_3 
REMARK    2  A    between atoms: C2_2  and  C17_27 
REMARK       I    between atoms: N1_3  and  C3_4 
REMARK       I    between atoms: C3_4  and  N2_6 
REMARK    3  A    between atoms: N2_6  and  C4_7 
REMARK    4  A    between atoms: C7_13  and  O2_14 
REMARK    5  A    between atoms: O2_14  and  C8_15 
REMARK    6  A    between atoms: C8_15  and  C9_16 
REMARK    7  A    between atoms: C9_16  and  C10_17 
ROOT
HETATM    1  C4  UNL     1      -0.075  52.680 -21.632  1.00  0.00     0.111 A 
HETATM    2  C5  UNL     1       0.857  53.235 -22.503  1.00  0.00     0.080 A 
HETATM    3  C6  UNL     1       0.470  53.268 -23.842  1.00  0.00     0.067 A 
HETATM    4  N3  UNL     1       1.100  53.720 -24.970  1.00  0.00    -0.298 N 
HETATM    5  N4  UNL     1       0.382  53.566 -26.100  1.00  0.00    -0.279 N 
ATOM      6  H4  UNL     1       0.640  53.815 -27.055  1.00  0.00     0.189 HD
HETATM    7  C7  UNL     1      -0.750  53.008 -25.665  1.00  0.00     0.171 A 
HETATM    8  C15 UNL     1      -0.759  52.788 -24.274  1.00  0.00     0.060 A 
HETATM    9  C16 UNL     1      -1.637  52.254 -23.335  1.00  0.00     0.108 A 
HETATM   10  N6  UNL     1      -1.283  52.207 -22.023  1.00  0.00    -0.351 N 
ATOM     11  H6  UNL     1      -1.925  51.816 -21.334  1.00  0.00     0.166 HD
HETATM   12  H8  UNL     1       2.022  54.138 -25.038  1.00  0.00     0.187 HD
ENDROOT
BRANCH   1  13
HETATM   13  N2  UNL     1       0.132  52.564 -20.257  1.00  0.00    -0.295 N 
HETATM   14  C3  UNL     1      -0.119  51.493 -19.443  1.00  0.00     0.322 C 
HETATM   15  N1  UNL     1       0.255  51.762 -18.144  1.00  0.00    -0.335 N 
HETATM   16  O1  UNL     1      -0.616  50.426 -19.780  1.00  0.00    -0.247 OA
HETATM   17  H5  UNL     1       1.044  52.387 -18.055  1.00  0.00     0.165 HD
HETATM   18  H6  UNL     1       0.390  53.440 -19.831  1.00  0.00     0.172 HD
BRANCH  15  19
HETATM   19  C2  UNL     1       0.147  50.743 -17.108  1.00  0.00     0.115 C 
HETATM   20  C1  UNL     1      -1.242  50.735 -16.461  1.00  0.00     0.037 C 
BRANCH  19  21
HETATM   21  C17 UNL     1       1.239  50.954 -16.073  1.00  0.00    -0.036 A 
HETATM   22  C18 UNL     1       2.265  51.894 -16.270  1.00  0.00     0.009 A 
HETATM   23  C19 UNL     1       3.269  52.064 -15.316  1.00  0.00     0.001 A 
HETATM   24  C20 UNL     1       3.265  51.293 -14.154  1.00  0.00     0.000 A 
HETATM   25  C21 UNL     1       2.258  50.352 -13.948  1.00  0.00     0.001 A 
HETATM   26  C22 UNL     1       1.252  50.182 -14.901  1.00  0.00     0.009 A 
ENDBRANCH  19  21
ENDBRANCH  15  19
ENDBRANCH   1  13
BRANCH   7  27
HETATM   27  O2  UNL     1      -1.745  52.680 -26.518  1.00  0.00    -0.334 OA
BRANCH  27  28
HETATM   28  C8  UNL     1      -1.396  51.681 -27.478  1.00  0.00     0.179 C 
BRANCH  28  29
HETATM   29  C9  UNL     1      -2.573  50.713 -27.634  1.00  0.00     0.062 C 
BRANCH  29  30
HETATM   30  C10 UNL     1      -2.463  49.450 -26.751  1.00  0.00     0.222 C 
HETATM   31  C11 UNL     1      -3.461  48.365 -27.224  1.00  0.00     0.036 C 
HETATM   32  C12 UNL     1      -4.795  48.460 -26.493  1.00  0.00     0.004 C 
HETATM   33  C13 UNL     1      -4.601  48.373 -24.977  1.00  0.00     0.030 C 
HETATM   34  C14 UNL     1      -3.169  48.694 -24.547  1.00  0.00     0.270 C 
HETATM   35  N5  UNL     1      -2.626  49.803 -25.327  1.00  0.00     0.088 N 
HETATM   36  H22 UNL     1      -3.258  50.599 -25.237  1.00  0.00     0.316 HD
ENDBRANCH  29  30
ENDBRANCH  28  29
ENDBRANCH  27  28
ENDBRANCH   7  27
TORSDOF 7
ENDMDL
MODEL 7
REMARK minimizedAffinity -8.50806808
REMARK  7 active torsions:
REMARK  status: ('A' for Active; 'I' for Inactive)
REMARK    1  A    between atoms: C2_2  and  N1_3 
REMARK    2  A    between atoms: C2_2  and  C17_27 
REMARK       I    between atoms: N1_3  and  C3_4 
REMARK       I    between atoms: C3_4  and  N2_6 
REMARK    3  A    between atoms: N2_6  and  C4_7 
REMARK    4  A    between atoms: C7_13  and  O2_14 
REMARK    5  A    between atoms: O2_14  and  C8_15 
REMARK    6  A    between atoms: C8_15  and  C9_16 
REMARK    7  A    between atoms: C9_16  and  C10_17 
ROOT
HETATM    1  C4  UNL     1      -4.115  49.115 -25.670  1.00  0.00     0.111 A 
HETATM    2  C5  UNL     1      -3.585  48.478 -24.553  1.00  0.00     0.080 A 
HETATM    3  C6  UNL     1      -2.773  49.276 -23.746  1.00  0.00     0.067 A 
HETATM    4  N3  UNL     1      -2.082  49.015 -22.593  1.00  0.00    -0.298 N 
HETATM    5  N4  UNL     1      -1.395  50.069 -22.113  1.00  0.00    -0.279 N 
ATOM      6  H4  UNL     1      -0.805  50.117 -21.282  1.00  0.00     0.189 HD
HETATM    7  C7  UNL     1      -1.674  51.037 -22.990  1.00  0.00     0.171 A 
HETATM    8  C15 UNL     1      -2.518  50.610 -24.033  1.00  0.00     0.060 A 
HETATM    9  C16 UNL     1      -3.095  51.172 -25.169  1.00  0.00     0.108 A 
HETATM   10  N6  UNL     1      -3.888  50.416 -25.974  1.00  0.00    -0.351 N 
ATOM     11  H6  UNL     1      -4.311  50.827 -26.806  1.00  0.00     0.166 HD
HETATM   12  H8  UNL     1      -2.034  48.137 -22.088  1.00  0.00     0.187 HD
ENDROOT
BRANCH   1  13
HETATM   13  N2  UNL     1      -4.952  48.483 -26.590  1.00  0.00    -0.295 N 
HETATM   14  C3  UNL     1      -4.839  48.435 -27.953  1.00  0.00     0.322 C 
HETATM   15  N1  UNL     1      -5.851  47.678 -28.505  1.00  0.00    -0.335 N 
HETATM   16  O1  UNL     1      -3.979  48.983 -28.630  1.00  0.00    -0.247 OA
HETATM   17  H5  UNL     1      -6.174  46.919 -27.922  1.00  0.00     0.165 HD
HETATM   18  H6  UNL     1      -5.794  48.128 -26.165  1.00  0.00     0.172 HD
BRANCH  15  19
HETATM   19  C2  UNL     1      -5.899  47.427 -29.939  1.00  0.00     0.115 C 
HETATM   20  C1  UNL     1      -6.798  48.433 -30.664  1.00  0.00     0.037 C 
BRANCH  19  21
HETATM   21  C17 UNL     1      -6.356  45.998 -30.188  1.00  0.00    -0.036 A 
HETATM   22  C18 UNL     1      -7.146  45.307 -29.254  1.00  0.00     0.009 A 
HETATM   23  C19 UNL     1      -7.543  43.990 -29.492  1.00  0.00     0.001 A 
HETATM   24  C20 UNL     1      -7.152  43.345 -30.663  1.00  0.00     0.000 A 
HETATM   25  C21 UNL     1      -6.363  44.014 -31.596  1.00  0.00     0.001 A 
HETATM   26  C22 UNL     1      -5.966  45.332 -31.360  1.00  0.00     0.009 A 
ENDBRANCH  19  21
ENDBRANCH  15  19
ENDBRANCH   1  13
BRANCH   7  27
HETATM   27  O2  UNL     1      -1.151  52.276 -22.860  1.00  0.00    -0.334 OA
BRANCH  27  28
HETATM   28  C8  UNL     1       0.221  52.381 -23.241  1.00  0.00     0.179 C 
BRANCH  28  29
HETATM   29  C9  UNL     1       0.324  53.285 -24.473  1.00  0.00     0.062 C 
BRANCH  29  30
HETATM   30  C10 UNL     1       0.084  52.548 -25.809  1.00  0.00     0.222 C 
HETATM   31  C11 UNL     1       0.797  51.174 -25.811  1.00  0.00     0.036 C 
HETATM   32  C12 UNL     1       2.202  51.262 -26.396  1.00  0.00     0.004 C 
HETATM   33  C13 UNL     1       2.175  51.845 -27.811  1.00  0.00     0.030 C 
HETATM   34  C14 UNL     1       0.889  52.619 -28.106  1.00  0.00     0.270 C 
HETATM   35  N5  UNL     1       0.477  53.404 -26.946  1.00  0.00     0.088 N 
HETATM   36  H22 UNL     1       1.253  54.007 -26.673  1.00  0.00     0.316 HD
ENDBRANCH  29  30
ENDBRANCH  28  29
ENDBRANCH  27  28
ENDBRANCH   7  27
TORSDOF 7
ENDMDL
MODEL 8
REMARK minimizedAffinity -8.45800972
REMARK  7 active torsions:
REMARK  status: ('A' for Active; 'I' for Inactive)
REMARK    1  A    between atoms: C2_2  and  N1_3 
REMARK    2  A    between atoms: C2_2  and  C17_27 
REMARK       I    between atoms: N1_3  and  C3_4 
REMARK       I    between atoms: C3_4  and  N2_6 
REMARK    3  A    between atoms: N2_6  and  C4_7 
REMARK    4  A    between atoms: C7_13  and  O2_14 
REMARK    5  A    between atoms: O2_14  and  C8_15 
REMARK    6  A    between atoms: C8_15  and  C9_16 
REMARK    7  A    between atoms: C9_16  and  C10_17 
ROOT
HETATM    1  C4  UNL     1       0.988  53.003 -19.692  1.00  0.00     0.111 A 
HETATM    2  C5  UNL     1       1.506  54.115 -20.348  1.00  0.00     0.080 A 
HETATM    3  C6  UNL     1       1.336  54.118 -21.733  1.00  0.00     0.067 A 
HETATM    4  N3  UNL     1       1.705  55.011 -22.702  1.00  0.00    -0.298 N 
HETATM    5  N4  UNL     1       1.357  54.643 -23.950  1.00  0.00    -0.279 N 
ATOM      6  H4  UNL     1       1.528  55.133 -24.828  1.00  0.00     0.189 HD
HETATM    7  C7  UNL     1       0.732  53.478 -23.759  1.00  0.00     0.171 A 
HETATM    8  C15 UNL     1       0.690  53.089 -22.406  1.00  0.00     0.060 A 
HETATM    9  C16 UNL     1       0.195  52.016 -21.671  1.00  0.00     0.108 A 
HETATM   10  N6  UNL     1       0.350  51.987 -20.321  1.00  0.00    -0.351 N 
ATOM     11  H6  UNL     1      -0.013  51.201 -19.782  1.00  0.00     0.166 HD
HETATM   12  H8  UNL     1       2.201  55.887 -22.579  1.00  0.00     0.187 HD
ENDROOT
BRANCH   1  13
HETATM   13  N2  UNL     1       1.059  52.825 -18.310  1.00  0.00    -0.295 N 
HETATM   14  C3  UNL     1       0.639  51.756 -17.565  1.00  0.00     0.322 C 
HETATM   15  N1  UNL     1       0.918  51.947 -16.229  1.00  0.00    -0.335 N 
HETATM   16  O1  UNL     1       0.080  50.752 -17.987  1.00  0.00    -0.247 OA
HETATM   17  H5  UNL     1       1.749  52.492 -16.046  1.00  0.00     0.165 HD
HETATM   18  H6  UNL     1       1.355  53.659 -17.829  1.00  0.00     0.172 HD
BRANCH  15  19
HETATM   19  C2  UNL     1       0.624  50.910 -15.248  1.00  0.00     0.115 C 
HETATM   20  C1  UNL     1       0.550  49.522 -15.892  1.00  0.00     0.037 C 
BRANCH  19  21
HETATM   21  C17 UNL     1      -0.665  51.252 -14.520  1.00  0.00    -0.036 A 
HETATM   22  C18 UNL     1      -0.658  51.980 -13.318  1.00  0.00     0.009 A 
HETATM   23  C19 UNL     1      -1.851  52.272 -12.654  1.00  0.00     0.001 A 
HETATM   24  C20 UNL     1      -3.066  51.834 -13.179  1.00  0.00     0.000 A 
HETATM   25  C21 UNL     1      -3.089  51.105 -14.366  1.00  0.00     0.001 A 
HETATM   26  C22 UNL     1      -1.896  50.814 -15.032  1.00  0.00     0.009 A 
ENDBRANCH  19  21
ENDBRANCH  15  19
ENDBRANCH   1  13
BRANCH   7  27
HETATM   27  O2  UNL     1       0.233  52.769 -24.796  1.00  0.00    -0.334 OA
BRANCH  27  28
HETATM   28  C8  UNL     1      -0.076  53.549 -25.951  1.00  0.00     0.179 C 
BRANCH  28  29
HETATM   29  C9  UNL     1       0.180  52.702 -27.201  1.00  0.00     0.062 C 
BRANCH  29  30
HETATM   30  C10 UNL     1      -0.884  51.609 -27.443  1.00  0.00     0.222 C 
HETATM   31  C11 UNL     1      -2.302  52.227 -27.493  1.00  0.00     0.036 C 
HETATM   32  C12 UNL     1      -2.972  52.230 -26.124  1.00  0.00     0.004 C 
HETATM   33  C13 UNL     1      -3.033  50.817 -25.537  1.00  0.00     0.030 C 
HETATM   34  C14 UNL     1      -2.030  49.864 -26.188  1.00  0.00     0.270 C 
HETATM   35  N5  UNL     1      -0.758  50.537 -26.435  1.00  0.00     0.088 N 
HETATM   36  H22 UNL     1      -0.424  50.928 -25.554  1.00  0.00     0.316 HD
ENDBRANCH  29  30
ENDBRANCH  28  29
ENDBRANCH  27  28
ENDBRANCH   7  27
TORSDOF 7
ENDMDL
MODEL 9
REMARK minimizedAffinity -8.36048317
REMARK  7 active torsions:
REMARK  status: ('A' for Active; 'I' for Inactive)
REMARK    1  A    between atoms: C2_2  and  N1_3 
REMARK    2  A    between atoms: C2_2  and  C17_27 
REMARK       I    between atoms: N1_3  and  C3_4 
REMARK       I    between atoms: C3_4  and  N2_6 
REMARK    3  A    between atoms: N2_6  and  C4_7 
REMARK    4  A    between atoms: C7_13  and  O2_14 
REMARK    5  A    between atoms: O2_14  and  C8_15 
REMARK    6  A    between atoms: C8_15  and  C9_16 
REMARK    7  A    between atoms: C9_16  and  C10_17 
ROOT
HETATM    1  C4  UNL     1      -3.354  48.659 -24.701  1.00  0.00     0.111 A 
HETATM    2  C5  UNL     1      -4.722  48.444 -24.840  1.00  0.00     0.080 A 
HETATM    3  C6  UNL     1      -5.170  48.317 -26.154  1.00  0.00     0.067 A 
HETATM    4  N3  UNL     1      -6.416  48.110 -26.684  1.00  0.00    -0.298 N 
HETATM    5  N4  UNL     1      -6.437  48.051 -28.030  1.00  0.00    -0.279 N 
ATOM      6  H4  UNL     1      -7.239  47.916 -28.647  1.00  0.00     0.189 HD
HETATM    7  C7  UNL     1      -5.154  48.214 -28.361  1.00  0.00     0.171 A 
HETATM    8  C15 UNL     1      -4.314  48.392 -27.245  1.00  0.00     0.060 A 
HETATM    9  C16 UNL     1      -2.957  48.602 -27.017  1.00  0.00     0.108 A 
HETATM   10  N6  UNL     1      -2.494  48.733 -25.745  1.00  0.00    -0.351 N 
ATOM     11  H6  UNL     1      -1.500  48.887 -25.577  1.00  0.00     0.166 HD
HETATM   12  H8  UNL     1      -7.291  48.007 -26.183  1.00  0.00     0.187 HD
ENDROOT
BRANCH   1  13
HETATM   13  N2  UNL     1      -2.721  48.807 -23.467  1.00  0.00    -0.295 N 
HETATM   14  C3  UNL     1      -2.817  49.843 -22.577  1.00  0.00     0.322 C 
HETATM   15  N1  UNL     1      -2.059  49.597 -21.452  1.00  0.00    -0.335 N 
HETATM   16  O1  UNL     1      -3.467  50.869 -22.726  1.00  0.00    -0.247 OA
HETATM   17  H5  UNL     1      -1.983  48.622 -21.201  1.00  0.00     0.165 HD
HETATM   18  H6  UNL     1      -2.027  48.095 -23.302  1.00  0.00     0.172 HD
BRANCH  15  19
HETATM   19  C2  UNL     1      -2.059  50.531 -20.333  1.00  0.00     0.115 C 
HETATM   20  C1  UNL     1      -3.405  51.249 -20.190  1.00  0.00     0.037 C 
BRANCH  19  21
HETATM   21  C17 UNL     1      -0.919  51.521 -20.500  1.00  0.00    -0.036 A 
HETATM   22  C18 UNL     1      -0.650  52.501 -19.528  1.00  0.00     0.009 A 
HETATM   23  C19 UNL     1       0.392  53.412 -19.705  1.00  0.00     0.001 A 
HETATM   24  C20 UNL     1       1.175  53.362 -20.857  1.00  0.00     0.000 A 
HETATM   25  C21 UNL     1       0.916  52.402 -21.832  1.00  0.00     0.001 A 
HETATM   26  C22 UNL     1      -0.125  51.488 -21.656  1.00  0.00     0.009 A 
ENDBRANCH  19  21
ENDBRANCH  15  19
ENDBRANCH   1  13
BRANCH   7  27
HETATM   27  O2  UNL     1      -4.757  48.228 -29.653  1.00  0.00    -0.334 OA
BRANCH  27  28
HETATM   28  C8  UNL     1      -5.801  48.498 -30.589  1.00  0.00     0.179 C 
BRANCH  28  29
HETATM   29  C9  UNL     1      -6.152  47.201 -31.324  1.00  0.00     0.062 C 
BRANCH  29  30
HETATM   30  C10 UNL     1      -7.656  47.052 -31.641  1.00  0.00     0.222 C 
HETATM   31  C11 UNL     1      -8.293  48.431 -31.935  1.00  0.00     0.036 C 
HETATM   32  C12 UNL     1      -8.873  49.071 -30.680  1.00  0.00     0.004 C 
HETATM   33  C13 UNL     1      -9.898  48.149 -30.014  1.00  0.00     0.030 C 
HETATM   34  C14 UNL     1      -9.749  46.690 -30.449  1.00  0.00     0.270 C 
HETATM   35  N5  UNL     1      -8.340  46.320 -30.556  1.00  0.00     0.088 N 
HETATM   36  H22 UNL     1      -7.887  46.519 -29.665  1.00  0.00     0.316 HD
ENDBRANCH  29  30
ENDBRANCH  28  29
ENDBRANCH  27  28
ENDBRANCH   7  27
TORSDOF 7
ENDMDL
