MODEL 1
REMARK minimizedAffinity -8.79038334
REMARK CNNscore 0.555466115
REMARK CNNaffinity 6.94949341
REMARK  8 active torsions:
REMARK  status: ('A' for Active; 'I' for Inactive)
REMARK       I    between atoms: C1_2  and  N1_3 
REMARK    1  A    between atoms: C1_2  and  C11_14 
REMARK    2  A    between atoms: N1_3  and  C2_4 
REMARK    3  A    between atoms: C5_7  and  O2_8 
REMARK    4  A    between atoms: C6_9  and  C7_10 
REMARK    5  A    between atoms: N2_17  and  C14_18 
REMARK    6  A    between atoms: C14_18  and  C15_19 
REMARK       I    between atoms: C15_19  and  N3_21 
REMARK    7  A    between atoms: N4_24  and  C18_25 
REMARK    8  A    between atoms: C21_28  and  C22_29 
ROOT
HETATM    1  C15 UNL     1      -5.189  47.952 -28.589  1.00  0.00     0.248 C 
HETATM    2  O3  UNL     1      -4.562  48.068 -29.646  1.00  0.00    -0.271 OA
HETATM    3  N3  UNL     1      -6.545  47.634 -28.561  1.00  0.00    -0.348 N 
HETATM    4  C16 UNL     1      -7.404  47.861 -27.389  1.00  0.00     0.140 C 
HETATM    5  C17 UNL     1      -8.642  46.944 -27.367  1.00  0.00     0.115 C 
HETATM    6  N4  UNL     1      -9.363  46.973 -28.665  1.00  0.00    -0.280 NA
HETATM    7  C28 UNL     1      -8.475  46.661 -29.808  1.00  0.00     0.115 C 
HETATM    8  C29 UNL     1      -7.266  47.610 -29.837  1.00  0.00     0.140 C 
ENDROOT
BRANCH   1   9
HETATM    9  C14 UNL     1      -4.454  48.118 -27.249  1.00  0.00     0.374 C 
BRANCH   9  10
HETATM   10  N2  UNL     1      -4.278  49.548 -26.910  1.00  0.00     0.098 N 
HETATM   11  C13 UNL     1      -3.079  50.127 -27.538  1.00  0.00     0.274 C 
HETATM   12  C12 UNL     1      -1.908  49.779 -26.623  1.00  0.00     0.046 C 
HETATM   13  C11 UNL     1      -2.541  49.448 -25.269  1.00  0.00     0.108 C 
HETATM   14  C30 UNL     1      -4.027  49.736 -25.469  1.00  0.00     0.287 C 
BRANCH  13  15
HETATM   15  C1  UNL     1      -1.933  50.236 -24.116  1.00  0.00     0.228 C 
HETATM   16  O1  UNL     1      -2.168  49.957 -22.948  1.00  0.00    -0.273 OA
HETATM   17  N1  UNL     1      -1.097  51.247 -24.567  1.00  0.00    -0.327 N 
HETATM   18  H1  UNL     1      -0.983  51.330 -25.570  1.00  0.00     0.169 HD
BRANCH  17  19
HETATM   19  C2  UNL     1      -0.339  52.148 -23.788  1.00  0.00     0.035 A 
HETATM   20  C3  UNL     1       0.254  53.224 -24.458  1.00  0.00     0.032 A 
HETATM   21  C4  UNL     1       1.044  54.144 -23.766  1.00  0.00     0.039 A 
HETATM   22  C5  UNL     1       1.235  53.992 -22.393  1.00  0.00     0.072 A 
HETATM   23  C6  UNL     1       0.636  52.944 -21.674  1.00  0.00    -0.019 A 
HETATM   24  C10 UNL     1      -0.143  52.023 -22.409  1.00  0.00     0.039 A 
BRANCH  22  25
HETATM   25  O2  UNL     1       2.029  54.879 -21.719  1.00  0.00    -0.360 OA
HETATM   26  H4  UNL     1       2.406  55.513 -22.350  1.00  0.00     0.217 HD
ENDBRANCH  22  25
BRANCH  23  27
HETATM   27  C7  UNL     1       0.843  52.757 -20.186  1.00  0.00     0.021 A 
HETATM   28  C8  UNL     1      -0.294  52.270 -19.313  1.00  0.00     0.010 A 
HETATM   29  C9  UNL     1       0.180  53.688 -19.197  1.00  0.00     0.010 A 
ENDBRANCH  23  27
ENDBRANCH  17  19
ENDBRANCH  13  15
ENDBRANCH   9  10
ENDBRANCH   1   9
BRANCH   6  30
HETATM   30  C18 UNL     1     -10.608  46.318 -28.610  1.00  0.00     0.010 A 
HETATM   31  C19 UNL     1     -10.663  44.971 -28.220  1.00  0.00     0.024 A 
HETATM   32  C20 UNL     1     -11.874  44.266 -28.162  1.00  0.00     0.017 A 
HETATM   33  C21 UNL     1     -13.096  44.877 -28.485  1.00  0.00     0.008 A 
HETATM   34  C26 UNL     1     -13.041  46.231 -28.853  1.00  0.00     0.017 A 
HETATM   35  C27 UNL     1     -11.826  46.936 -28.906  1.00  0.00     0.024 A 
BRANCH  33  36
HETATM   36  C22 UNL     1     -14.373  44.134 -28.442  1.00  0.00     0.115 A 
HETATM   37  N5  UNL     1     -15.515  44.829 -28.620  1.00  0.00    -0.352 N 
HETATM   38  C23 UNL     1     -16.663  44.128 -28.565  1.00  0.00     0.091 A 
ATOM     39  H5  UNL     1     -15.509  45.835 -28.786  1.00  0.00     0.166 HD
HETATM   40  C24 UNL     1     -16.717  42.776 -28.341  1.00  0.00     0.034 A 
HETATM   41  C25 UNL     1     -15.503  42.156 -28.173  1.00  0.00     0.091 A 
HETATM   42  N6  UNL     1     -14.325  42.805 -28.217  1.00  0.00    -0.352 N 
ATOM     43  H6  UNL     1     -13.439  42.316 -28.085  1.00  0.00     0.166 HD
ENDBRANCH  33  36
ENDBRANCH   6  30
TORSDOF 8
ENDMDL
MODEL 2
REMARK minimizedAffinity -8.05103207
REMARK CNNscore 0.531000257
REMARK CNNaffinity 5.52572775
REMARK  8 active torsions:
REMARK  status: ('A' for Active; 'I' for Inactive)
REMARK       I    between atoms: C1_2  and  N1_3 
REMARK    1  A    between atoms: C1_2  and  C11_14 
REMARK    2  A    between atoms: N1_3  and  C2_4 
REMARK    3  A    between atoms: C5_7  and  O2_8 
REMARK    4  A    between atoms: C6_9  and  C7_10 
REMARK    5  A    between atoms: N2_17  and  C14_18 
REMARK    6  A    between atoms: C14_18  and  C15_19 
REMARK       I    between atoms: C15_19  and  N3_21 
REMARK    7  A    between atoms: N4_24  and  C18_25 
REMARK    8  A    between atoms: C21_28  and  C22_29 
ROOT
HETATM    1  C15 UNL     1      -9.474  44.831 -31.403  1.00  0.00     0.248 C 
HETATM    2  O3  UNL     1     -10.358  44.050 -31.038  1.00  0.00    -0.271 OA
HETATM    3  N3  UNL     1      -8.734  45.589 -30.498  1.00  0.00    -0.348 N 
HETATM    4  C16 UNL     1      -7.967  46.783 -30.883  1.00  0.00     0.140 C 
HETATM    5  C17 UNL     1      -6.816  47.096 -29.907  1.00  0.00     0.115 C 
HETATM    6  N4  UNL     1      -7.284  47.100 -28.497  1.00  0.00    -0.280 NA
HETATM    7  C28 UNL     1      -7.980  45.846 -28.133  1.00  0.00     0.115 C 
HETATM    8  C29 UNL     1      -9.150  45.570 -29.092  1.00  0.00     0.140 C 
ENDROOT
BRANCH   1   9
HETATM    9  C14 UNL     1      -9.138  44.951 -32.898  1.00  0.00     0.374 C 
BRANCH   9  10
HETATM   10  N2  UNL     1      -9.700  46.193 -33.474  1.00  0.00     0.098 N 
HETATM   11  C13 UNL     1     -11.171  46.202 -33.453  1.00  0.00     0.274 C 
HETATM   12  C12 UNL     1     -11.620  45.437 -34.695  1.00  0.00     0.046 C 
HETATM   13  C11 UNL     1     -10.410  45.449 -35.633  1.00  0.00     0.108 C 
HETATM   14  C30 UNL     1      -9.383  46.316 -34.908  1.00  0.00     0.287 C 
BRANCH  13  15
HETATM   15  C1  UNL     1     -10.740  45.960 -37.029  1.00  0.00     0.228 C 
HETATM   16  O1  UNL     1     -10.110  45.601 -38.015  1.00  0.00    -0.273 OA
HETATM   17  N1  UNL     1     -11.823  46.827 -37.018  1.00  0.00    -0.327 N 
HETATM   18  H1  UNL     1     -12.257  47.001 -36.120  1.00  0.00     0.169 HD
BRANCH  17  19
HETATM   19  C2  UNL     1     -12.429  47.461 -38.124  1.00  0.00     0.035 A 
HETATM   20  C3  UNL     1     -12.660  48.838 -38.021  1.00  0.00     0.032 A 
HETATM   21  C4  UNL     1     -13.282  49.534 -39.058  1.00  0.00     0.039 A 
HETATM   22  C5  UNL     1     -13.668  48.851 -40.211  1.00  0.00     0.072 A 
HETATM   23  C6  UNL     1     -13.430  47.476 -40.371  1.00  0.00    -0.019 A 
HETATM   24  C10 UNL     1     -12.814  46.800 -39.295  1.00  0.00     0.039 A 
BRANCH  22  25
HETATM   25  O2  UNL     1     -14.300  49.529 -41.218  1.00  0.00    -0.360 OA
HETATM   26  H4  UNL     1     -14.434  50.451 -40.947  1.00  0.00     0.217 HD
ENDBRANCH  22  25
BRANCH  23  27
HETATM   27  C7  UNL     1     -13.854  46.717 -41.611  1.00  0.00     0.021 A 
HETATM   28  C8  UNL     1     -12.923  45.702 -42.240  1.00  0.00     0.010 A 
HETATM   29  C9  UNL     1     -13.197  46.997 -42.944  1.00  0.00     0.010 A 
ENDBRANCH  23  27
ENDBRANCH  17  19
ENDBRANCH  13  15
ENDBRANCH   9  10
ENDBRANCH   1   9
BRANCH   6  30
HETATM   30  C18 UNL     1      -6.312  47.588 -27.604  1.00  0.00     0.010 A 
HETATM   31  C19 UNL     1      -6.610  47.671 -26.236  1.00  0.00     0.024 A 
HETATM   32  C20 UNL     1      -5.685  48.164 -25.304  1.00  0.00     0.017 A 
HETATM   33  C21 UNL     1      -4.406  48.593 -25.695  1.00  0.00     0.008 A 
HETATM   34  C26 UNL     1      -4.102  48.487 -27.062  1.00  0.00     0.017 A 
HETATM   35  C27 UNL     1      -5.029  47.990 -27.992  1.00  0.00     0.024 A 
BRANCH  33  36
HETATM   36  C22 UNL     1      -3.433  49.129 -24.721  1.00  0.00     0.115 A 
HETATM   37  N5  UNL     1      -2.789  50.271 -25.032  1.00  0.00    -0.352 N 
HETATM   38  C23 UNL     1      -1.901  50.730 -24.131  1.00  0.00     0.091 A 
ATOM     39  H5  UNL     1      -2.966  50.763 -25.908  1.00  0.00     0.166 HD
HETATM   40  C24 UNL     1      -1.631  50.100 -22.943  1.00  0.00     0.034 A 
HETATM   41  C25 UNL     1      -2.337  48.945 -22.713  1.00  0.00     0.091 A 
HETATM   42  N6  UNL     1      -3.236  48.438 -23.578  1.00  0.00    -0.352 N 
ATOM     43  H6  UNL     1      -3.742  47.576 -23.380  1.00  0.00     0.166 HD
ENDBRANCH  33  36
ENDBRANCH   6  30
TORSDOF 8
ENDMDL
MODEL 3
REMARK minimizedAffinity -8.49761868
REMARK CNNscore 0.505123854
REMARK CNNaffinity 5.84855509
REMARK  8 active torsions:
REMARK  status: ('A' for Active; 'I' for Inactive)
REMARK       I    between atoms: C1_2  and  N1_3 
REMARK    1  A    between atoms: C1_2  and  C11_14 
REMARK    2  A    between atoms: N1_3  and  C2_4 
REMARK    3  A    between atoms: C5_7  and  O2_8 
REMARK    4  A    between atoms: C6_9  and  C7_10 
REMARK    5  A    between atoms: N2_17  and  C14_18 
REMARK    6  A    between atoms: C14_18  and  C15_19 
REMARK       I    between atoms: C15_19  and  N3_21 
REMARK    7  A    between atoms: N4_24  and  C18_25 
REMARK    8  A    between atoms: C21_28  and  C22_29 
ROOT
HETATM    1  C15 UNL     1      -7.939  47.338 -30.930  1.00  0.00     0.248 C 
HETATM    2  O3  UNL     1      -7.615  47.424 -32.118  1.00  0.00    -0.271 OA
HETATM    3  N3  UNL     1      -7.028  47.539 -29.895  1.00  0.00    -0.348 N 
HETATM    4  C16 UNL     1      -7.257  47.079 -28.517  1.00  0.00     0.140 C 
HETATM    5  C17 UNL     1      -6.452  47.882 -27.476  1.00  0.00     0.115 C 
HETATM    6  N4  UNL     1      -5.020  47.982 -27.856  1.00  0.00    -0.280 NA
HETATM    7  C28 UNL     1      -4.837  48.525 -29.221  1.00  0.00     0.115 C 
HETATM    8  C29 UNL     1      -5.614  47.689 -30.251  1.00  0.00     0.140 C 
ENDROOT
BRANCH   1   9
HETATM    9  C14 UNL     1      -9.402  47.040 -30.563  1.00  0.00     0.374 C 
BRANCH   9  10
HETATM   10  N2  UNL     1      -9.553  45.662 -30.044  1.00  0.00     0.098 N 
HETATM   11  C13 UNL     1     -10.075  44.736 -31.063  1.00  0.00     0.274 C 
HETATM   12  C12 UNL     1     -11.593  44.896 -31.046  1.00  0.00     0.046 C 
HETATM   13  C11 UNL     1     -11.915  45.533 -29.691  1.00  0.00     0.108 C 
HETATM   14  C30 UNL     1     -10.567  45.594 -28.976  1.00  0.00     0.287 C 
BRANCH  13  15
HETATM   15  C1  UNL     1     -12.970  44.765 -28.906  1.00  0.00     0.228 C 
HETATM   16  O1  UNL     1     -12.733  43.675 -28.400  1.00  0.00    -0.273 OA
HETATM   17  N1  UNL     1     -14.167  45.461 -28.832  1.00  0.00    -0.327 N 
HETATM   18  H1  UNL     1     -14.194  46.369 -29.281  1.00  0.00     0.169 HD
BRANCH  17  19
HETATM   19  C2  UNL     1     -15.347  45.077 -28.158  1.00  0.00     0.035 A 
HETATM   20  C3  UNL     1     -16.199  44.188 -28.823  1.00  0.00     0.032 A 
HETATM   21  C4  UNL     1     -17.399  43.782 -28.238  1.00  0.00     0.039 A 
HETATM   22  C5  UNL     1     -17.745  44.260 -26.975  1.00  0.00     0.072 A 
HETATM   23  C6  UNL     1     -16.908  45.130 -26.258  1.00  0.00    -0.019 A 
HETATM   24  C10 UNL     1     -15.710  45.534 -26.887  1.00  0.00     0.039 A 
BRANCH  22  25
HETATM   25  O2  UNL     1     -18.934  43.882 -26.412  1.00  0.00    -0.360 OA
HETATM   26  H4  UNL     1     -19.420  43.322 -27.038  1.00  0.00     0.217 HD
ENDBRANCH  22  25
BRANCH  23  27
HETATM   27  C7  UNL     1     -17.275  45.669 -24.891  1.00  0.00     0.021 A 
HETATM   28  C8  UNL     1     -18.131  46.911 -24.765  1.00  0.00     0.010 A 
HETATM   29  C9  UNL     1     -16.680  46.966 -24.392  1.00  0.00     0.010 A 
ENDBRANCH  23  27
ENDBRANCH  17  19
ENDBRANCH  13  15
ENDBRANCH   9  10
ENDBRANCH   1   9
BRANCH   6  30
HETATM   30  C18 UNL     1      -4.223  48.521 -26.829  1.00  0.00     0.010 A 
HETATM   31  C19 UNL     1      -4.607  48.345 -25.491  1.00  0.00     0.024 A 
HETATM   32  C20 UNL     1      -3.859  48.874 -24.429  1.00  0.00     0.017 A 
HETATM   33  C21 UNL     1      -2.678  49.602 -24.653  1.00  0.00     0.008 A 
HETATM   34  C26 UNL     1      -2.283  49.756 -25.991  1.00  0.00     0.017 A 
HETATM   35  C27 UNL     1      -3.033  49.223 -27.053  1.00  0.00     0.024 A 
BRANCH  33  36
HETATM   36  C22 UNL     1      -1.895  50.175 -23.540  1.00  0.00     0.115 A 
HETATM   37  N5  UNL     1      -1.755  49.439 -22.418  1.00  0.00    -0.352 N 
HETATM   38  C23 UNL     1      -1.045  49.991 -21.417  1.00  0.00     0.091 A 
ATOM     39  H5  UNL     1      -2.167  48.510 -22.334  1.00  0.00     0.166 HD
HETATM   40  C24 UNL     1      -0.476  51.237 -21.487  1.00  0.00     0.034 A 
HETATM   41  C25 UNL     1      -0.672  51.910 -22.668  1.00  0.00     0.091 A 
HETATM   42  N6  UNL     1      -1.373  51.409 -23.702  1.00  0.00    -0.352 N 
ATOM     43  H6  UNL     1      -1.503  51.935 -24.566  1.00  0.00     0.166 HD
ENDBRANCH  33  36
ENDBRANCH   6  30
TORSDOF 8
ENDMDL
MODEL 4
REMARK minimizedAffinity -8.32206917
REMARK CNNscore 0.457251847
REMARK CNNaffinity 6.098351
REMARK  8 active torsions:
REMARK  status: ('A' for Active; 'I' for Inactive)
REMARK       I    between atoms: C1_2  and  N1_3 
REMARK    1  A    between atoms: C1_2  and  C11_14 
REMARK    2  A    between atoms: N1_3  and  C2_4 
REMARK    3  A    between atoms: C5_7  and  O2_8 
REMARK    4  A    between atoms: C6_9  and  C7_10 
REMARK    5  A    between atoms: N2_17  and  C14_18 
REMARK    6  A    between atoms: C14_18  and  C15_19 
REMARK       I    between atoms: C15_19  and  N3_21 
REMARK    7  A    between atoms: N4_24  and  C18_25 
REMARK    8  A    between atoms: C21_28  and  C22_29 
ROOT
HETATM    1  C15 UNL     1      -6.803  47.791 -26.214  1.00  0.00     0.248 C 
HETATM    2  O3  UNL     1      -6.125  47.670 -27.239  1.00  0.00    -0.271 OA
HETATM    3  N3  UNL     1      -8.191  47.666 -26.223  1.00  0.00    -0.348 N 
HETATM    4  C16 UNL     1      -9.053  48.172 -25.145  1.00  0.00     0.140 C 
HETATM    5  C17 UNL     1     -10.410  47.444 -25.071  1.00  0.00     0.115 C 
HETATM    6  N4  UNL     1     -11.068  47.385 -26.401  1.00  0.00    -0.280 NA
HETATM    7  C28 UNL     1     -10.190  46.796 -27.437  1.00  0.00     0.115 C 
HETATM    8  C29 UNL     1      -8.858  47.559 -27.524  1.00  0.00     0.140 C 
ENDROOT
BRANCH   1   9
HETATM    9  C14 UNL     1      -6.104  48.045 -24.869  1.00  0.00     0.374 C 
BRANCH   9  10
HETATM   10  N2  UNL     1      -5.070  49.096 -24.994  1.00  0.00     0.098 N 
HETATM   11  C13 UNL     1      -3.707  48.555 -24.862  1.00  0.00     0.274 C 
HETATM   12  C12 UNL     1      -3.425  48.473 -23.364  1.00  0.00     0.046 C 
HETATM   13  C11 UNL     1      -4.433  49.423 -22.712  1.00  0.00     0.108 C 
HETATM   14  C30 UNL     1      -5.153  50.071 -23.892  1.00  0.00     0.287 C 
BRANCH  13  15
HETATM   15  C1  UNL     1      -3.781  50.439 -21.783  1.00  0.00     0.228 C 
HETATM   16  O1  UNL     1      -4.444  51.162 -21.050  1.00  0.00    -0.273 OA
HETATM   17  N1  UNL     1      -2.398  50.404 -21.869  1.00  0.00    -0.327 N 
HETATM   18  H1  UNL     1      -1.998  49.725 -22.506  1.00  0.00     0.169 HD
BRANCH  17  19
HETATM   19  C2  UNL     1      -1.469  51.172 -21.133  1.00  0.00     0.035 A 
HETATM   20  C3  UNL     1      -0.722  52.119 -21.843  1.00  0.00     0.032 A 
HETATM   21  C4  UNL     1       0.238  52.898 -21.194  1.00  0.00     0.039 A 
HETATM   22  C5  UNL     1       0.445  52.736 -19.825  1.00  0.00     0.072 A 
HETATM   23  C6  UNL     1      -0.302  51.820 -19.067  1.00  0.00    -0.019 A 
HETATM   24  C10 UNL     1      -1.252  51.036 -19.758  1.00  0.00     0.039 A 
BRANCH  22  25
HETATM   25  O2  UNL     1       1.403  53.482 -19.194  1.00  0.00    -0.360 OA
HETATM   26  H4  UNL     1       1.863  54.031 -19.849  1.00  0.00     0.217 HD
ENDBRANCH  22  25
BRANCH  23  27
HETATM   27  C7  UNL     1      -0.081  51.623 -17.581  1.00  0.00     0.021 A 
HETATM   28  C8  UNL     1       0.443  50.303 -17.057  1.00  0.00     0.010 A 
HETATM   29  C9  UNL     1      -0.977  50.700 -16.788  1.00  0.00     0.010 A 
ENDBRANCH  23  27
ENDBRANCH  17  19
ENDBRANCH  13  15
ENDBRANCH   9  10
ENDBRANCH   1   9
BRANCH   6  30
HETATM   30  C18 UNL     1     -12.394  46.919 -26.331  1.00  0.00     0.010 A 
HETATM   31  C19 UNL     1     -13.006  46.398 -27.481  1.00  0.00     0.024 A 
HETATM   32  C20 UNL     1     -14.329  45.935 -27.471  1.00  0.00     0.017 A 
HETATM   33  C21 UNL     1     -15.108  45.961 -26.303  1.00  0.00     0.008 A 
HETATM   34  C26 UNL     1     -14.486  46.461 -25.148  1.00  0.00     0.017 A 
HETATM   35  C27 UNL     1     -13.159  46.922 -25.160  1.00  0.00     0.024 A 
BRANCH  33  36
HETATM   36  C22 UNL     1     -16.508  45.490 -26.290  1.00  0.00     0.115 A 
HETATM   37  N5  UNL     1     -17.159  45.470 -25.109  1.00  0.00    -0.352 N 
HETATM   38  C23 UNL     1     -18.430  45.026 -25.126  1.00  0.00     0.091 A 
ATOM     39  H5  UNL     1     -16.710  45.775 -24.246  1.00  0.00     0.166 HD
HETATM   40  C24 UNL     1     -19.071  44.603 -26.262  1.00  0.00     0.034 A 
HETATM   41  C25 UNL     1     -18.328  44.662 -27.416  1.00  0.00     0.091 A 
HETATM   42  N6  UNL     1     -17.054  45.095 -27.459  1.00  0.00    -0.352 N 
ATOM     43  H6  UNL     1     -16.528  45.124 -28.332  1.00  0.00     0.166 HD
ENDBRANCH  33  36
ENDBRANCH   6  30
TORSDOF 8
ENDMDL
MODEL 5
REMARK minimizedAffinity -8.06086349
REMARK CNNscore 0.400719613
REMARK CNNaffinity 5.81683969
REMARK  8 active torsions:
REMARK  status: ('A' for Active; 'I' for Inactive)
REMARK       I    between atoms: C1_2  and  N1_3 
REMARK    1  A    between atoms: C1_2  and  C11_14 
REMARK    2  A    between atoms: N1_3  and  C2_4 
REMARK    3  A    between atoms: C5_7  and  O2_8 
REMARK    4  A    between atoms: C6_9  and  C7_10 
REMARK    5  A    between atoms: N2_17  and  C14_18 
REMARK    6  A    between atoms: C14_18  and  C15_19 
REMARK       I    between atoms: C15_19  and  N3_21 
REMARK    7  A    between atoms: N4_24  and  C18_25 
REMARK    8  A    between atoms: C21_28  and  C22_29 
ROOT
HETATM    1  C15 UNL     1      -8.457  46.649 -32.764  1.00  0.00     0.248 C 
HETATM    2  O3  UNL     1      -8.515  47.451 -33.701  1.00  0.00    -0.271 OA
HETATM    3  N3  UNL     1      -7.641  46.861 -31.655  1.00  0.00    -0.348 N 
HETATM    4  C16 UNL     1      -7.248  45.791 -30.726  1.00  0.00     0.140 C 
HETATM    5  C17 UNL     1      -6.867  46.320 -29.329  1.00  0.00     0.115 C 
HETATM    6  N4  UNL     1      -5.895  47.439 -29.418  1.00  0.00    -0.280 NA
HETATM    7  C28 UNL     1      -6.370  48.527 -30.301  1.00  0.00     0.115 C 
HETATM    8  C29 UNL     1      -6.707  47.989 -31.701  1.00  0.00     0.140 C 
ENDROOT
BRANCH   1   9
HETATM    9  C14 UNL     1      -9.340  45.390 -32.788  1.00  0.00     0.374 C 
BRANCH   9  10
HETATM   10  N2  UNL     1     -10.764  45.732 -32.574  1.00  0.00     0.098 N 
HETATM   11  C13 UNL     1     -10.930  46.919 -31.719  1.00  0.00     0.274 C 
HETATM   12  C12 UNL     1     -10.846  46.422 -30.278  1.00  0.00     0.046 C 
HETATM   13  C11 UNL     1     -11.130  44.920 -30.354  1.00  0.00     0.108 C 
HETATM   14  C30 UNL     1     -11.467  44.676 -31.823  1.00  0.00     0.287 C 
BRANCH  13  15
HETATM   15  C1  UNL     1     -12.237  44.473 -29.408  1.00  0.00     0.228 C 
HETATM   16  O1  UNL     1     -12.287  43.332 -28.967  1.00  0.00    -0.273 OA
HETATM   17  N1  UNL     1     -13.115  45.505 -29.117  1.00  0.00    -0.327 N 
HETATM   18  H1  UNL     1     -12.918  46.403 -29.542  1.00  0.00     0.169 HD
BRANCH  17  19
HETATM   19  C2  UNL     1     -14.232  45.468 -28.254  1.00  0.00     0.035 A 
HETATM   20  C3  UNL     1     -15.333  44.711 -28.669  1.00  0.00     0.032 A 
HETATM   21  C4  UNL     1     -16.487  44.648 -27.887  1.00  0.00     0.039 A 
HETATM   22  C5  UNL     1     -16.537  45.337 -26.676  1.00  0.00     0.072 A 
HETATM   23  C6  UNL     1     -15.445  46.084 -26.205  1.00  0.00    -0.019 A 
HETATM   24  C10 UNL     1     -14.301  46.141 -27.030  1.00  0.00     0.039 A 
BRANCH  22  25
HETATM   25  O2  UNL     1     -17.678  45.294 -25.921  1.00  0.00    -0.360 OA
HETATM   26  H4  UNL     1     -18.354  44.782 -26.393  1.00  0.00     0.217 HD
ENDBRANCH  22  25
BRANCH  23  27
HETATM   27  C7  UNL     1     -15.488  46.849 -24.898  1.00  0.00     0.021 A 
HETATM   28  C8  UNL     1     -14.280  46.867 -23.985  1.00  0.00     0.010 A 
HETATM   29  C9  UNL     1     -15.510  46.112 -23.579  1.00  0.00     0.010 A 
ENDBRANCH  23  27
ENDBRANCH  17  19
ENDBRANCH  13  15
ENDBRANCH   9  10
ENDBRANCH   1   9
BRANCH   6  30
HETATM   30  C18 UNL     1      -5.368  47.801 -28.164  1.00  0.00     0.010 A 
HETATM   31  C19 UNL     1      -4.039  48.242 -28.074  1.00  0.00     0.024 A 
HETATM   32  C20 UNL     1      -3.459  48.600 -26.848  1.00  0.00     0.017 A 
HETATM   33  C21 UNL     1      -4.184  48.543 -25.647  1.00  0.00     0.008 A 
HETATM   34  C26 UNL     1      -5.521  48.123 -25.743  1.00  0.00     0.017 A 
HETATM   35  C27 UNL     1      -6.101  47.768 -26.973  1.00  0.00     0.024 A 
BRANCH  33  36
HETATM   36  C22 UNL     1      -3.573  48.903 -24.351  1.00  0.00     0.115 A 
HETATM   37  N5  UNL     1      -4.137  48.414 -23.228  1.00  0.00    -0.352 N 
HETATM   38  C23 UNL     1      -3.566  48.767 -22.061  1.00  0.00     0.091 A 
ATOM     39  H5  UNL     1      -4.956  47.807 -23.261  1.00  0.00     0.166 HD
HETATM   40  C24 UNL     1      -2.466  49.582 -21.970  1.00  0.00     0.034 A 
HETATM   41  C25 UNL     1      -1.963  50.030 -23.167  1.00  0.00     0.091 A 
HETATM   42  N6  UNL     1      -2.493  49.711 -24.363  1.00  0.00    -0.352 N 
ATOM     43  H6  UNL     1      -2.097  50.062 -25.235  1.00  0.00     0.166 HD
ENDBRANCH  33  36
ENDBRANCH   6  30
TORSDOF 8
ENDMDL
MODEL 6
REMARK minimizedAffinity -9.05787277
REMARK CNNscore 0.386437416
REMARK CNNaffinity 6.48324728
REMARK  8 active torsions:
REMARK  status: ('A' for Active; 'I' for Inactive)
REMARK       I    between atoms: C1_2  and  N1_3 
REMARK    1  A    between atoms: C1_2  and  C11_14 
REMARK    2  A    between atoms: N1_3  and  C2_4 
REMARK    3  A    between atoms: C5_7  and  O2_8 
REMARK    4  A    between atoms: C6_9  and  C7_10 
REMARK    5  A    between atoms: N2_17  and  C14_18 
REMARK    6  A    between atoms: C14_18  and  C15_19 
REMARK       I    between atoms: C15_19  and  N3_21 
REMARK    7  A    between atoms: N4_24  and  C18_25 
REMARK    8  A    between atoms: C21_28  and  C22_29 
ROOT
HETATM    1  C15 UNL     1      -5.505  47.871 -27.626  1.00  0.00     0.248 C 
HETATM    2  O3  UNL     1      -6.237  47.792 -26.635  1.00  0.00    -0.271 OA
HETATM    3  N3  UNL     1      -5.955  47.561 -28.908  1.00  0.00    -0.348 N 
HETATM    4  C16 UNL     1      -5.052  47.268 -30.031  1.00  0.00     0.140 C 
HETATM    5  C17 UNL     1      -5.701  47.528 -31.405  1.00  0.00     0.115 C 
HETATM    6  N4  UNL     1      -7.033  46.879 -31.508  1.00  0.00    -0.280 NA
HETATM    7  C28 UNL     1      -7.934  47.266 -30.399  1.00  0.00     0.115 C 
HETATM    8  C29 UNL     1      -7.287  46.964 -29.037  1.00  0.00     0.140 C 
ENDROOT
BRANCH   1   9
HETATM    9  C14 UNL     1      -4.059  48.367 -27.463  1.00  0.00     0.374 C 
BRANCH   9  10
HETATM   10  N2  UNL     1      -4.022  49.719 -26.862  1.00  0.00     0.098 N 
HETATM   11  C13 UNL     1      -2.812  50.466 -27.245  1.00  0.00     0.274 C 
HETATM   12  C12 UNL     1      -1.715  50.021 -26.282  1.00  0.00     0.046 C 
HETATM   13  C11 UNL     1      -2.451  49.417 -25.084  1.00  0.00     0.108 C 
HETATM   14  C30 UNL     1      -3.927  49.656 -25.393  1.00  0.00     0.287 C 
BRANCH  13  15
HETATM   15  C1  UNL     1      -2.018  50.015 -23.752  1.00  0.00     0.228 C 
HETATM   16  O1  UNL     1      -2.361  49.528 -22.683  1.00  0.00    -0.273 OA
HETATM   17  N1  UNL     1      -1.197  51.120 -23.926  1.00  0.00    -0.327 N 
HETATM   18  H1  UNL     1      -0.981  51.381 -24.880  1.00  0.00     0.169 HD
BRANCH  17  19
HETATM   19  C2  UNL     1      -0.581  51.900 -22.924  1.00  0.00     0.035 A 
HETATM   20  C3  UNL     1       0.375  52.833 -23.341  1.00  0.00     0.032 A 
HETATM   21  C4  UNL     1       1.052  53.622 -22.410  1.00  0.00     0.039 A 
HETATM   22  C5  UNL     1       0.764  53.486 -21.053  1.00  0.00     0.072 A 
HETATM   23  C6  UNL     1      -0.209  52.584 -20.590  1.00  0.00    -0.019 A 
HETATM   24  C10 UNL     1      -0.861  51.790 -21.558  1.00  0.00     0.039 A 
BRANCH  22  25
HETATM   25  O2  UNL     1       1.445  54.242 -20.139  1.00  0.00    -0.360 OA
HETATM   26  H4  UNL     1       2.110  54.778 -20.599  1.00  0.00     0.217 HD
ENDBRANCH  22  25
BRANCH  23  27
HETATM   27  C7  UNL     1      -0.525  52.415 -19.119  1.00  0.00     0.021 A 
HETATM   28  C8  UNL     1       0.564  52.016 -18.146  1.00  0.00     0.010 A 
HETATM   29  C9  UNL     1      -0.522  51.042 -18.487  1.00  0.00     0.010 A 
ENDBRANCH  23  27
ENDBRANCH  17  19
ENDBRANCH  13  15
ENDBRANCH   9  10
ENDBRANCH   1   9
BRANCH   6  30
HETATM   30  C18 UNL     1      -7.556  46.917 -32.814  1.00  0.00     0.010 A 
HETATM   31  C19 UNL     1      -6.825  47.547 -33.833  1.00  0.00     0.024 A 
HETATM   32  C20 UNL     1      -7.304  47.627 -35.148  1.00  0.00     0.017 A 
HETATM   33  C21 UNL     1      -8.541  47.072 -35.514  1.00  0.00     0.008 A 
HETATM   34  C26 UNL     1      -9.260  46.422 -34.498  1.00  0.00     0.017 A 
HETATM   35  C27 UNL     1      -8.775  46.340 -33.182  1.00  0.00     0.024 A 
BRANCH  33  36
HETATM   36  C22 UNL     1      -9.059  47.168 -36.895  1.00  0.00     0.115 A 
HETATM   37  N5  UNL     1     -10.394  47.270 -37.064  1.00  0.00    -0.352 N 
HETATM   38  C23 UNL     1     -10.838  47.345 -38.333  1.00  0.00     0.091 A 
ATOM     39  H5  UNL     1     -11.034  47.289 -36.271  1.00  0.00     0.166 HD
HETATM   40  C24 UNL     1     -10.013  47.321 -39.428  1.00  0.00     0.034 A 
HETATM   41  C25 UNL     1      -8.671  47.216 -39.155  1.00  0.00     0.091 A 
HETATM   42  N6  UNL     1      -8.170  47.136 -37.909  1.00  0.00    -0.352 N 
ATOM     43  H6  UNL     1      -7.167  47.056 -37.739  1.00  0.00     0.166 HD
ENDBRANCH  33  36
ENDBRANCH   6  30
TORSDOF 8
ENDMDL
MODEL 7
REMARK minimizedAffinity -7.90415478
REMARK CNNscore 0.290804297
REMARK CNNaffinity 5.81149435
REMARK  8 active torsions:
REMARK  status: ('A' for Active; 'I' for Inactive)
REMARK       I    between atoms: C1_2  and  N1_3 
REMARK    1  A    between atoms: C1_2  and  C11_14 
REMARK    2  A    between atoms: N1_3  and  C2_4 
REMARK    3  A    between atoms: C5_7  and  O2_8 
REMARK    4  A    between atoms: C6_9  and  C7_10 
REMARK    5  A    between atoms: N2_17  and  C14_18 
REMARK    6  A    between atoms: C14_18  and  C15_19 
REMARK       I    between atoms: C15_19  and  N3_21 
REMARK    7  A    between atoms: N4_24  and  C18_25 
REMARK    8  A    between atoms: C21_28  and  C22_29 
ROOT
HETATM    1  C15 UNL     1      -7.372  45.548 -22.284  1.00  0.00     0.248 C 
HETATM    2  O3  UNL     1      -6.761  44.478 -22.195  1.00  0.00    -0.271 OA
HETATM    3  N3  UNL     1      -8.643  45.632 -22.848  1.00  0.00    -0.348 N 
HETATM    4  C16 UNL     1      -9.234  46.892 -23.323  1.00  0.00     0.140 C 
HETATM    5  C17 UNL     1     -10.774  46.858 -23.352  1.00  0.00     0.115 C 
HETATM    6  N4  UNL     1     -11.278  45.648 -24.050  1.00  0.00    -0.280 NA
HETATM    7  C28 UNL     1     -10.717  44.400 -23.487  1.00  0.00     0.115 C 
HETATM    8  C29 UNL     1      -9.179  44.434 -23.501  1.00  0.00     0.140 C 
ENDROOT
BRANCH   1   9
HETATM    9  C14 UNL     1      -6.740  46.831 -21.721  1.00  0.00     0.374 C 
BRANCH   9  10
HETATM   10  N2  UNL     1      -5.344  46.989 -22.187  1.00  0.00     0.098 N 
HETATM   11  C13 UNL     1      -4.434  47.385 -21.099  1.00  0.00     0.274 C 
HETATM   12  C12 UNL     1      -4.551  48.901 -20.977  1.00  0.00     0.046 C 
HETATM   13  C11 UNL     1      -5.139  49.368 -22.311  1.00  0.00     0.108 C 
HETATM   14  C30 UNL     1      -5.216  48.096 -23.152  1.00  0.00     0.287 C 
BRANCH  13  15
HETATM   15  C1  UNL     1      -4.320  50.468 -22.973  1.00  0.00     0.228 C 
HETATM   16  O1  UNL     1      -4.837  51.319 -23.686  1.00  0.00    -0.273 OA
HETATM   17  N1  UNL     1      -2.976  50.381 -22.641  1.00  0.00    -0.327 N 
HETATM   18  H1  UNL     1      -2.710  49.633 -22.012  1.00  0.00     0.169 HD
BRANCH  17  19
HETATM   19  C2  UNL     1      -1.933  51.248 -23.036  1.00  0.00     0.035 A 
HETATM   20  C3  UNL     1      -1.937  51.681 -24.367  1.00  0.00     0.032 A 
HETATM   21  C4  UNL     1      -0.925  52.515 -24.845  1.00  0.00     0.039 A 
HETATM   22  C5  UNL     1       0.092  52.926 -23.985  1.00  0.00     0.072 A 
HETATM   23  C6  UNL     1       0.120  52.540 -22.634  1.00  0.00    -0.019 A 
HETATM   24  C10 UNL     1      -0.909  51.683 -22.189  1.00  0.00     0.039 A 
BRANCH  22  25
HETATM   25  O2  UNL     1       1.098  53.723 -24.460  1.00  0.00    -0.360 OA
HETATM   26  H4  UNL     1       0.969  53.867 -25.411  1.00  0.00     0.217 HD
ENDBRANCH  22  25
BRANCH  23  27
HETATM   27  C7  UNL     1       1.225  52.967 -21.690  1.00  0.00     0.021 A 
HETATM   28  C8  UNL     1       0.886  53.565 -20.341  1.00  0.00     0.010 A 
HETATM   29  C9  UNL     1       1.474  54.432 -21.414  1.00  0.00     0.010 A 
ENDBRANCH  23  27
ENDBRANCH  17  19
ENDBRANCH  13  15
ENDBRANCH   9  10
ENDBRANCH   1   9
BRANCH   6  30
HETATM   30  C18 UNL     1     -12.666  45.692 -24.280  1.00  0.00     0.010 A 
HETATM   31  C19 UNL     1     -13.438  46.685 -23.659  1.00  0.00     0.024 A 
HETATM   32  C20 UNL     1     -14.826  46.766 -23.841  1.00  0.00     0.017 A 
HETATM   33  C21 UNL     1     -15.514  45.859 -24.664  1.00  0.00     0.008 A 
HETATM   34  C26 UNL     1     -14.735  44.880 -25.303  1.00  0.00     0.017 A 
HETATM   35  C27 UNL     1     -13.344  44.803 -25.121  1.00  0.00     0.024 A 
BRANCH  33  36
HETATM   36  C22 UNL     1     -16.978  45.929 -24.846  1.00  0.00     0.115 A 
HETATM   37  N5  UNL     1     -17.565  44.995 -25.622  1.00  0.00    -0.352 N 
HETATM   38  C23 UNL     1     -18.899  45.090 -25.779  1.00  0.00     0.091 A 
ATOM     39  H5  UNL     1     -17.025  44.255 -26.069  1.00  0.00     0.166 HD
HETATM   40  C24 UNL     1     -19.663  46.070 -25.199  1.00  0.00     0.034 A 
HETATM   41  C25 UNL     1     -18.977  46.975 -24.426  1.00  0.00     0.091 A 
HETATM   42  N6  UNL     1     -17.645  46.930 -24.234  1.00  0.00    -0.352 N 
ATOM     43  H6  UNL     1     -17.164  47.619 -23.656  1.00  0.00     0.166 HD
ENDBRANCH  33  36
ENDBRANCH   6  30
TORSDOF 8
ENDMDL
MODEL 8
REMARK minimizedAffinity -8.23707771
REMARK CNNscore 0.270604163
REMARK CNNaffinity 5.59655142
REMARK  8 active torsions:
REMARK  status: ('A' for Active; 'I' for Inactive)
REMARK       I    between atoms: C1_2  and  N1_3 
REMARK    1  A    between atoms: C1_2  and  C11_14 
REMARK    2  A    between atoms: N1_3  and  C2_4 
REMARK    3  A    between atoms: C5_7  and  O2_8 
REMARK    4  A    between atoms: C6_9  and  C7_10 
REMARK    5  A    between atoms: N2_17  and  C14_18 
REMARK    6  A    between atoms: C14_18  and  C15_19 
REMARK       I    between atoms: C15_19  and  N3_21 
REMARK    7  A    between atoms: N4_24  and  C18_25 
REMARK    8  A    between atoms: C21_28  and  C22_29 
ROOT
HETATM    1  C15 UNL     1     -10.623  45.399 -29.267  1.00  0.00     0.248 C 
HETATM    2  O3  UNL     1     -10.568  44.390 -29.978  1.00  0.00    -0.271 OA
HETATM    3  N3  UNL     1      -9.494  45.935 -28.652  1.00  0.00    -0.348 N 
HETATM    4  C16 UNL     1      -9.560  46.869 -27.518  1.00  0.00     0.140 C 
HETATM    5  C17 UNL     1      -8.299  47.747 -27.391  1.00  0.00     0.115 C 
HETATM    6  N4  UNL     1      -7.061  46.929 -27.435  1.00  0.00    -0.280 NA
HETATM    7  C28 UNL     1      -7.002  46.063 -28.634  1.00  0.00     0.115 C 
HETATM    8  C29 UNL     1      -8.248  45.167 -28.724  1.00  0.00     0.140 C 
ENDROOT
BRANCH   1   9
HETATM    9  C14 UNL     1     -11.966  46.122 -29.080  1.00  0.00     0.374 C 
BRANCH   9  10
HETATM   10  N2  UNL     1     -12.970  45.233 -28.454  1.00  0.00     0.098 N 
HETATM   11  C13 UNL     1     -14.299  45.861 -28.375  1.00  0.00     0.274 C 
HETATM   12  C12 UNL     1     -14.290  46.719 -27.113  1.00  0.00     0.046 C 
HETATM   13  C11 UNL     1     -13.145  46.168 -26.260  1.00  0.00     0.108 C 
HETATM   14  C30 UNL     1     -12.644  44.957 -27.043  1.00  0.00     0.287 C 
BRANCH  13  15
HETATM   15  C1  UNL     1     -13.571  45.821 -24.839  1.00  0.00     0.228 C 
HETATM   16  O1  UNL     1     -13.341  44.725 -24.345  1.00  0.00    -0.273 OA
HETATM   17  N1  UNL     1     -14.201  46.887 -24.215  1.00  0.00    -0.327 N 
HETATM   18  H1  UNL     1     -14.289  47.741 -24.752  1.00  0.00     0.169 HD
BRANCH  17  19
HETATM   19  C2  UNL     1     -14.694  46.942 -22.893  1.00  0.00     0.035 A 
HETATM   20  C3  UNL     1     -13.792  47.321 -21.893  1.00  0.00     0.032 A 
HETATM   21  C4  UNL     1     -14.192  47.370 -20.557  1.00  0.00     0.039 A 
HETATM   22  C5  UNL     1     -15.505  47.049 -20.219  1.00  0.00     0.072 A 
HETATM   23  C6  UNL     1     -16.454  46.693 -21.192  1.00  0.00    -0.019 A 
HETATM   24  C10 UNL     1     -16.010  46.636 -22.531  1.00  0.00     0.039 A 
BRANCH  22  25
HETATM   25  O2  UNL     1     -15.891  47.074 -18.906  1.00  0.00    -0.360 OA
HETATM   26  H4  UNL     1     -15.124  47.291 -18.352  1.00  0.00     0.217 HD
ENDBRANCH  22  25
BRANCH  23  27
HETATM   27  C7  UNL     1     -17.881  46.329 -20.841  1.00  0.00     0.021 A 
HETATM   28  C8  UNL     1     -18.701  47.233 -19.945  1.00  0.00     0.010 A 
HETATM   29  C9  UNL     1     -18.240  45.900 -19.437  1.00  0.00     0.010 A 
ENDBRANCH  23  27
ENDBRANCH  17  19
ENDBRANCH  13  15
ENDBRANCH   9  10
ENDBRANCH   1   9
BRANCH   6  30
HETATM   30  C18 UNL     1      -5.909  47.670 -27.110  1.00  0.00     0.010 A 
HETATM   31  C19 UNL     1      -5.666  48.018 -25.773  1.00  0.00     0.024 A 
HETATM   32  C20 UNL     1      -4.543  48.768 -25.395  1.00  0.00     0.017 A 
HETATM   33  C21 UNL     1      -3.598  49.203 -26.338  1.00  0.00     0.008 A 
HETATM   34  C26 UNL     1      -3.831  48.833 -27.673  1.00  0.00     0.017 A 
HETATM   35  C27 UNL     1      -4.956  48.079 -28.048  1.00  0.00     0.024 A 
BRANCH  33  36
HETATM   36  C22 UNL     1      -2.422  50.007 -25.948  1.00  0.00     0.115 A 
HETATM   37  N5  UNL     1      -2.184  50.185 -24.633  1.00  0.00    -0.352 N 
HETATM   38  C23 UNL     1      -1.112  50.931 -24.307  1.00  0.00     0.091 A 
ATOM     39  H5  UNL     1      -2.788  49.775 -23.920  1.00  0.00     0.166 HD
HETATM   40  C24 UNL     1      -0.276  51.503 -25.232  1.00  0.00     0.034 A 
HETATM   41  C25 UNL     1      -0.598  51.265 -26.546  1.00  0.00     0.091 A 
HETATM   42  N6  UNL     1      -1.657  50.528 -26.930  1.00  0.00    -0.352 N 
ATOM     43  H6  UNL     1      -1.872  50.372 -27.915  1.00  0.00     0.166 HD
ENDBRANCH  33  36
ENDBRANCH   6  30
TORSDOF 8
ENDMDL
MODEL 9
REMARK minimizedAffinity -8.92775917
REMARK CNNscore 0.223490208
REMARK CNNaffinity 6.18936348
REMARK  8 active torsions:
REMARK  status: ('A' for Active; 'I' for Inactive)
REMARK       I    between atoms: C1_2  and  N1_3 
REMARK    1  A    between atoms: C1_2  and  C11_14 
REMARK    2  A    between atoms: N1_3  and  C2_4 
REMARK    3  A    between atoms: C5_7  and  O2_8 
REMARK    4  A    between atoms: C6_9  and  C7_10 
REMARK    5  A    between atoms: N2_17  and  C14_18 
REMARK    6  A    between atoms: C14_18  and  C15_19 
REMARK       I    between atoms: C15_19  and  N3_21 
REMARK    7  A    between atoms: N4_24  and  C18_25 
REMARK    8  A    between atoms: C21_28  and  C22_29 
ROOT
HETATM    1  C15 UNL     1      -0.429  51.441 -14.180  1.00  0.00     0.248 C 
HETATM    2  O3  UNL     1      -1.235  50.672 -13.648  1.00  0.00    -0.271 OA
HETATM    3  N3  UNL     1      -0.218  51.459 -15.557  1.00  0.00    -0.348 N 
HETATM    4  C16 UNL     1       0.971  52.056 -16.184  1.00  0.00     0.140 C 
HETATM    5  C17 UNL     1       0.730  52.474 -17.648  1.00  0.00     0.115 C 
HETATM    6  N4  UNL     1       0.114  51.375 -18.433  1.00  0.00    -0.280 NA
HETATM    7  C28 UNL     1      -1.123  50.859 -17.805  1.00  0.00     0.115 C 
HETATM    8  C29 UNL     1      -0.856  50.409 -16.358  1.00  0.00     0.140 C 
ENDROOT
BRANCH   1   9
HETATM    9  C14 UNL     1       0.344  52.448 -13.313  1.00  0.00     0.374 C 
BRANCH   9  10
HETATM   10  N2  UNL     1       0.127  52.189 -11.872  1.00  0.00     0.098 N 
HETATM   11  C13 UNL     1      -0.834  53.131 -11.275  1.00  0.00     0.274 C 
HETATM   12  C12 UNL     1      -0.039  54.383 -10.918  1.00  0.00     0.046 C 
HETATM   13  C11 UNL     1       1.423  53.930 -10.867  1.00  0.00     0.108 C 
HETATM   14  C30 UNL     1       1.355  52.421 -11.090  1.00  0.00     0.287 C 
BRANCH  13  15
HETATM   15  C1  UNL     1       2.120  54.308  -9.566  1.00  0.00     0.228 C 
HETATM   16  O1  UNL     1       2.717  53.480  -8.890  1.00  0.00    -0.273 OA
HETATM   17  N1  UNL     1       2.005  55.663  -9.294  1.00  0.00    -0.327 N 
HETATM   18  H1  UNL     1       1.502  56.222  -9.971  1.00  0.00     0.169 HD
BRANCH  17  19
HETATM   19  C2  UNL     1       2.553  56.371  -8.202  1.00  0.00     0.035 A 
HETATM   20  C3  UNL     1       1.654  56.897  -7.268  1.00  0.00     0.032 A 
HETATM   21  C4  UNL     1       2.113  57.635  -6.177  1.00  0.00     0.039 A 
HETATM   22  C5  UNL     1       3.482  57.841  -6.012  1.00  0.00     0.072 A 
HETATM   23  C6  UNL     1       4.424  57.307  -6.907  1.00  0.00    -0.019 A 
HETATM   24  C10 UNL     1       3.923  56.580  -8.009  1.00  0.00     0.039 A 
BRANCH  22  25
HETATM   25  O2  UNL     1       3.931  58.586  -4.955  1.00  0.00    -0.360 OA
HETATM   26  H4  UNL     1       3.170  58.922  -4.456  1.00  0.00     0.217 HD
ENDBRANCH  22  25
BRANCH  23  27
HETATM   27  C7  UNL     1       5.913  57.532  -6.750  1.00  0.00     0.021 A 
HETATM   28  C8  UNL     1       6.771  56.498  -6.053  1.00  0.00     0.010 A 
HETATM   29  C9  UNL     1       6.506  57.815  -5.389  1.00  0.00     0.010 A 
ENDBRANCH  23  27
ENDBRANCH  17  19
ENDBRANCH  13  15
ENDBRANCH   9  10
ENDBRANCH   1   9
BRANCH   6  30
HETATM   30  C18 UNL     1       0.077  51.648 -19.814  1.00  0.00     0.010 A 
HETATM   31  C19 UNL     1      -0.600  50.770 -20.674  1.00  0.00     0.024 A 
HETATM   32  C20 UNL     1      -0.654  50.985 -22.058  1.00  0.00     0.017 A 
HETATM   33  C21 UNL     1      -0.040  52.099 -22.654  1.00  0.00     0.008 A 
HETATM   34  C26 UNL     1       0.617  52.988 -21.788  1.00  0.00     0.017 A 
HETATM   35  C27 UNL     1       0.668  52.771 -20.401  1.00  0.00     0.024 A 
BRANCH  33  36
HETATM   36  C22 UNL     1      -0.080  52.322 -24.114  1.00  0.00     0.115 A 
HETATM   37  N5  UNL     1      -0.449  51.292 -24.902  1.00  0.00    -0.352 N 
HETATM   38  C23 UNL     1      -0.466  51.521 -26.228  1.00  0.00     0.091 A 
ATOM     39  H5  UNL     1      -0.702  50.384 -24.512  1.00  0.00     0.166 HD
HETATM   40  C24 UNL     1      -0.132  52.725 -26.795  1.00  0.00     0.034 A 
HETATM   41  C25 UNL     1       0.229  53.713 -25.912  1.00  0.00     0.091 A 
HETATM   42  N6  UNL     1       0.266  53.541 -24.578  1.00  0.00    -0.352 N 
ATOM     43  H6  UNL     1       0.541  54.295 -23.948  1.00  0.00     0.166 HD
ENDBRANCH  33  36
ENDBRANCH   6  30
TORSDOF 8
ENDMDL
