MODEL 1
REMARK minimizedAffinity -9.30042744
REMARK  4 active torsions:
REMARK  status: ('A' for Active; 'I' for Inactive)
REMARK    1  A    between atoms: C4_4  and  C5_5 
REMARK    2  A    between atoms: C8_11  and  N3_12 
REMARK       I    between atoms: N3_12  and  C9_13 
REMARK       I    between atoms: C9_13  and  N4_15 
REMARK    3  A    between atoms: N4_15  and  C10_16 
REMARK    4  A    between atoms: C10_16  and  C11_17 
ROOT
HETATM    1  C5  UNL     1       0.491  53.481 -24.449  1.00  0.00     0.072 A 
HETATM    2  N1  UNL     1       0.957  54.716 -24.706  1.00  0.00    -0.299 N 
ATOM      3  H1  UNL     1       0.959  55.209 -25.598  1.00  0.00     0.187 HD
HETATM    4  N2  UNL     1       1.418  55.153 -23.525  1.00  0.00    -0.299 N 
HETATM    5  C6  UNL     1       1.249  54.272 -22.496  1.00  0.00     0.065 A 
HETATM    6  C7  UNL     1       1.570  54.341 -21.141  1.00  0.00     0.080 A 
HETATM    7  C8  UNL     1       1.231  53.221 -20.383  1.00  0.00     0.111 A 
HETATM    8  N5  UNL     1       0.609  52.147 -20.905  1.00  0.00    -0.351 N 
ATOM      9  H5  UNL     1       0.366  51.362 -20.300  1.00  0.00     0.166 HD
HETATM   10  C17 UNL     1       0.303  52.098 -22.226  1.00  0.00     0.105 A 
HETATM   11  C18 UNL     1       0.631  53.164 -23.063  1.00  0.00     0.036 A 
HETATM   12  H5  UNL     1       1.838  56.075 -23.491  1.00  0.00     0.187 HD
ENDROOT
BRANCH   7  13
HETATM   13  N3  UNL     1       1.535  53.269 -19.016  1.00  0.00    -0.295 N 
HETATM   14  C9  UNL     1       1.021  52.431 -18.053  1.00  0.00     0.322 C 
HETATM   15  O1  UNL     1       0.326  51.439 -18.224  1.00  0.00    -0.247 OA
HETATM   16  N4  UNL     1       1.431  52.840 -16.795  1.00  0.00    -0.339 N 
HETATM   17  H8  UNL     1       1.567  53.833 -16.688  1.00  0.00     0.164 HD
HETATM   18  H7  UNL     1       2.301  53.853 -18.730  1.00  0.00     0.172 HD
BRANCH  16  19
HETATM   19  C10 UNL     1       0.954  52.151 -15.614  1.00  0.00     0.162 C 
BRANCH  19  20
HETATM   20  C11 UNL     1       2.068  51.380 -14.951  1.00  0.00    -0.039 A 
HETATM   21  C12 UNL     1       3.404  51.768 -15.132  1.00  0.00     0.009 A 
HETATM   22  C13 UNL     1       4.442  51.045 -14.541  1.00  0.00     0.002 A 
HETATM   23  C14 UNL     1       4.156  49.921 -13.766  1.00  0.00     0.024 A 
HETATM   24  C15 UNL     1       2.832  49.525 -13.588  1.00  0.00     0.034 A 
HETATM   25 CL1  UNL     1       2.478  48.132 -12.641  1.00  0.00    -0.084 Cl
HETATM   26  C16 UNL     1       1.790  50.243 -14.177  1.00  0.00     0.032 A 
ENDBRANCH  19  20
ENDBRANCH  16  19
ENDBRANCH   7  13
BRANCH   1  27
HETATM   27  C4  UNL     1      -0.077  52.663 -25.521  1.00  0.00    -0.004 A 
HETATM   28  C3  UNL     1      -0.910  51.584 -25.211  1.00  0.00     0.038 A 
HETATM   29  C2  UNL     1      -1.437  50.818 -26.244  1.00  0.00     0.005 A 
HETATM   30  C1  UNL     1      -2.330  49.653 -25.936  1.00  0.00     0.068 C 
HETATM   31  N6  UNL     1      -1.180  51.077 -27.546  1.00  0.00    -0.369 N 
HETATM   32  C20 UNL     1      -0.388  52.134 -27.825  1.00  0.00     0.089 A 
ATOM     33  H6  UNL     1      -1.568  50.496 -28.289  1.00  0.00     0.165 HD
HETATM   34  C19 UNL     1       0.180  52.948 -26.862  1.00  0.00     0.031 A 
ENDBRANCH   1  27
TORSDOF 4
ENDMDL
MODEL 2
REMARK minimizedAffinity -9.19439697
REMARK  4 active torsions:
REMARK  status: ('A' for Active; 'I' for Inactive)
REMARK    1  A    between atoms: C4_4  and  C5_5 
REMARK    2  A    between atoms: C8_11  and  N3_12 
REMARK       I    between atoms: N3_12  and  C9_13 
REMARK       I    between atoms: C9_13  and  N4_15 
REMARK    3  A    between atoms: N4_15  and  C10_16 
REMARK    4  A    between atoms: C10_16  and  C11_17 
ROOT
HETATM    1  C5  UNL     1       0.753  53.420 -23.849  1.00  0.00     0.072 A 
HETATM    2  N1  UNL     1       1.337  54.621 -24.001  1.00  0.00    -0.299 N 
ATOM      3  H1  UNL     1       1.481  55.139 -24.868  1.00  0.00     0.187 HD
HETATM    4  N2  UNL     1       1.686  54.985 -22.759  1.00  0.00    -0.299 N 
HETATM    5  C6  UNL     1       1.330  54.089 -21.792  1.00  0.00     0.065 A 
HETATM    6  C7  UNL     1       1.493  54.092 -20.406  1.00  0.00     0.080 A 
HETATM    7  C8  UNL     1       0.984  52.981 -19.738  1.00  0.00     0.111 A 
HETATM    8  N5  UNL     1       0.350  51.975 -20.369  1.00  0.00    -0.351 N 
ATOM      9  H5  UNL     1      -0.020  51.193 -19.828  1.00  0.00     0.166 HD
HETATM   10  C17 UNL     1       0.200  51.990 -21.718  1.00  0.00     0.105 A 
HETATM   11  C18 UNL     1       0.704  53.051 -22.469  1.00  0.00     0.036 A 
HETATM   12  H5  UNL     1       2.166  55.870 -22.640  1.00  0.00     0.187 HD
ENDROOT
BRANCH   7  13
HETATM   13  N3  UNL     1       1.126  52.964 -18.344  1.00  0.00    -0.295 N 
HETATM   14  C9  UNL     1       0.734  51.940 -17.513  1.00  0.00     0.322 C 
HETATM   15  O1  UNL     1       0.320  50.835 -17.837  1.00  0.00    -0.247 OA
HETATM   16  N4  UNL     1       0.903  52.307 -16.188  1.00  0.00    -0.339 N 
HETATM   17  H8  UNL     1       0.783  53.290 -15.995  1.00  0.00     0.164 HD
HETATM   18  H7  UNL     1       1.695  53.679 -17.926  1.00  0.00     0.172 HD
BRANCH  16  19
HETATM   19  C10 UNL     1       0.488  51.415 -15.126  1.00  0.00     0.162 C 
BRANCH  19  20
HETATM   20  C11 UNL     1       0.916  51.941 -13.779  1.00  0.00    -0.039 A 
HETATM   21  C12 UNL     1       2.192  51.644 -13.275  1.00  0.00     0.009 A 
HETATM   22  C13 UNL     1       2.587  52.106 -12.018  1.00  0.00     0.002 A 
HETATM   23  C14 UNL     1       1.709  52.867 -11.248  1.00  0.00     0.024 A 
HETATM   24  C15 UNL     1       0.438  53.160 -11.738  1.00  0.00     0.034 A 
HETATM   25 CL1  UNL     1      -0.652  54.090 -10.784  1.00  0.00    -0.084 Cl
HETATM   26  C16 UNL     1       0.037  52.699 -12.993  1.00  0.00     0.032 A 
ENDBRANCH  19  20
ENDBRANCH  16  19
ENDBRANCH   7  13
BRANCH   1  27
HETATM   27  C4  UNL     1       0.257  52.681 -25.010  1.00  0.00    -0.004 A 
HETATM   28  C3  UNL     1      -1.118  52.579 -25.240  1.00  0.00     0.038 A 
HETATM   29  C2  UNL     1      -1.569  51.871 -26.348  1.00  0.00     0.005 A 
HETATM   30  C1  UNL     1      -3.039  51.745 -26.613  1.00  0.00     0.068 C 
HETATM   31  N6  UNL     1      -0.726  51.275 -27.222  1.00  0.00    -0.369 N 
HETATM   32  C20 UNL     1       0.598  51.400 -26.993  1.00  0.00     0.089 A 
ATOM     33  H6  UNL     1      -1.077  50.751 -28.023  1.00  0.00     0.165 HD
HETATM   34  C19 UNL     1       1.134  52.084 -25.916  1.00  0.00     0.031 A 
ENDBRANCH   1  27
TORSDOF 4
ENDMDL
MODEL 3
REMARK minimizedAffinity -9.14436722
REMARK  4 active torsions:
REMARK  status: ('A' for Active; 'I' for Inactive)
REMARK    1  A    between atoms: C4_4  and  C5_5 
REMARK    2  A    between atoms: C8_11  and  N3_12 
REMARK       I    between atoms: N3_12  and  C9_13 
REMARK       I    between atoms: C9_13  and  N4_15 
REMARK    3  A    between atoms: N4_15  and  C10_16 
REMARK    4  A    between atoms: C10_16  and  C11_17 
ROOT
HETATM    1  C5  UNL     1       0.667  53.552 -23.711  1.00  0.00     0.072 A 
HETATM    2  N1  UNL     1       1.399  54.676 -23.803  1.00  0.00    -0.299 N 
ATOM      3  H1  UNL     1       1.616  55.212 -24.643  1.00  0.00     0.187 HD
HETATM    4  N2  UNL     1       1.780  54.932 -22.544  1.00  0.00    -0.299 N 
HETATM    5  C6  UNL     1       1.305  54.044 -21.622  1.00  0.00     0.065 A 
HETATM    6  C7  UNL     1       1.454  53.960 -20.238  1.00  0.00     0.080 A 
HETATM    7  C8  UNL     1       0.802  52.892 -19.625  1.00  0.00     0.111 A 
HETATM    8  N5  UNL     1       0.052  52.006 -20.307  1.00  0.00    -0.351 N 
ATOM      9  H5  UNL     1      -0.420  51.253 -19.806  1.00  0.00     0.166 HD
HETATM   10  C17 UNL     1      -0.083  52.104 -21.654  1.00  0.00     0.105 A 
HETATM   11  C18 UNL     1       0.558  53.128 -22.351  1.00  0.00     0.036 A 
HETATM   12  H5  UNL     1       2.368  55.742 -22.381  1.00  0.00     0.187 HD
ENDROOT
BRANCH   7  13
HETATM   13  N3  UNL     1       0.928  52.791 -18.234  1.00  0.00    -0.295 N 
HETATM   14  C9  UNL     1       0.546  51.709 -17.473  1.00  0.00     0.322 C 
HETATM   15  O1  UNL     1       0.159  50.620 -17.871  1.00  0.00    -0.247 OA
HETATM   16  N4  UNL     1       0.692  51.996 -16.126  1.00  0.00    -0.339 N 
HETATM   17  H8  UNL     1       0.551  52.962 -15.874  1.00  0.00     0.164 HD
HETATM   18  H7  UNL     1       1.478  53.489 -17.764  1.00  0.00     0.172 HD
BRANCH  16  19
HETATM   19  C10 UNL     1       0.283  51.031 -15.127  1.00  0.00     0.162 C 
BRANCH  19  20
HETATM   20  C11 UNL     1      -0.195  51.719 -13.873  1.00  0.00    -0.039 A 
HETATM   21  C12 UNL     1       0.723  52.342 -13.013  1.00  0.00     0.009 A 
HETATM   22  C13 UNL     1       0.292  52.961 -11.838  1.00  0.00     0.002 A 
HETATM   23  C14 UNL     1      -1.062  52.959 -11.506  1.00  0.00     0.024 A 
HETATM   24  C15 UNL     1      -1.979  52.336 -12.350  1.00  0.00     0.034 A 
HETATM   25 CL1  UNL     1      -3.650  52.323 -11.937  1.00  0.00    -0.084 Cl
HETATM   26  C16 UNL     1      -1.554  51.715 -13.526  1.00  0.00     0.032 A 
ENDBRANCH  19  20
ENDBRANCH  16  19
ENDBRANCH   7  13
BRANCH   1  27
HETATM   27  C4  UNL     1       0.092  52.939 -24.909  1.00  0.00    -0.004 A 
HETATM   28  C3  UNL     1       0.919  52.582 -25.978  1.00  0.00     0.038 A 
HETATM   29  C2  UNL     1       0.352  52.002 -27.107  1.00  0.00     0.005 A 
HETATM   30  C1  UNL     1       1.218  51.614 -28.268  1.00  0.00     0.068 C 
HETATM   31  N6  UNL     1      -0.975  51.764 -27.215  1.00  0.00    -0.369 N 
HETATM   32  C20 UNL     1      -1.753  52.099 -26.164  1.00  0.00     0.089 A 
ATOM     33  H6  UNL     1      -1.372  51.347 -28.056  1.00  0.00     0.165 HD
HETATM   34  C19 UNL     1      -1.276  52.681 -25.003  1.00  0.00     0.031 A 
ENDBRANCH   1  27
TORSDOF 4
ENDMDL
MODEL 4
REMARK minimizedAffinity -9.09803295
REMARK  4 active torsions:
REMARK  status: ('A' for Active; 'I' for Inactive)
REMARK    1  A    between atoms: C4_4  and  C5_5 
REMARK    2  A    between atoms: C8_11  and  N3_12 
REMARK       I    between atoms: N3_12  and  C9_13 
REMARK       I    between atoms: C9_13  and  N4_15 
REMARK    3  A    between atoms: N4_15  and  C10_16 
REMARK    4  A    between atoms: C10_16  and  C11_17 
ROOT
HETATM    1  C5  UNL     1       0.729  53.346 -23.611  1.00  0.00     0.072 A 
HETATM    2  N1  UNL     1       1.360  54.524 -23.755  1.00  0.00    -0.299 N 
ATOM      3  H1  UNL     1       1.540  55.034 -24.620  1.00  0.00     0.187 HD
HETATM    4  N2  UNL     1       1.701  54.878 -22.508  1.00  0.00    -0.299 N 
HETATM    5  C6  UNL     1       1.294  53.999 -21.545  1.00  0.00     0.065 A 
HETATM    6  C7  UNL     1       1.432  54.000 -20.157  1.00  0.00     0.080 A 
HETATM    7  C8  UNL     1       0.870  52.910 -19.495  1.00  0.00     0.111 A 
HETATM    8  N5  UNL     1       0.210  51.927 -20.135  1.00  0.00    -0.351 N 
ATOM      9  H5  UNL     1      -0.200  51.162 -19.600  1.00  0.00     0.166 HD
HETATM   10  C17 UNL     1       0.084  51.944 -21.487  1.00  0.00     0.105 A 
HETATM   11  C18 UNL     1       0.641  52.984 -22.231  1.00  0.00     0.036 A 
HETATM   12  H5  UNL     1       2.212  55.744 -22.382  1.00  0.00     0.187 HD
ENDROOT
BRANCH   7  13
HETATM   13  N3  UNL     1       0.986  52.892 -18.099  1.00  0.00    -0.295 N 
HETATM   14  C9  UNL     1       0.799  51.791 -17.295  1.00  0.00     0.322 C 
HETATM   15  O1  UNL     1       0.628  50.632 -17.649  1.00  0.00    -0.247 OA
HETATM   16  N4  UNL     1       0.863  52.155 -15.960  1.00  0.00    -0.339 N 
HETATM   17  H8  UNL     1       0.539  53.087 -15.753  1.00  0.00     0.164 HD
HETATM   18  H7  UNL     1       1.388  53.699 -17.655  1.00  0.00     0.172 HD
BRANCH  16  19
HETATM   19  C10 UNL     1       0.622  51.173 -14.925  1.00  0.00     0.162 C 
BRANCH  19  20
HETATM   20  C11 UNL     1      -0.682  51.442 -14.217  1.00  0.00    -0.039 A 
HETATM   21  C12 UNL     1      -1.894  51.001 -14.772  1.00  0.00     0.009 A 
HETATM   22  C13 UNL     1      -3.107  51.266 -14.136  1.00  0.00     0.002 A 
HETATM   23  C14 UNL     1      -3.125  51.980 -12.938  1.00  0.00     0.024 A 
HETATM   24  C15 UNL     1      -1.928  52.428 -12.385  1.00  0.00     0.034 A 
HETATM   25 CL1  UNL     1      -1.948  53.319 -10.912  1.00  0.00    -0.084 Cl
HETATM   26  C16 UNL     1      -0.711  52.167 -13.017  1.00  0.00     0.032 A 
ENDBRANCH  19  20
ENDBRANCH  16  19
ENDBRANCH   7  13
BRANCH   1  27
HETATM   27  C4  UNL     1       0.226  52.623 -24.779  1.00  0.00    -0.004 A 
HETATM   28  C3  UNL     1      -1.144  52.605 -25.054  1.00  0.00     0.038 A 
HETATM   29  C2  UNL     1      -1.602  51.910 -26.168  1.00  0.00     0.005 A 
HETATM   30  C1  UNL     1      -3.067  51.873 -26.482  1.00  0.00     0.068 C 
HETATM   31  N6  UNL     1      -0.770  51.250 -27.006  1.00  0.00    -0.369 N 
HETATM   32  C20 UNL     1       0.551  51.295 -26.733  1.00  0.00     0.089 A 
ATOM     33  H6  UNL     1      -1.127  50.738 -27.812  1.00  0.00     0.165 HD
HETATM   34  C19 UNL     1       1.093  51.960 -25.647  1.00  0.00     0.031 A 
ENDBRANCH   1  27
TORSDOF 4
ENDMDL
MODEL 5
REMARK minimizedAffinity -9.00729275
REMARK  4 active torsions:
REMARK  status: ('A' for Active; 'I' for Inactive)
REMARK    1  A    between atoms: C4_4  and  C5_5 
REMARK    2  A    between atoms: C8_11  and  N3_12 
REMARK       I    between atoms: N3_12  and  C9_13 
REMARK       I    between atoms: C9_13  and  N4_15 
REMARK    3  A    between atoms: N4_15  and  C10_16 
REMARK    4  A    between atoms: C10_16  and  C11_17 
ROOT
HETATM    1  C5  UNL     1       0.908  53.526 -23.728  1.00  0.00     0.072 A 
HETATM    2  N1  UNL     1       1.519  54.721 -23.660  1.00  0.00    -0.299 N 
ATOM      3  H1  UNL     1       1.769  55.339 -24.431  1.00  0.00     0.187 HD
HETATM    4  N2  UNL     1       1.727  54.918 -22.350  1.00  0.00    -0.299 N 
HETATM    5  C6  UNL     1       1.251  53.918 -21.551  1.00  0.00     0.065 A 
HETATM    6  C7  UNL     1       1.251  53.744 -20.167  1.00  0.00     0.080 A 
HETATM    7  C8  UNL     1       0.656  52.571 -19.707  1.00  0.00     0.111 A 
HETATM    8  N5  UNL     1       0.088  51.669 -20.528  1.00  0.00    -0.351 N 
ATOM      9  H5  UNL     1      -0.352  50.836 -20.137  1.00  0.00     0.166 HD
HETATM   10  C17 UNL     1       0.095  51.856 -21.873  1.00  0.00     0.105 A 
HETATM   11  C18 UNL     1       0.695  52.990 -22.421  1.00  0.00     0.036 A 
HETATM   12  H5  UNL     1       2.200  55.768 -22.066  1.00  0.00     0.187 HD
ENDROOT
BRANCH   7  13
HETATM   13  N3  UNL     1       0.635  52.377 -18.319  1.00  0.00    -0.295 N 
HETATM   14  C9  UNL     1       0.192  51.243 -17.678  1.00  0.00     0.322 C 
HETATM   15  O1  UNL     1      -0.134  50.180 -18.186  1.00  0.00    -0.247 OA
HETATM   16  N4  UNL     1       0.190  51.439 -16.306  1.00  0.00    -0.339 N 
HETATM   17  H8  UNL     1       0.007  52.385 -16.007  1.00  0.00     0.164 HD
HETATM   18  H7  UNL     1       1.121  53.046 -17.749  1.00  0.00     0.172 HD
BRANCH  16  19
HETATM   19  C10 UNL     1      -0.307  50.405 -15.423  1.00  0.00     0.162 C 
BRANCH  19  20
HETATM   20  C11 UNL     1       0.815  49.521 -14.940  1.00  0.00    -0.039 A 
HETATM   21  C12 UNL     1       0.770  48.135 -15.159  1.00  0.00     0.009 A 
HETATM   22  C13 UNL     1       1.792  47.306 -14.694  1.00  0.00     0.002 A 
HETATM   23  C14 UNL     1       2.870  47.853 -13.999  1.00  0.00     0.024 A 
HETATM   24  C15 UNL     1       2.919  49.226 -13.771  1.00  0.00     0.034 A 
HETATM   25 CL1  UNL     1       4.244  49.902 -12.905  1.00  0.00    -0.084 Cl
HETATM   26  C16 UNL     1       1.899  50.060 -14.233  1.00  0.00     0.032 A 
ENDBRANCH  19  20
ENDBRANCH  16  19
ENDBRANCH   7  13
BRANCH   1  27
HETATM   27  C4  UNL     1       0.542  52.951 -25.023  1.00  0.00    -0.004 A 
HETATM   28  C3  UNL     1      -0.016  53.762 -26.016  1.00  0.00     0.038 A 
HETATM   29  C2  UNL     1      -0.359  53.196 -27.238  1.00  0.00     0.005 A 
HETATM   30  C1  UNL     1      -0.962  54.044 -28.318  1.00  0.00     0.068 C 
HETATM   31  N6  UNL     1      -0.172  51.884 -27.510  1.00  0.00    -0.369 N 
HETATM   32  C20 UNL     1       0.384  51.122 -26.545  1.00  0.00     0.089 A 
ATOM     33  H6  UNL     1      -0.440  51.486 -28.410  1.00  0.00     0.165 HD
HETATM   34  C19 UNL     1       0.755  51.601 -25.301  1.00  0.00     0.031 A 
ENDBRANCH   1  27
TORSDOF 4
ENDMDL
MODEL 6
REMARK minimizedAffinity -8.98616219
REMARK  4 active torsions:
REMARK  status: ('A' for Active; 'I' for Inactive)
REMARK    1  A    between atoms: C4_4  and  C5_5 
REMARK    2  A    between atoms: C8_11  and  N3_12 
REMARK       I    between atoms: N3_12  and  C9_13 
REMARK       I    between atoms: C9_13  and  N4_15 
REMARK    3  A    between atoms: N4_15  and  C10_16 
REMARK    4  A    between atoms: C10_16  and  C11_17 
ROOT
HETATM    1  C5  UNL     1       0.096  52.084 -23.576  1.00  0.00     0.072 A 
HETATM    2  N1  UNL     1       0.867  52.498 -24.597  1.00  0.00    -0.299 N 
ATOM      3  H1  UNL     1       1.671  53.124 -24.557  1.00  0.00     0.187 HD
HETATM    4  N2  UNL     1       0.341  51.905 -25.678  1.00  0.00    -0.299 N 
HETATM    5  C6  UNL     1      -0.724  51.093 -25.409  1.00  0.00     0.065 A 
HETATM    6  C7  UNL     1      -1.530  50.303 -26.228  1.00  0.00     0.080 A 
HETATM    7  C8  UNL     1      -2.539  49.595 -25.578  1.00  0.00     0.111 A 
HETATM    8  N5  UNL     1      -2.721  49.640 -24.245  1.00  0.00    -0.351 N 
ATOM      9  H5  UNL     1      -3.464  49.086 -23.818  1.00  0.00     0.166 HD
HETATM   10  C17 UNL     1      -1.926  50.413 -23.463  1.00  0.00     0.105 A 
HETATM   11  C18 UNL     1      -0.907  51.176 -24.035  1.00  0.00     0.036 A 
HETATM   12  H5  UNL     1       0.765  52.095 -26.578  1.00  0.00     0.187 HD
ENDROOT
BRANCH   7  13
HETATM   13  N3  UNL     1      -3.357  48.786 -26.377  1.00  0.00    -0.295 N 
HETATM   14  C9  UNL     1      -3.792  49.093 -27.646  1.00  0.00     0.322 C 
HETATM   15  O1  UNL     1      -3.451  50.041 -28.340  1.00  0.00    -0.247 OA
HETATM   16  N4  UNL     1      -4.686  48.134 -28.092  1.00  0.00    -0.339 N 
HETATM   17  H8  UNL     1      -5.248  47.703 -27.374  1.00  0.00     0.164 HD
HETATM   18  H7  UNL     1      -3.516  47.841 -26.073  1.00  0.00     0.172 HD
BRANCH  16  19
HETATM   19  C10 UNL     1      -5.335  48.284 -29.377  1.00  0.00     0.162 C 
BRANCH  19  20
HETATM   20  C11 UNL     1      -5.840  46.957 -29.887  1.00  0.00    -0.039 A 
HETATM   21  C12 UNL     1      -5.479  46.507 -31.166  1.00  0.00     0.009 A 
HETATM   22  C13 UNL     1      -5.961  45.291 -31.655  1.00  0.00     0.002 A 
HETATM   23  C14 UNL     1      -6.814  44.514 -30.873  1.00  0.00     0.024 A 
HETATM   24  C15 UNL     1      -7.184  44.959 -29.606  1.00  0.00     0.034 A 
HETATM   25 CL1  UNL     1      -8.245  44.006 -28.642  1.00  0.00    -0.084 Cl
HETATM   26  C16 UNL     1      -6.706  46.173 -29.111  1.00  0.00     0.032 A 
ENDBRANCH  19  20
ENDBRANCH  16  19
ENDBRANCH   7  13
BRANCH   1  27
HETATM   27  C4  UNL     1       0.351  52.553 -22.214  1.00  0.00    -0.004 A 
HETATM   28  C3  UNL     1      -0.105  51.809 -21.122  1.00  0.00     0.038 A 
HETATM   29  C2  UNL     1       0.146  52.273 -19.835  1.00  0.00     0.005 A 
HETATM   30  C1  UNL     1      -0.336  51.495 -18.648  1.00  0.00     0.068 C 
HETATM   31  N6  UNL     1       0.820  53.421 -19.595  1.00  0.00    -0.369 N 
HETATM   32  C20 UNL     1       1.267  54.115 -20.662  1.00  0.00     0.089 A 
ATOM     33  H6  UNL     1       0.984  53.749 -18.643  1.00  0.00     0.165 HD
HETATM   34  C19 UNL     1       1.062  53.728 -21.975  1.00  0.00     0.031 A 
ENDBRANCH   1  27
TORSDOF 4
ENDMDL
MODEL 7
REMARK minimizedAffinity -8.96451187
REMARK  4 active torsions:
REMARK  status: ('A' for Active; 'I' for Inactive)
REMARK    1  A    between atoms: C4_4  and  C5_5 
REMARK    2  A    between atoms: C8_11  and  N3_12 
REMARK       I    between atoms: N3_12  and  C9_13 
REMARK       I    between atoms: C9_13  and  N4_15 
REMARK    3  A    between atoms: N4_15  and  C10_16 
REMARK    4  A    between atoms: C10_16  and  C11_17 
ROOT
HETATM    1  C5  UNL     1       0.288  52.797 -23.924  1.00  0.00     0.072 A 
HETATM    2  N1  UNL     1       1.147  53.324 -24.813  1.00  0.00    -0.299 N 
ATOM      3  H1  UNL     1       2.019  53.818 -24.621  1.00  0.00     0.187 HD
HETATM    4  N2  UNL     1       0.602  53.055 -26.007  1.00  0.00    -0.299 N 
HETATM    5  C6  UNL     1      -0.563  52.346 -25.945  1.00  0.00     0.065 A 
HETATM    6  C7  UNL     1      -1.421  51.864 -26.933  1.00  0.00     0.080 A 
HETATM    7  C8  UNL     1      -2.536  51.166 -26.475  1.00  0.00     0.111 A 
HETATM    8  N5  UNL     1      -2.770  50.939 -25.169  1.00  0.00    -0.351 N 
ATOM      9  H5  UNL     1      -3.593  50.404 -24.889  1.00  0.00     0.166 HD
HETATM   10  C17 UNL     1      -1.923  51.414 -24.221  1.00  0.00     0.105 A 
HETATM   11  C18 UNL     1      -0.796  52.148 -24.590  1.00  0.00     0.036 A 
HETATM   12  H5  UNL     1       1.086  53.383 -26.836  1.00  0.00     0.187 HD
ENDROOT
BRANCH   7  13
HETATM   13  N3  UNL     1      -3.410  50.663 -27.448  1.00  0.00    -0.295 N 
HETATM   14  C9  UNL     1      -3.851  49.363 -27.531  1.00  0.00     0.322 C 
HETATM   15  O1  UNL     1      -3.672  48.463 -26.723  1.00  0.00    -0.247 OA
HETATM   16  N4  UNL     1      -4.596  49.182 -28.686  1.00  0.00    -0.339 N 
HETATM   17  H8  UNL     1      -4.320  49.753 -29.469  1.00  0.00     0.164 HD
HETATM   18  H7  UNL     1      -3.877  51.327 -28.041  1.00  0.00     0.172 HD
BRANCH  16  19
HETATM   19  C10 UNL     1      -5.106  47.871 -29.026  1.00  0.00     0.162 C 
BRANCH  19  20
HETATM   20  C11 UNL     1      -6.122  47.957 -30.138  1.00  0.00    -0.039 A 
HETATM   21  C12 UNL     1      -7.485  48.114 -29.842  1.00  0.00     0.009 A 
HETATM   22  C13 UNL     1      -8.434  48.171 -30.864  1.00  0.00     0.002 A 
HETATM   23  C14 UNL     1      -8.031  48.065 -32.195  1.00  0.00     0.024 A 
HETATM   24  C15 UNL     1      -6.681  47.901 -32.497  1.00  0.00     0.034 A 
HETATM   25 CL1  UNL     1      -6.183  47.760 -34.138  1.00  0.00    -0.084 Cl
HETATM   26  C16 UNL     1      -5.728  47.843 -31.479  1.00  0.00     0.032 A 
ENDBRANCH  19  20
ENDBRANCH  16  19
ENDBRANCH   7  13
BRANCH   1  27
HETATM   27  C4  UNL     1       0.537  52.918 -22.487  1.00  0.00    -0.004 A 
HETATM   28  C3  UNL     1       0.056  51.942 -21.609  1.00  0.00     0.038 A 
HETATM   29  C2  UNL     1       0.301  52.077 -20.247  1.00  0.00     0.005 A 
HETATM   30  C1  UNL     1      -0.208  51.046 -19.285  1.00  0.00     0.068 C 
HETATM   31  N6  UNL     1       0.994  53.119 -19.733  1.00  0.00    -0.369 N 
HETATM   32  C20 UNL     1       1.465  54.040 -20.599  1.00  0.00     0.089 A 
ATOM     33  H6  UNL     1       1.154  53.205 -18.729  1.00  0.00     0.165 HD
HETATM   34  C19 UNL     1       1.267  53.986 -21.967  1.00  0.00     0.031 A 
ENDBRANCH   1  27
TORSDOF 4
ENDMDL
MODEL 8
REMARK minimizedAffinity -8.80975056
REMARK  4 active torsions:
REMARK  status: ('A' for Active; 'I' for Inactive)
REMARK    1  A    between atoms: C4_4  and  C5_5 
REMARK    2  A    between atoms: C8_11  and  N3_12 
REMARK       I    between atoms: N3_12  and  C9_13 
REMARK       I    between atoms: C9_13  and  N4_15 
REMARK    3  A    between atoms: N4_15  and  C10_16 
REMARK    4  A    between atoms: C10_16  and  C11_17 
ROOT
HETATM    1  C5  UNL     1      -1.027  50.856 -24.109  1.00  0.00     0.072 A 
HETATM    2  N1  UNL     1      -0.243  51.230 -25.134  1.00  0.00    -0.299 N 
ATOM      3  H1  UNL     1       0.638  51.742 -25.091  1.00  0.00     0.187 HD
HETATM    4  N2  UNL     1      -0.878  50.779 -26.225  1.00  0.00    -0.299 N 
HETATM    5  C6  UNL     1      -2.032  50.098 -25.961  1.00  0.00     0.065 A 
HETATM    6  C7  UNL     1      -2.961  49.471 -26.790  1.00  0.00     0.080 A 
HETATM    7  C8  UNL     1      -4.033  48.862 -26.142  1.00  0.00     0.111 A 
HETATM    8  N5  UNL     1      -4.163  48.845 -24.802  1.00  0.00    -0.351 N 
ATOM      9  H5  UNL     1      -4.959  48.367 -24.378  1.00  0.00     0.166 HD
HETATM   10  C17 UNL     1      -3.248  49.459 -24.010  1.00  0.00     0.105 A 
HETATM   11  C18 UNL     1      -2.157  50.117 -24.578  1.00  0.00     0.036 A 
HETATM   12  H5  UNL     1      -0.463  50.969 -27.130  1.00  0.00     0.187 HD
ENDROOT
BRANCH   7  13
HETATM   13  N3  UNL     1      -4.977  48.217 -26.952  1.00  0.00    -0.295 N 
HETATM   14  C9  UNL     1      -5.068  48.332 -28.320  1.00  0.00     0.322 C 
HETATM   15  O1  UNL     1      -4.287  48.898 -29.073  1.00  0.00    -0.247 OA
HETATM   16  N4  UNL     1      -6.191  47.666 -28.784  1.00  0.00    -0.339 N 
HETATM   17  H8  UNL     1      -6.974  47.651 -28.149  1.00  0.00     0.164 HD
HETATM   18  H7  UNL     1      -5.534  47.494 -26.532  1.00  0.00     0.172 HD
BRANCH  16  19
HETATM   19  C10 UNL     1      -6.535  47.710 -30.189  1.00  0.00     0.162 C 
BRANCH  19  20
HETATM   20  C11 UNL     1      -6.034  46.482 -30.908  1.00  0.00    -0.039 A 
HETATM   21  C12 UNL     1      -4.938  46.570 -31.780  1.00  0.00     0.009 A 
HETATM   22  C13 UNL     1      -4.483  45.444 -32.468  1.00  0.00     0.002 A 
HETATM   23  C14 UNL     1      -5.121  44.216 -32.295  1.00  0.00     0.024 A 
HETATM   24  C15 UNL     1      -6.214  44.122 -31.436  1.00  0.00     0.034 A 
HETATM   25 CL1  UNL     1      -7.010  42.610 -31.228  1.00  0.00    -0.084 Cl
HETATM   26  C16 UNL     1      -6.675  45.245 -30.747  1.00  0.00     0.032 A 
ENDBRANCH  19  20
ENDBRANCH  16  19
ENDBRANCH   7  13
BRANCH   1  27
HETATM   27  C4  UNL     1      -0.668  51.201 -22.733  1.00  0.00    -0.004 A 
HETATM   28  C3  UNL     1      -0.007  52.403 -22.463  1.00  0.00     0.038 A 
HETATM   29  C2  UNL     1       0.327  52.712 -21.149  1.00  0.00     0.005 A 
HETATM   30  C1  UNL     1       1.039  53.993 -20.835  1.00  0.00     0.068 C 
HETATM   31  N6  UNL     1       0.034  51.893 -20.113  1.00  0.00    -0.369 N 
HETATM   32  C20 UNL     1      -0.620  50.746 -20.393  1.00  0.00     0.089 A 
ATOM     33  H6  UNL     1       0.298  52.133 -19.158  1.00  0.00     0.165 HD
HETATM   34  C19 UNL     1      -0.989  50.359 -21.669  1.00  0.00     0.031 A 
ENDBRANCH   1  27
TORSDOF 4
ENDMDL
MODEL 9
REMARK minimizedAffinity -8.77585316
REMARK  4 active torsions:
REMARK  status: ('A' for Active; 'I' for Inactive)
REMARK    1  A    between atoms: C4_4  and  C5_5 
REMARK    2  A    between atoms: C8_11  and  N3_12 
REMARK       I    between atoms: N3_12  and  C9_13 
REMARK       I    between atoms: C9_13  and  N4_15 
REMARK    3  A    between atoms: N4_15  and  C10_16 
REMARK    4  A    between atoms: C10_16  and  C11_17 
ROOT
HETATM    1  C5  UNL     1      -1.986  50.343 -25.148  1.00  0.00     0.072 A 
HETATM    2  N1  UNL     1      -2.272  49.778 -23.963  1.00  0.00    -0.299 N 
ATOM      3  H1  UNL     1      -1.825  49.955 -23.063  1.00  0.00     0.187 HD
HETATM    4  N2  UNL     1      -3.276  48.930 -24.228  1.00  0.00    -0.299 N 
HETATM    5  C6  UNL     1      -3.685  48.935 -25.530  1.00  0.00     0.065 A 
HETATM    6  C7  UNL     1      -4.682  48.228 -26.202  1.00  0.00     0.080 A 
HETATM    7  C8  UNL     1      -4.809  48.510 -27.561  1.00  0.00     0.111 A 
HETATM    8  N5  UNL     1      -4.046  49.421 -28.193  1.00  0.00    -0.351 N 
ATOM      9  H5  UNL     1      -4.194  49.603 -29.186  1.00  0.00     0.166 HD
HETATM   10  C17 UNL     1      -3.081  50.101 -27.522  1.00  0.00     0.105 A 
HETATM   11  C18 UNL     1      -2.867  49.861 -26.165  1.00  0.00     0.036 A 
HETATM   12  H5  UNL     1      -3.644  48.375 -23.463  1.00  0.00     0.187 HD
ENDROOT
BRANCH   7  13
HETATM   13  N3  UNL     1      -5.810  47.820 -28.258  1.00  0.00    -0.295 N 
HETATM   14  C9  UNL     1      -5.766  47.479 -29.590  1.00  0.00     0.322 C 
HETATM   15  O1  UNL     1      -4.822  47.596 -30.358  1.00  0.00    -0.247 OA
HETATM   16  N4  UNL     1      -6.973  46.921 -29.981  1.00  0.00    -0.339 N 
HETATM   17  H8  UNL     1      -7.785  47.271 -29.497  1.00  0.00     0.164 HD
HETATM   18  H7  UNL     1      -6.548  47.402 -27.718  1.00  0.00     0.172 HD
BRANCH  16  19
HETATM   19  C10 UNL     1      -7.190  46.549 -31.363  1.00  0.00     0.162 C 
BRANCH  19  20
HETATM   20  C11 UNL     1      -6.934  45.078 -31.574  1.00  0.00    -0.039 A 
HETATM   21  C12 UNL     1      -7.921  44.134 -31.251  1.00  0.00     0.009 A 
HETATM   22  C13 UNL     1      -7.685  42.769 -31.420  1.00  0.00     0.002 A 
HETATM   23  C14 UNL     1      -6.455  42.330 -31.910  1.00  0.00     0.024 A 
HETATM   24  C15 UNL     1      -5.467  43.260 -32.226  1.00  0.00     0.034 A 
HETATM   25 CL1  UNL     1      -3.945  42.721 -32.821  1.00  0.00    -0.084 Cl
HETATM   26  C16 UNL     1      -5.697  44.627 -32.058  1.00  0.00     0.032 A 
ENDBRANCH  19  20
ENDBRANCH  16  19
ENDBRANCH   7  13
BRANCH   1  27
HETATM   27  C4  UNL     1      -0.905  51.322 -25.264  1.00  0.00    -0.004 A 
HETATM   28  C3  UNL     1       0.253  51.003 -25.980  1.00  0.00     0.038 A 
HETATM   29  C2  UNL     1       1.270  51.946 -26.077  1.00  0.00     0.005 A 
HETATM   30  C1  UNL     1       2.523  51.626 -26.836  1.00  0.00     0.068 C 
HETATM   31  N6  UNL     1       1.183  53.170 -25.507  1.00  0.00    -0.369 N 
HETATM   32  C20 UNL     1       0.050  53.465 -24.836  1.00  0.00     0.089 A 
ATOM     33  H6  UNL     1       1.945  53.844 -25.581  1.00  0.00     0.165 HD
HETATM   34  C19 UNL     1      -1.010  52.588 -24.688  1.00  0.00     0.031 A 
ENDBRANCH   1  27
TORSDOF 4
ENDMDL
