MODEL 1
REMARK minimizedAffinity -9.14113617
REMARK  4 active torsions:
REMARK  status: ('A' for Active; 'I' for Inactive)
REMARK    1  A    between atoms: C2_2  and  N1_3 
REMARK    2  A    between atoms: C2_2  and  C15_25 
REMARK       I    between atoms: N1_3  and  C3_4 
REMARK       I    between atoms: C3_4  and  N2_6 
REMARK    3  A    between atoms: N2_6  and  C4_7 
REMARK    4  A    between atoms: N5_14  and  C8_15 
ROOT
HETATM    1  C4  UNL     1       0.800  52.812 -19.018  1.00  0.00     0.111 A 
HETATM    2  C5  UNL     1      -0.064  51.825 -19.474  1.00  0.00     0.080 A 
HETATM    3  C6  UNL     1      -0.217  51.765 -20.859  1.00  0.00     0.067 A 
HETATM    4  N3  UNL     1      -0.961  50.948 -21.663  1.00  0.00    -0.298 N 
HETATM    5  N4  UNL     1      -0.840  51.209 -22.973  1.00  0.00    -0.284 N 
ATOM      6  H4  UNL     1      -1.299  50.735 -23.751  1.00  0.00     0.188 HD
HETATM    7  C7  UNL     1       0.016  52.231 -23.028  1.00  0.00     0.130 A 
HETATM    8  N5  UNL     1       0.439  52.836 -24.161  1.00  0.00    -0.368 N 
HETATM    9  C13 UNL     1       0.444  52.622 -21.727  1.00  0.00     0.052 A 
HETATM   10  C14 UNL     1       1.301  53.576 -21.182  1.00  0.00     0.107 A 
HETATM   11  N7  UNL     1       1.468  53.661 -19.835  1.00  0.00    -0.351 N 
ATOM     12  H7  UNL     1       2.094  54.363 -19.441  1.00  0.00     0.166 HD
HETATM   13  H8  UNL     1      -1.574  50.193 -21.378  1.00  0.00     0.187 HD
HETATM   14  H9  UNL     1       0.865  53.755 -24.103  1.00  0.00     0.161 HD
ENDROOT
BRANCH   1  15
HETATM   15  N2  UNL     1       1.085  53.022 -17.669  1.00  0.00    -0.295 N 
HETATM   16  C3  UNL     1       1.000  52.131 -16.631  1.00  0.00     0.322 C 
HETATM   17  N1  UNL     1       1.416  52.711 -15.450  1.00  0.00    -0.335 N 
HETATM   18  O1  UNL     1       0.592  50.979 -16.699  1.00  0.00    -0.247 OA
HETATM   19  H5  UNL     1       2.102  53.442 -15.554  1.00  0.00     0.165 HD
HETATM   20  H6  UNL     1       1.268  53.990 -17.459  1.00  0.00     0.172 HD
BRANCH  17  21
HETATM   21  C2  UNL     1       1.529  51.925 -14.229  1.00  0.00     0.115 C 
HETATM   22  C1  UNL     1       1.820  50.465 -14.581  1.00  0.00     0.037 C 
BRANCH  21  23
HETATM   23  C15 UNL     1       0.283  52.118 -13.379  1.00  0.00    -0.036 A 
HETATM   24  C16 UNL     1      -0.964  51.574 -13.727  1.00  0.00     0.009 A 
HETATM   25  C17 UNL     1      -2.089  51.799 -12.930  1.00  0.00     0.001 A 
HETATM   26  C18 UNL     1      -1.988  52.581 -11.781  1.00  0.00     0.000 A 
HETATM   27  C19 UNL     1      -0.763  53.142 -11.430  1.00  0.00     0.001 A 
HETATM   28  C20 UNL     1       0.361  52.916 -12.225  1.00  0.00     0.009 A 
ENDBRANCH  21  23
ENDBRANCH  17  21
ENDBRANCH   1  15
BRANCH   8  29
HETATM   29  C8  UNL     1      -0.207  52.552 -25.445  1.00  0.00     0.111 C 
HETATM   30  C9  UNL     1       0.344  51.218 -25.990  1.00  0.00     0.028 C 
HETATM   31  C10 UNL     1       1.419  51.456 -27.045  1.00  0.00     0.032 C 
HETATM   32  C11 UNL     1       0.871  52.277 -28.217  1.00  0.00     0.270 C 
HETATM   33  N6  UNL     1      -0.093  53.318 -27.850  1.00  0.00     0.085 N 
HETATM   34  C12 UNL     1       0.039  53.716 -26.442  1.00  0.00     0.294 C 
HETATM   35  H17 UNL     1      -1.040  52.967 -27.995  1.00  0.00     0.315 HD
ENDBRANCH   8  29
TORSDOF 4
ENDMDL
MODEL 2
REMARK minimizedAffinity -8.93936634
REMARK  4 active torsions:
REMARK  status: ('A' for Active; 'I' for Inactive)
REMARK    1  A    between atoms: C2_2  and  N1_3 
REMARK    2  A    between atoms: C2_2  and  C15_25 
REMARK       I    between atoms: N1_3  and  C3_4 
REMARK       I    between atoms: C3_4  and  N2_6 
REMARK    3  A    between atoms: N2_6  and  C4_7 
REMARK    4  A    between atoms: N5_14  and  C8_15 
ROOT
HETATM    1  C4  UNL     1       0.292  52.373 -20.008  1.00  0.00     0.111 A 
HETATM    2  C5  UNL     1       1.020  53.176 -19.139  1.00  0.00     0.080 A 
HETATM    3  C6  UNL     1       1.105  52.706 -17.828  1.00  0.00     0.067 A 
HETATM    4  N3  UNL     1       1.720  53.206 -16.715  1.00  0.00    -0.298 N 
HETATM    5  N4  UNL     1       1.570  52.448 -15.618  1.00  0.00    -0.284 N 
ATOM      6  H4  UNL     1       1.935  52.621 -14.682  1.00  0.00     0.188 HD
HETATM    7  C7  UNL     1       0.833  51.414 -16.031  1.00  0.00     0.130 A 
HETATM    8  N5  UNL     1       0.429  50.384 -15.253  1.00  0.00    -0.368 N 
HETATM    9  C13 UNL     1       0.512  51.522 -17.413  1.00  0.00     0.052 A 
HETATM   10  C14 UNL     1      -0.190  50.773 -18.357  1.00  0.00     0.107 A 
HETATM   11  N7  UNL     1      -0.293  51.208 -19.641  1.00  0.00    -0.351 N 
ATOM     12  H7  UNL     1      -0.810  50.658 -20.327  1.00  0.00     0.166 HD
HETATM   13  H8  UNL     1       2.258  54.061 -16.638  1.00  0.00     0.187 HD
HETATM   14  H9  UNL     1      -0.336  49.796 -15.567  1.00  0.00     0.161 HD
ENDROOT
BRANCH   1  15
HETATM   15  N2  UNL     1       0.103  52.674 -21.356  1.00  0.00    -0.295 N 
HETATM   16  C3  UNL     1      -0.383  51.865 -22.350  1.00  0.00     0.322 C 
HETATM   17  N1  UNL     1      -0.463  52.549 -23.546  1.00  0.00    -0.335 N 
HETATM   18  O1  UNL     1      -0.691  50.685 -22.236  1.00  0.00    -0.247 OA
HETATM   19  H5  UNL     1      -0.612  53.542 -23.458  1.00  0.00     0.165 HD
HETATM   20  H6  UNL     1       0.485  53.570 -21.609  1.00  0.00     0.172 HD
BRANCH  17  21
HETATM   21  C2  UNL     1      -1.064  51.934 -24.722  1.00  0.00     0.115 C 
HETATM   22  C1  UNL     1      -1.663  50.578 -24.345  1.00  0.00     0.037 C 
BRANCH  21  23
HETATM   23  C15 UNL     1      -0.038  51.865 -25.843  1.00  0.00    -0.036 A 
HETATM   24  C16 UNL     1      -0.397  51.881 -27.200  1.00  0.00     0.009 A 
HETATM   25  C17 UNL     1       0.578  51.790 -28.197  1.00  0.00     0.001 A 
HETATM   26  C18 UNL     1       1.922  51.668 -27.853  1.00  0.00     0.000 A 
HETATM   27  C19 UNL     1       2.294  51.632 -26.512  1.00  0.00     0.001 A 
HETATM   28  C20 UNL     1       1.321  51.726 -25.516  1.00  0.00     0.009 A 
ENDBRANCH  21  23
ENDBRANCH  17  21
ENDBRANCH   1  15
BRANCH   8  29
HETATM   29  C8  UNL     1       0.586  50.441 -13.798  1.00  0.00     0.111 C 
HETATM   30  C9  UNL     1      -0.718  50.989 -13.181  1.00  0.00     0.028 C 
HETATM   31  C10 UNL     1      -0.589  52.471 -12.848  1.00  0.00     0.032 C 
HETATM   32  C11 UNL     1       0.560  52.719 -11.865  1.00  0.00     0.270 C 
HETATM   33  N6  UNL     1       1.736  51.867 -12.058  1.00  0.00     0.085 N 
HETATM   34  C12 UNL     1       1.805  51.326 -13.421  1.00  0.00     0.294 C 
HETATM   35  H17 UNL     1       1.696  51.084 -11.405  1.00  0.00     0.315 HD
ENDBRANCH   8  29
TORSDOF 4
ENDMDL
MODEL 3
REMARK minimizedAffinity -8.84786892
REMARK  4 active torsions:
REMARK  status: ('A' for Active; 'I' for Inactive)
REMARK    1  A    between atoms: C2_2  and  N1_3 
REMARK    2  A    between atoms: C2_2  and  C15_25 
REMARK       I    between atoms: N1_3  and  C3_4 
REMARK       I    between atoms: C3_4  and  N2_6 
REMARK    3  A    between atoms: N2_6  and  C4_7 
REMARK    4  A    between atoms: N5_14  and  C8_15 
ROOT
HETATM    1  C4  UNL     1      -3.288  48.716 -24.361  1.00  0.00     0.111 A 
HETATM    2  C5  UNL     1      -4.664  48.526 -24.340  1.00  0.00     0.080 A 
HETATM    3  C6  UNL     1      -5.250  48.298 -25.586  1.00  0.00     0.067 A 
HETATM    4  N3  UNL     1      -6.544  48.071 -25.960  1.00  0.00    -0.298 N 
HETATM    5  N4  UNL     1      -6.710  47.894 -27.280  1.00  0.00    -0.284 N 
ATOM      6  H4  UNL     1      -7.579  47.715 -27.783  1.00  0.00     0.188 HD
HETATM    7  C7  UNL     1      -5.480  48.006 -27.785  1.00  0.00     0.130 A 
HETATM    8  N5  UNL     1      -5.161  47.897 -29.095  1.00  0.00    -0.368 N 
HETATM    9  C13 UNL     1      -4.520  48.258 -26.765  1.00  0.00     0.052 A 
HETATM   10  C14 UNL     1      -3.141  48.447 -26.690  1.00  0.00     0.107 A 
HETATM   11  N7  UNL     1      -2.542  48.676 -25.491  1.00  0.00    -0.351 N 
ATOM     12  H7  UNL     1      -1.533  48.817 -25.441  1.00  0.00     0.166 HD
HETATM   13  H8  UNL     1      -7.362  48.026 -25.363  1.00  0.00     0.187 HD
HETATM   14  H9  UNL     1      -4.270  48.257 -29.419  1.00  0.00     0.161 HD
ENDROOT
BRANCH   1  15
HETATM   15  N2  UNL     1      -2.527  48.950 -23.217  1.00  0.00    -0.295 N 
HETATM   16  C3  UNL     1      -2.568  50.027 -22.371  1.00  0.00     0.322 C 
HETATM   17  N1  UNL     1      -1.687  49.862 -21.321  1.00  0.00    -0.335 N 
HETATM   18  O1  UNL     1      -3.259  51.028 -22.508  1.00  0.00    -0.247 OA
HETATM   19  H5  UNL     1      -1.512  48.905 -21.060  1.00  0.00     0.165 HD
HETATM   20  H6  UNL     1      -1.794  48.269 -23.095  1.00  0.00     0.172 HD
BRANCH  17  21
HETATM   21  C2  UNL     1      -1.638  50.822 -20.226  1.00  0.00     0.115 C 
HETATM   22  C1  UNL     1      -3.043  51.363 -19.952  1.00  0.00     0.037 C 
BRANCH  21  23
HETATM   23  C15 UNL     1      -0.612  51.900 -20.537  1.00  0.00    -0.036 A 
HETATM   24  C16 UNL     1      -0.271  52.909 -19.622  1.00  0.00     0.009 A 
HETATM   25  C17 UNL     1       0.659  53.895 -19.960  1.00  0.00     0.001 A 
HETATM   26  C18 UNL     1       1.252  53.896 -21.220  1.00  0.00     0.000 A 
HETATM   27  C19 UNL     1       0.913  52.914 -22.146  1.00  0.00     0.001 A 
HETATM   28  C20 UNL     1      -0.015  51.927 -21.809  1.00  0.00     0.009 A 
ENDBRANCH  21  23
ENDBRANCH  17  21
ENDBRANCH   1  15
BRANCH   8  29
HETATM   29  C8  UNL     1      -6.209  47.873 -30.118  1.00  0.00     0.111 C 
HETATM   30  C9  UNL     1      -6.800  46.450 -30.186  1.00  0.00     0.028 C 
HETATM   31  C10 UNL     1      -6.208  45.663 -31.351  1.00  0.00     0.032 C 
HETATM   32  C11 UNL     1      -6.472  46.367 -32.685  1.00  0.00     0.270 C 
HETATM   33  N6  UNL     1      -6.415  47.831 -32.636  1.00  0.00     0.085 N 
HETATM   34  C12 UNL     1      -5.631  48.312 -31.491  1.00  0.00     0.294 C 
HETATM   35  H17 UNL     1      -7.362  48.202 -32.554  1.00  0.00     0.315 HD
ENDBRANCH   8  29
TORSDOF 4
ENDMDL
MODEL 4
REMARK minimizedAffinity -8.82069302
REMARK  4 active torsions:
REMARK  status: ('A' for Active; 'I' for Inactive)
REMARK    1  A    between atoms: C2_2  and  N1_3 
REMARK    2  A    between atoms: C2_2  and  C15_25 
REMARK       I    between atoms: N1_3  and  C3_4 
REMARK       I    between atoms: C3_4  and  N2_6 
REMARK    3  A    between atoms: N2_6  and  C4_7 
REMARK    4  A    between atoms: N5_14  and  C8_15 
ROOT
HETATM    1  C4  UNL     1      -0.487  50.889 -21.039  1.00  0.00     0.111 A 
HETATM    2  C5  UNL     1       0.217  52.052 -20.749  1.00  0.00     0.080 A 
HETATM    3  C6  UNL     1       0.511  52.246 -19.399  1.00  0.00     0.067 A 
HETATM    4  N3  UNL     1       1.172  53.245 -18.742  1.00  0.00    -0.298 N 
HETATM    5  N4  UNL     1       1.250  53.069 -17.414  1.00  0.00    -0.284 N 
ATOM      6  H4  UNL     1       1.690  53.680 -16.727  1.00  0.00     0.188 HD
HETATM    7  C7  UNL     1       0.619  51.913 -17.197  1.00  0.00     0.130 A 
HETATM    8  N5  UNL     1       0.449  51.332 -15.987  1.00  0.00    -0.368 N 
HETATM    9  C13 UNL     1       0.135  51.348 -18.410  1.00  0.00     0.052 A 
HETATM   10  C14 UNL     1      -0.559  50.202 -18.793  1.00  0.00     0.107 A 
HETATM   11  N7  UNL     1      -0.863  49.986 -20.101  1.00  0.00    -0.351 N 
ATOM     12  H7  UNL     1      -1.373  49.148 -20.376  1.00  0.00     0.166 HD
HETATM   13  H8  UNL     1       1.594  54.075 -19.142  1.00  0.00     0.187 HD
HETATM   14  H9  UNL     1      -0.259  50.613 -15.878  1.00  0.00     0.161 HD
ENDROOT
BRANCH   1  15
HETATM   15  N2  UNL     1      -0.864  50.520 -22.329  1.00  0.00    -0.295 N 
HETATM   16  C3  UNL     1      -1.175  51.328 -23.391  1.00  0.00     0.322 C 
HETATM   17  N1  UNL     1      -1.453  50.578 -24.515  1.00  0.00    -0.335 N 
HETATM   18  O1  UNL     1      -1.233  52.551 -23.376  1.00  0.00    -0.247 OA
HETATM   19  H5  UNL     1      -0.980  49.689 -24.560  1.00  0.00     0.165 HD
HETATM   20  H6  UNL     1      -1.020  49.528 -22.417  1.00  0.00     0.172 HD
BRANCH  17  21
HETATM   21  C2  UNL     1      -1.693  51.217 -25.802  1.00  0.00     0.115 C 
HETATM   22  C1  UNL     1      -2.726  50.412 -26.593  1.00  0.00     0.037 C 
BRANCH  21  23
HETATM   23  C15 UNL     1      -0.372  51.411 -26.531  1.00  0.00    -0.036 A 
HETATM   24  C16 UNL     1      -0.300  51.821 -27.872  1.00  0.00     0.009 A 
HETATM   25  C17 UNL     1       0.936  51.961 -28.509  1.00  0.00     0.001 A 
HETATM   26  C18 UNL     1       2.114  51.681 -27.822  1.00  0.00     0.000 A 
HETATM   27  C19 UNL     1       2.060  51.257 -26.498  1.00  0.00     0.001 A 
HETATM   28  C20 UNL     1       0.827  51.119 -25.859  1.00  0.00     0.009 A 
ENDBRANCH  21  23
ENDBRANCH  17  21
ENDBRANCH   1  15
BRANCH   8  29
HETATM   29  C8  UNL     1       0.757  52.065 -14.757  1.00  0.00     0.111 C 
HETATM   30  C9  UNL     1       2.122  51.583 -14.224  1.00  0.00     0.028 C 
HETATM   31  C10 UNL     1       1.947  50.571 -13.097  1.00  0.00     0.032 C 
HETATM   32  C11 UNL     1       1.150  51.171 -11.934  1.00  0.00     0.270 C 
HETATM   33  N6  UNL     1       0.073  52.083 -12.325  1.00  0.00     0.085 N 
HETATM   34  C12 UNL     1      -0.367  51.853 -13.707  1.00  0.00     0.294 C 
HETATM   35  H17 UNL     1       0.403  53.046 -12.251  1.00  0.00     0.315 HD
ENDBRANCH   8  29
TORSDOF 4
ENDMDL
MODEL 5
REMARK minimizedAffinity -8.74712944
REMARK  4 active torsions:
REMARK  status: ('A' for Active; 'I' for Inactive)
REMARK    1  A    between atoms: C2_2  and  N1_3 
REMARK    2  A    between atoms: C2_2  and  C15_25 
REMARK       I    between atoms: N1_3  and  C3_4 
REMARK       I    between atoms: C3_4  and  N2_6 
REMARK    3  A    between atoms: N2_6  and  C4_7 
REMARK    4  A    between atoms: N5_14  and  C8_15 
ROOT
HETATM    1  C4  UNL     1      -2.970  49.105 -24.479  1.00  0.00     0.111 A 
HETATM    2  C5  UNL     1      -4.308  48.768 -24.317  1.00  0.00     0.080 A 
HETATM    3  C6  UNL     1      -4.979  48.424 -25.491  1.00  0.00     0.067 A 
HETATM    4  N3  UNL     1      -6.269  48.043 -25.730  1.00  0.00    -0.298 N 
HETATM    5  N4  UNL     1      -6.537  47.792 -27.020  1.00  0.00    -0.284 N 
ATOM      6  H4  UNL     1      -7.424  47.499 -27.429  1.00  0.00     0.188 HD
HETATM    7  C7  UNL     1      -5.381  48.015 -27.647  1.00  0.00     0.130 A 
HETATM    8  N5  UNL     1      -5.176  47.886 -28.978  1.00  0.00    -0.368 N 
HETATM    9  C13 UNL     1      -4.363  48.413 -26.735  1.00  0.00     0.052 A 
HETATM   10  C14 UNL     1      -3.013  48.754 -26.802  1.00  0.00     0.107 A 
HETATM   11  N7  UNL     1      -2.333  49.098 -25.675  1.00  0.00    -0.351 N 
ATOM     12  H7  UNL     1      -1.347  49.349 -25.730  1.00  0.00     0.166 HD
HETATM   13  H8  UNL     1      -7.016  47.935 -25.054  1.00  0.00     0.187 HD
HETATM   14  H9  UNL     1      -4.365  48.326 -29.399  1.00  0.00     0.161 HD
ENDROOT
BRANCH   1  15
HETATM   15  N2  UNL     1      -2.135  49.469 -23.423  1.00  0.00    -0.295 N 
HETATM   16  C3  UNL     1      -1.645  50.710 -23.113  1.00  0.00     0.322 C 
HETATM   17  N1  UNL     1      -0.889  50.666 -21.959  1.00  0.00    -0.335 N 
HETATM   18  O1  UNL     1      -1.811  51.736 -23.760  1.00  0.00    -0.247 OA
HETATM   19  H5  UNL     1      -1.157  49.949 -21.303  1.00  0.00     0.165 HD
HETATM   20  H6  UNL     1      -1.787  48.672 -22.915  1.00  0.00     0.172 HD
BRANCH  17  21
HETATM   21  C2  UNL     1      -0.361  51.885 -21.362  1.00  0.00     0.115 C 
HETATM   22  C1  UNL     1       0.843  52.374 -22.169  1.00  0.00     0.037 C 
BRANCH  21  23
HETATM   23  C15 UNL     1      -0.062  51.645 -19.891  1.00  0.00    -0.036 A 
HETATM   24  C16 UNL     1      -0.481  50.491 -19.210  1.00  0.00     0.009 A 
HETATM   25  C17 UNL     1      -0.205  50.325 -17.850  1.00  0.00     0.001 A 
HETATM   26  C18 UNL     1       0.481  51.313 -17.148  1.00  0.00     0.000 A 
HETATM   27  C19 UNL     1       0.889  52.471 -17.803  1.00  0.00     0.001 A 
HETATM   28  C20 UNL     1       0.615  52.638 -19.162  1.00  0.00     0.009 A 
ENDBRANCH  21  23
ENDBRANCH  17  21
ENDBRANCH   1  15
BRANCH   8  29
HETATM   29  C8  UNL     1      -6.306  47.704 -29.892  1.00  0.00     0.111 C 
HETATM   30  C9  UNL     1      -6.592  46.195 -30.030  1.00  0.00     0.028 C 
HETATM   31  C10 UNL     1      -5.987  45.634 -31.312  1.00  0.00     0.032 C 
HETATM   32  C11 UNL     1      -6.543  46.353 -32.546  1.00  0.00     0.270 C 
HETATM   33  N6  UNL     1      -6.786  47.787 -32.371  1.00  0.00     0.085 N 
HETATM   34  C12 UNL     1      -5.993  48.349 -31.270  1.00  0.00     0.294 C 
HETATM   35  H17 UNL     1      -7.773  47.939 -32.164  1.00  0.00     0.315 HD
ENDBRANCH   8  29
TORSDOF 4
ENDMDL
MODEL 6
REMARK minimizedAffinity -8.69869423
REMARK  4 active torsions:
REMARK  status: ('A' for Active; 'I' for Inactive)
REMARK    1  A    between atoms: C2_2  and  N1_3 
REMARK    2  A    between atoms: C2_2  and  C15_25 
REMARK       I    between atoms: N1_3  and  C3_4 
REMARK       I    between atoms: C3_4  and  N2_6 
REMARK    3  A    between atoms: N2_6  and  C4_7 
REMARK    4  A    between atoms: N5_14  and  C8_15 
ROOT
HETATM    1  C4  UNL     1       0.789  53.023 -19.406  1.00  0.00     0.111 A 
HETATM    2  C5  UNL     1       1.422  53.790 -20.377  1.00  0.00     0.080 A 
HETATM    3  C6  UNL     1       1.002  53.553 -21.686  1.00  0.00     0.067 A 
HETATM    4  N3  UNL     1       1.379  54.097 -22.880  1.00  0.00    -0.298 N 
HETATM    5  N4  UNL     1       0.731  53.595 -23.942  1.00  0.00    -0.284 N 
ATOM      6  H4  UNL     1       0.848  53.846 -24.923  1.00  0.00     0.188 HD
HETATM    7  C7  UNL     1      -0.103  52.692 -23.422  1.00  0.00     0.130 A 
HETATM    8  N5  UNL     1      -0.965  51.927 -24.129  1.00  0.00    -0.368 N 
HETATM    9  C13 UNL     1       0.022  52.623 -22.005  1.00  0.00     0.052 A 
HETATM   10  C14 UNL     1      -0.567  51.906 -20.965  1.00  0.00     0.107 A 
HETATM   11  N7  UNL     1      -0.176  52.113 -19.679  1.00  0.00    -0.351 N 
ATOM     12  H7  UNL     1      -0.608  51.584 -18.922  1.00  0.00     0.166 HD
HETATM   13  H8  UNL     1       2.076  54.817 -23.039  1.00  0.00     0.187 HD
HETATM   14  H9  UNL     1      -1.357  51.096 -23.700  1.00  0.00     0.161 HD
ENDROOT
BRANCH   1  15
HETATM   15  N2  UNL     1       1.069  53.123 -18.044  1.00  0.00    -0.295 N 
HETATM   16  C3  UNL     1       0.964  52.157 -17.078  1.00  0.00     0.322 C 
HETATM   17  N1  UNL     1       1.381  52.637 -15.854  1.00  0.00    -0.335 N 
HETATM   18  O1  UNL     1       0.539  51.019 -17.237  1.00  0.00    -0.247 OA
HETATM   19  H5  UNL     1       2.079  53.363 -15.897  1.00  0.00     0.165 HD
HETATM   20  H6  UNL     1       1.266  54.069 -17.759  1.00  0.00     0.172 HD
BRANCH  17  21
HETATM   21  C2  UNL     1       1.475  51.757 -14.696  1.00  0.00     0.115 C 
HETATM   22  C1  UNL     1       1.708  50.318 -15.160  1.00  0.00     0.037 C 
BRANCH  21  23
HETATM   23  C15 UNL     1       0.244  51.931 -13.821  1.00  0.00    -0.036 A 
HETATM   24  C16 UNL     1      -1.008  51.392 -14.158  1.00  0.00     0.009 A 
HETATM   25  C17 UNL     1      -2.119  51.599 -13.336  1.00  0.00     0.001 A 
HETATM   26  C18 UNL     1      -1.999  52.357 -12.174  1.00  0.00     0.000 A 
HETATM   27  C19 UNL     1      -0.769  52.914 -11.834  1.00  0.00     0.001 A 
HETATM   28  C20 UNL     1       0.341  52.706 -12.653  1.00  0.00     0.009 A 
ENDBRANCH  21  23
ENDBRANCH  17  21
ENDBRANCH   1  15
BRANCH   8  29
HETATM   29  C8  UNL     1      -0.887  51.870 -25.591  1.00  0.00     0.111 C 
HETATM   30  C9  UNL     1       0.019  50.688 -25.991  1.00  0.00     0.028 C 
HETATM   31  C10 UNL     1       1.425  51.163 -26.338  1.00  0.00     0.032 C 
HETATM   32  C11 UNL     1       1.399  52.173 -27.491  1.00  0.00     0.270 C 
HETATM   33  N6  UNL     1       0.254  53.087 -27.488  1.00  0.00     0.085 N 
HETATM   34  C12 UNL     1      -0.347  53.213 -26.154  1.00  0.00     0.294 C 
HETATM   35  H17 UNL     1      -0.459  52.736 -28.127  1.00  0.00     0.315 HD
ENDBRANCH   8  29
TORSDOF 4
ENDMDL
MODEL 7
REMARK minimizedAffinity -8.67163277
REMARK  4 active torsions:
REMARK  status: ('A' for Active; 'I' for Inactive)
REMARK    1  A    between atoms: C2_2  and  N1_3 
REMARK    2  A    between atoms: C2_2  and  C15_25 
REMARK       I    between atoms: N1_3  and  C3_4 
REMARK       I    between atoms: C3_4  and  N2_6 
REMARK    3  A    between atoms: N2_6  and  C4_7 
REMARK    4  A    between atoms: N5_14  and  C8_15 
ROOT
HETATM    1  C4  UNL     1       0.807  52.581 -18.736  1.00  0.00     0.111 A 
HETATM    2  C5  UNL     1      -0.065  51.617 -19.227  1.00  0.00     0.080 A 
HETATM    3  C6  UNL     1      -0.219  51.608 -20.613  1.00  0.00     0.067 A 
HETATM    4  N3  UNL     1      -0.970  50.827 -21.446  1.00  0.00    -0.298 N 
HETATM    5  N4  UNL     1      -0.847  51.134 -22.746  1.00  0.00    -0.284 N 
ATOM      6  H4  UNL     1      -1.309  50.692 -23.540  1.00  0.00     0.188 HD
HETATM    7  C7  UNL     1       0.017  52.151 -22.764  1.00  0.00     0.130 A 
HETATM    8  N5  UNL     1       0.444  52.793 -23.875  1.00  0.00    -0.368 N 
HETATM    9  C13 UNL     1       0.448  52.491 -21.451  1.00  0.00     0.052 A 
HETATM   10  C14 UNL     1       1.313  53.419 -20.872  1.00  0.00     0.107 A 
HETATM   11  N7  UNL     1       1.481  53.454 -19.523  1.00  0.00    -0.351 N 
ATOM     12  H7  UNL     1       2.112  54.136 -19.103  1.00  0.00     0.166 HD
HETATM   13  H8  UNL     1      -1.588  50.066 -21.188  1.00  0.00     0.187 HD
HETATM   14  H9  UNL     1       0.877  53.706 -23.784  1.00  0.00     0.161 HD
ENDROOT
BRANCH   1  15
HETATM   15  N2  UNL     1       1.094  52.740 -17.381  1.00  0.00    -0.295 N 
HETATM   16  C3  UNL     1       0.606  52.027 -16.317  1.00  0.00     0.322 C 
HETATM   17  N1  UNL     1       1.171  52.459 -15.135  1.00  0.00    -0.335 N 
HETATM   18  O1  UNL     1      -0.235  51.138 -16.366  1.00  0.00    -0.247 OA
HETATM   19  H5  UNL     1       2.101  52.840 -15.222  1.00  0.00     0.165 HD
HETATM   20  H6  UNL     1       1.648  53.560 -17.197  1.00  0.00     0.172 HD
BRANCH  17  21
HETATM   21  C2  UNL     1       0.900  51.772 -13.879  1.00  0.00     0.115 C 
HETATM   22  C1  UNL     1       0.197  52.726 -12.911  1.00  0.00     0.037 C 
BRANCH  21  23
HETATM   23  C15 UNL     1       2.189  51.178 -13.332  1.00  0.00    -0.036 A 
HETATM   24  C16 UNL     1       3.072  50.427 -14.124  1.00  0.00     0.009 A 
HETATM   25  C17 UNL     1       4.233  49.878 -13.573  1.00  0.00     0.001 A 
HETATM   26  C18 UNL     1       4.521  50.059 -12.222  1.00  0.00     0.000 A 
HETATM   27  C19 UNL     1       3.647  50.786 -11.419  1.00  0.00     0.001 A 
HETATM   28  C20 UNL     1       2.488  51.337 -11.969  1.00  0.00     0.009 A 
ENDBRANCH  21  23
ENDBRANCH  17  21
ENDBRANCH   1  15
BRANCH   8  29
HETATM   29  C8  UNL     1      -0.205  52.560 -25.167  1.00  0.00     0.111 C 
HETATM   30  C9  UNL     1       0.317  51.230 -25.749  1.00  0.00     0.028 C 
HETATM   31  C10 UNL     1       1.400  51.472 -26.794  1.00  0.00     0.032 C 
HETATM   32  C11 UNL     1       0.875  52.338 -27.944  1.00  0.00     0.270 C 
HETATM   33  N6  UNL     1      -0.065  53.390 -27.550  1.00  0.00     0.085 N 
HETATM   34  C12 UNL     1       0.072  53.746 -26.131  1.00  0.00     0.294 C 
HETATM   35  H17 UNL     1      -1.019  53.066 -27.707  1.00  0.00     0.315 HD
ENDBRANCH   8  29
TORSDOF 4
ENDMDL
MODEL 8
REMARK minimizedAffinity -8.64535809
REMARK  4 active torsions:
REMARK  status: ('A' for Active; 'I' for Inactive)
REMARK    1  A    between atoms: C2_2  and  N1_3 
REMARK    2  A    between atoms: C2_2  and  C15_25 
REMARK       I    between atoms: N1_3  and  C3_4 
REMARK       I    between atoms: C3_4  and  N2_6 
REMARK    3  A    between atoms: N2_6  and  C4_7 
REMARK    4  A    between atoms: N5_14  and  C8_15 
ROOT
HETATM    1  C4  UNL     1      -3.330  48.662 -23.995  1.00  0.00     0.111 A 
HETATM    2  C5  UNL     1      -2.865  48.619 -25.303  1.00  0.00     0.080 A 
HETATM    3  C6  UNL     1      -3.844  48.402 -26.273  1.00  0.00     0.067 A 
HETATM    4  N3  UNL     1      -3.777  48.301 -27.634  1.00  0.00    -0.298 N 
HETATM    5  N4  UNL     1      -4.961  48.086 -28.227  1.00  0.00    -0.284 N 
ATOM      6  H4  UNL     1      -5.152  47.976 -29.223  1.00  0.00     0.188 HD
HETATM    7  C7  UNL     1      -5.833  48.048 -27.217  1.00  0.00     0.130 A 
HETATM    8  N5  UNL     1      -7.166  47.849 -27.344  1.00  0.00    -0.368 N 
HETATM    9  C13 UNL     1      -5.188  48.243 -25.964  1.00  0.00     0.052 A 
HETATM   10  C14 UNL     1      -5.566  48.312 -24.624  1.00  0.00     0.107 A 
HETATM   11  N7  UNL     1      -4.634  48.519 -23.656  1.00  0.00    -0.351 N 
ATOM     12  H7  UNL     1      -4.915  48.565 -22.677  1.00  0.00     0.166 HD
HETATM   13  H8  UNL     1      -2.952  48.370 -28.219  1.00  0.00     0.187 HD
HETATM   14  H9  UNL     1      -7.704  47.569 -26.531  1.00  0.00     0.161 HD
ENDROOT
BRANCH   1  15
HETATM   15  N2  UNL     1      -2.504  48.875 -22.892  1.00  0.00    -0.295 N 
HETATM   16  C3  UNL     1      -2.465  49.958 -22.052  1.00  0.00     0.322 C 
HETATM   17  N1  UNL     1      -1.538  49.768 -21.048  1.00  0.00    -0.335 N 
HETATM   18  O1  UNL     1      -3.128  50.981 -22.161  1.00  0.00    -0.247 OA
HETATM   19  H5  UNL     1      -1.383  48.806 -20.789  1.00  0.00     0.165 HD
HETATM   20  H6  UNL     1      -1.790  48.171 -22.802  1.00  0.00     0.172 HD
BRANCH  17  21
HETATM   21  C2  UNL     1      -1.401  50.731 -19.963  1.00  0.00     0.115 C 
HETATM   22  C1  UNL     1      -2.786  51.202 -19.514  1.00  0.00     0.037 C 
BRANCH  21  23
HETATM   23  C15 UNL     1      -0.476  51.859 -20.395  1.00  0.00    -0.036 A 
HETATM   24  C16 UNL     1       0.231  51.837 -21.607  1.00  0.00     0.009 A 
HETATM   25  C17 UNL     1       1.090  52.883 -21.951  1.00  0.00     0.001 A 
HETATM   26  C18 UNL     1       1.266  53.959 -21.085  1.00  0.00     0.000 A 
HETATM   27  C19 UNL     1       0.586  53.989 -19.870  1.00  0.00     0.001 A 
HETATM   28  C20 UNL     1      -0.274  52.945 -19.527  1.00  0.00     0.009 A 
ENDBRANCH  21  23
ENDBRANCH  17  21
ENDBRANCH   1  15
BRANCH   8  29
HETATM   29  C8  UNL     1      -7.739  47.423 -28.622  1.00  0.00     0.111 C 
HETATM   30  C9  UNL     1      -6.617  46.811 -29.487  1.00  0.00     0.028 C 
HETATM   31  C10 UNL     1      -6.104  47.815 -30.514  1.00  0.00     0.032 C 
HETATM   32  C11 UNL     1      -7.233  48.287 -31.437  1.00  0.00     0.270 C 
HETATM   33  N6  UNL     1      -8.538  48.445 -30.790  1.00  0.00     0.085 N 
HETATM   34  C12 UNL     1      -8.414  48.624 -29.338  1.00  0.00     0.294 C 
HETATM   35  H17 UNL     1      -9.102  47.612 -30.962  1.00  0.00     0.315 HD
ENDBRANCH   8  29
TORSDOF 4
ENDMDL
MODEL 9
REMARK minimizedAffinity -8.64129734
REMARK  4 active torsions:
REMARK  status: ('A' for Active; 'I' for Inactive)
REMARK    1  A    between atoms: C2_2  and  N1_3 
REMARK    2  A    between atoms: C2_2  and  C15_25 
REMARK       I    between atoms: N1_3  and  C3_4 
REMARK       I    between atoms: C3_4  and  N2_6 
REMARK    3  A    between atoms: N2_6  and  C4_7 
REMARK    4  A    between atoms: N5_14  and  C8_15 
ROOT
HETATM    1  C4  UNL     1      -1.839  50.420 -25.036  1.00  0.00     0.111 A 
HETATM    2  C5  UNL     1      -1.989  50.850 -26.349  1.00  0.00     0.080 A 
HETATM    3  C6  UNL     1      -2.983  50.195 -27.077  1.00  0.00     0.067 A 
HETATM    4  N3  UNL     1      -3.418  50.337 -28.364  1.00  0.00    -0.298 N 
HETATM    5  N4  UNL     1      -4.415  49.505 -28.701  1.00  0.00    -0.284 N 
ATOM      6  H4  UNL     1      -4.892  49.431 -29.600  1.00  0.00     0.188 HD
HETATM    7  C7  UNL     1      -4.642  48.796 -27.594  1.00  0.00     0.130 A 
HETATM    8  N5  UNL     1      -5.574  47.824 -27.466  1.00  0.00    -0.368 N 
HETATM    9  C13 UNL     1      -3.772  49.188 -26.538  1.00  0.00     0.052 A 
HETATM   10  C14 UNL     1      -3.559  48.829 -25.208  1.00  0.00     0.107 A 
HETATM   11  N7  UNL     1      -2.595  49.447 -24.474  1.00  0.00    -0.351 N 
ATOM     12  H7  UNL     1      -2.441  49.178 -23.502  1.00  0.00     0.166 HD
HETATM   13  H8  UNL     1      -3.075  50.984 -29.065  1.00  0.00     0.187 HD
HETATM   14  H9  UNL     1      -5.500  47.165 -26.698  1.00  0.00     0.161 HD
ENDROOT
BRANCH   1  15
HETATM   15  N2  UNL     1      -0.905  50.959 -24.153  1.00  0.00    -0.295 N 
HETATM   16  C3  UNL     1      -1.109  51.856 -23.138  1.00  0.00     0.322 C 
HETATM   17  N1  UNL     1       0.065  52.107 -22.459  1.00  0.00    -0.335 N 
HETATM   18  O1  UNL     1      -2.169  52.402 -22.858  1.00  0.00    -0.247 OA
HETATM   19  H5  UNL     1       0.727  51.346 -22.458  1.00  0.00     0.165 HD
HETATM   20  H6  UNL     1       0.042  50.714 -24.396  1.00  0.00     0.172 HD
BRANCH  17  21
HETATM   21  C2  UNL     1       0.076  52.937 -21.262  1.00  0.00     0.115 C 
HETATM   22  C1  UNL     1       1.261  53.904 -21.316  1.00  0.00     0.037 C 
BRANCH  21  23
HETATM   23  C15 UNL     1       0.058  52.052 -20.025  1.00  0.00    -0.036 A 
HETATM   24  C16 UNL     1      -0.453  50.744 -20.037  1.00  0.00     0.009 A 
HETATM   25  C17 UNL     1      -0.473  49.976 -18.870  1.00  0.00     0.001 A 
HETATM   26  C18 UNL     1       0.005  50.505 -17.674  1.00  0.00     0.000 A 
HETATM   27  C19 UNL     1       0.499  51.806 -17.641  1.00  0.00     0.001 A 
HETATM   28  C20 UNL     1       0.521  52.574 -18.806  1.00  0.00     0.009 A 
ENDBRANCH  21  23
ENDBRANCH  17  21
ENDBRANCH   1  15
BRANCH   8  29
HETATM   29  C8  UNL     1      -6.275  47.303 -28.642  1.00  0.00     0.111 C 
HETATM   30  C9  UNL     1      -5.297  47.291 -29.835  1.00  0.00     0.028 C 
HETATM   31  C10 UNL     1      -5.518  48.498 -30.740  1.00  0.00     0.032 C 
HETATM   32  C11 UNL     1      -6.951  48.529 -31.281  1.00  0.00     0.270 C 
HETATM   33  N6  UNL     1      -7.979  48.071 -30.342  1.00  0.00     0.085 N 
HETATM   34  C12 UNL     1      -7.529  48.165 -28.947  1.00  0.00     0.294 C 
HETATM   35  H17 UNL     1      -8.205  47.096 -30.539  1.00  0.00     0.315 HD
ENDBRANCH   8  29
TORSDOF 4
ENDMDL
