MODEL 1
REMARK minimizedAffinity -8.82996559
REMARK  8 active torsions:
REMARK  status: ('A' for Active; 'I' for Inactive)
REMARK    1  A    between atoms: O1_2  and  C2_3 
REMARK    2  A    between atoms: C2_3  and  C3_4 
REMARK    3  A    between atoms: C3_4  and  N1_5 
REMARK    4  A    between atoms: C3_4  and  C18_28 
REMARK       I    between atoms: N1_5  and  C4_6 
REMARK       I    between atoms: C4_6  and  N2_8 
REMARK    5  A    between atoms: N2_8  and  C5_9 
REMARK    6  A    between atoms: C8_15  and  O3_16 
REMARK    7  A    between atoms: O3_16  and  C9_17 
REMARK    8  A    between atoms: C9_17  and  C10_18 
ROOT
HETATM    1  C5  UNL     1      -1.262  49.577 -21.202  1.00  0.00     0.111 A 
HETATM    2  C6  UNL     1      -1.879  48.523 -20.538  1.00  0.00     0.080 A 
HETATM    3  C7  UNL     1      -1.635  48.462 -19.166  1.00  0.00     0.067 A 
HETATM    4  N3  UNL     1      -2.055  47.592 -18.195  1.00  0.00    -0.298 N 
HETATM    5  N4  UNL     1      -1.593  47.880 -16.963  1.00  0.00    -0.279 N 
ATOM      6  H4  UNL     1      -1.766  47.384 -16.088  1.00  0.00     0.189 HD
HETATM    7  C8  UNL     1      -0.851  48.972 -17.166  1.00  0.00     0.171 A 
HETATM    8  C16 UNL     1      -0.835  49.389 -18.511  1.00  0.00     0.060 A 
HETATM    9  C17 UNL     1      -0.257  50.416 -19.250  1.00  0.00     0.108 A 
HETATM   10  N5  UNL     1      -0.481  50.498 -20.590  1.00  0.00    -0.351 N 
ATOM     11  H5  UNL     1      -0.061  51.254 -21.132  1.00  0.00     0.166 HD
HETATM   12  H10 UNL     1      -2.657  46.784 -18.308  1.00  0.00     0.187 HD
ENDROOT
BRANCH   1  13
HETATM   13  N2  UNL     1      -1.394  49.805 -22.572  1.00  0.00    -0.295 N 
HETATM   14  C4  UNL     1      -1.375  50.998 -23.242  1.00  0.00     0.322 C 
HETATM   15  N1  UNL     1      -1.496  50.801 -24.602  1.00  0.00    -0.332 N 
HETATM   16  O2  UNL     1      -1.282  52.111 -22.741  1.00  0.00    -0.247 OA
HETATM   17  H7  UNL     1      -1.053  49.955 -24.928  1.00  0.00     0.165 HD
HETATM   18  H8  UNL     1      -1.652  48.973 -23.079  1.00  0.00     0.172 HD
BRANCH  15  19
HETATM   19  C3  UNL     1      -1.406  51.931 -25.529  1.00  0.00     0.143 C 
BRANCH  19  20
HETATM   20  C2  UNL     1      -2.622  52.032 -26.483  1.00  0.00     0.197 C 
BRANCH  20  21
HETATM   21  O1  UNL     1      -3.381  50.814 -26.442  1.00  0.00    -0.394 OA
HETATM   22  C1  UNL     1      -3.308  50.113 -27.675  1.00  0.00     0.201 C 
ENDBRANCH  20  21
ENDBRANCH  19  20
BRANCH  19  23
HETATM   23  C18 UNL     1      -0.099  51.827 -26.309  1.00  0.00    -0.033 A 
HETATM   24  C19 UNL     1       1.135  51.681 -25.654  1.00  0.00     0.009 A 
HETATM   25  C20 UNL     1       2.323  51.597 -26.383  1.00  0.00     0.001 A 
HETATM   26  C21 UNL     1       2.292  51.656 -27.774  1.00  0.00     0.000 A 
HETATM   27  C22 UNL     1       1.075  51.795 -28.439  1.00  0.00     0.001 A 
HETATM   28  C23 UNL     1      -0.113  51.880 -27.711  1.00  0.00     0.009 A 
ENDBRANCH  19  23
ENDBRANCH  15  19
ENDBRANCH   1  13
BRANCH   7  29
HETATM   29  O3  UNL     1      -0.202  49.581 -16.149  1.00  0.00    -0.330 OA
BRANCH  29  30
HETATM   30  C9  UNL     1      -0.221  51.005 -16.209  1.00  0.00     0.216 C 
BRANCH  30  31
HETATM   31  C10 UNL     1       1.190  51.493 -15.980  1.00  0.00    -0.034 A 
HETATM   32  C11 UNL     1       1.780  52.403 -16.869  1.00  0.00     0.009 A 
HETATM   33  C12 UNL     1       3.090  52.841 -16.668  1.00  0.00     0.001 A 
HETATM   34  C13 UNL     1       3.825  52.367 -15.583  1.00  0.00     0.000 A 
HETATM   35  C14 UNL     1       3.254  51.451 -14.701  1.00  0.00     0.001 A 
HETATM   36  C15 UNL     1       1.943  51.012 -14.900  1.00  0.00     0.009 A 
ENDBRANCH  30  31
ENDBRANCH  29  30
ENDBRANCH   7  29
TORSDOF 8
ENDMDL
MODEL 2
REMARK minimizedAffinity -8.73472977
REMARK  8 active torsions:
REMARK  status: ('A' for Active; 'I' for Inactive)
REMARK    1  A    between atoms: O1_2  and  C2_3 
REMARK    2  A    between atoms: C2_3  and  C3_4 
REMARK    3  A    between atoms: C3_4  and  N1_5 
REMARK    4  A    between atoms: C3_4  and  C18_28 
REMARK       I    between atoms: N1_5  and  C4_6 
REMARK       I    between atoms: C4_6  and  N2_8 
REMARK    5  A    between atoms: N2_8  and  C5_9 
REMARK    6  A    between atoms: C8_15  and  O3_16 
REMARK    7  A    between atoms: O3_16  and  C9_17 
REMARK    8  A    between atoms: C9_17  and  C10_18 
ROOT
HETATM    1  C5  UNL     1      -2.485  51.248 -27.250  1.00  0.00     0.111 A 
HETATM    2  C6  UNL     1      -1.911  52.488 -27.505  1.00  0.00     0.080 A 
HETATM    3  C7  UNL     1      -0.963  52.907 -26.572  1.00  0.00     0.067 A 
HETATM    4  N3  UNL     1      -0.200  54.041 -26.481  1.00  0.00    -0.298 N 
HETATM    5  N4  UNL     1       0.613  54.071 -25.408  1.00  0.00    -0.279 N 
ATOM      6  H4  UNL     1       1.269  54.801 -25.129  1.00  0.00     0.189 HD
HETATM    7  C8  UNL     1       0.352  52.911 -24.798  1.00  0.00     0.171 A 
HETATM    8  C16 UNL     1      -0.617  52.139 -25.468  1.00  0.00     0.060 A 
HETATM    9  C17 UNL     1      -1.236  50.907 -25.288  1.00  0.00     0.108 A 
HETATM   10  N5  UNL     1      -2.163  50.475 -26.186  1.00  0.00    -0.351 N 
ATOM     11  H5  UNL     1      -2.615  49.569 -26.057  1.00  0.00     0.166 HD
HETATM   12  H10 UNL     1      -0.189  54.830 -27.118  1.00  0.00     0.187 HD
ENDROOT
BRANCH   1  13
HETATM   13  N2  UNL     1      -3.445  50.660 -28.075  1.00  0.00    -0.295 N 
HETATM   14  C4  UNL     1      -3.787  49.340 -28.175  1.00  0.00     0.322 C 
HETATM   15  N1  UNL     1      -4.816  49.165 -29.077  1.00  0.00    -0.332 N 
HETATM   16  O2  UNL     1      -3.267  48.407 -27.578  1.00  0.00    -0.247 OA
HETATM   17  H7  UNL     1      -5.475  49.929 -29.091  1.00  0.00     0.165 HD
HETATM   18  H8  UNL     1      -3.826  51.308 -28.746  1.00  0.00     0.172 HD
BRANCH  15  19
HETATM   19  C3  UNL     1      -5.413  47.843 -29.280  1.00  0.00     0.143 C 
BRANCH  19  20
HETATM   20  C2  UNL     1      -5.520  47.447 -30.772  1.00  0.00     0.197 C 
BRANCH  20  21
HETATM   21  O1  UNL     1      -4.263  46.930 -31.234  1.00  0.00    -0.394 OA
HETATM   22  C1  UNL     1      -4.432  46.079 -32.359  1.00  0.00     0.201 C 
ENDBRANCH  20  21
ENDBRANCH  19  20
BRANCH  19  23
HETATM   23  C18 UNL     1      -6.779  47.808 -28.600  1.00  0.00    -0.033 A 
HETATM   24  C19 UNL     1      -7.948  48.181 -29.286  1.00  0.00     0.009 A 
HETATM   25  C20 UNL     1      -9.188  48.152 -28.645  1.00  0.00     0.001 A 
HETATM   26  C21 UNL     1      -9.276  47.749 -27.315  1.00  0.00     0.000 A 
HETATM   27  C22 UNL     1      -8.127  47.372 -26.624  1.00  0.00     0.001 A 
HETATM   28  C23 UNL     1      -6.886  47.401 -27.262  1.00  0.00     0.009 A 
ENDBRANCH  19  23
ENDBRANCH  15  19
ENDBRANCH   1  13
BRANCH   7  29
HETATM   29  O3  UNL     1       0.981  52.560 -23.656  1.00  0.00    -0.330 OA
BRANCH  29  30
HETATM   30  C9  UNL     1       0.923  53.544 -22.626  1.00  0.00     0.216 C 
BRANCH  30  31
HETATM   31  C10 UNL     1       0.561  52.841 -21.339  1.00  0.00    -0.034 A 
HETATM   32  C11 UNL     1       0.102  51.516 -21.357  1.00  0.00     0.009 A 
HETATM   33  C12 UNL     1      -0.250  50.873 -20.170  1.00  0.00     0.001 A 
HETATM   34  C13 UNL     1      -0.155  51.549 -18.955  1.00  0.00     0.000 A 
HETATM   35  C14 UNL     1       0.286  52.871 -18.925  1.00  0.00     0.001 A 
HETATM   36  C15 UNL     1       0.639  53.517 -20.113  1.00  0.00     0.009 A 
ENDBRANCH  30  31
ENDBRANCH  29  30
ENDBRANCH   7  29
TORSDOF 8
ENDMDL
MODEL 3
REMARK minimizedAffinity -8.51242924
REMARK  8 active torsions:
REMARK  status: ('A' for Active; 'I' for Inactive)
REMARK    1  A    between atoms: O1_2  and  C2_3 
REMARK    2  A    between atoms: C2_3  and  C3_4 
REMARK    3  A    between atoms: C3_4  and  N1_5 
REMARK    4  A    between atoms: C3_4  and  C18_28 
REMARK       I    between atoms: N1_5  and  C4_6 
REMARK       I    between atoms: C4_6  and  N2_8 
REMARK    5  A    between atoms: N2_8  and  C5_9 
REMARK    6  A    between atoms: C8_15  and  O3_16 
REMARK    7  A    between atoms: O3_16  and  C9_17 
REMARK    8  A    between atoms: C9_17  and  C10_18 
ROOT
HETATM    1  C5  UNL     1      -3.155  50.028 -27.089  1.00  0.00     0.111 A 
HETATM    2  C6  UNL     1      -3.085  51.240 -27.766  1.00  0.00     0.080 A 
HETATM    3  C7  UNL     1      -2.057  52.089 -27.356  1.00  0.00     0.067 A 
HETATM    4  N3  UNL     1      -1.675  53.337 -27.772  1.00  0.00    -0.298 N 
HETATM    5  N4  UNL     1      -0.608  53.832 -27.113  1.00  0.00    -0.279 N 
ATOM      6  H4  UNL     1      -0.144  54.731 -27.244  1.00  0.00     0.189 HD
HETATM    7  C8  UNL     1      -0.308  52.859 -26.249  1.00  0.00     0.171 A 
HETATM    8  C16 UNL     1      -1.167  51.747 -26.347  1.00  0.00     0.060 A 
HETATM    9  C17 UNL     1      -1.305  50.512 -25.722  1.00  0.00     0.108 A 
HETATM   10  N5  UNL     1      -2.299  49.664 -26.105  1.00  0.00    -0.351 N 
ATOM     11  H5  UNL     1      -2.399  48.756 -25.651  1.00  0.00     0.166 HD
HETATM   12  H10 UNL     1      -2.099  53.903 -28.498  1.00  0.00     0.187 HD
ENDROOT
BRANCH   1  13
HETATM   13  N2  UNL     1      -4.110  49.048 -27.364  1.00  0.00    -0.295 N 
HETATM   14  C4  UNL     1      -4.614  48.668 -28.578  1.00  0.00     0.322 C 
HETATM   15  N1  UNL     1      -5.512  47.632 -28.436  1.00  0.00    -0.332 N 
HETATM   16  O2  UNL     1      -4.344  49.164 -29.665  1.00  0.00    -0.247 OA
HETATM   17  H7  UNL     1      -5.279  46.994 -27.688  1.00  0.00     0.165 HD
HETATM   18  H8  UNL     1      -4.541  48.684 -26.530  1.00  0.00     0.172 HD
BRANCH  15  19
HETATM   19  C3  UNL     1      -6.110  46.996 -29.612  1.00  0.00     0.143 C 
BRANCH  19  20
HETATM   20  C2  UNL     1      -5.299  47.233 -30.909  1.00  0.00     0.197 C 
BRANCH  20  21
HETATM   21  O1  UNL     1      -5.659  46.257 -31.898  1.00  0.00    -0.394 OA
HETATM   22  C1  UNL     1      -4.610  45.324 -32.115  1.00  0.00     0.201 C 
ENDBRANCH  20  21
ENDBRANCH  19  20
BRANCH  19  23
HETATM   23  C18 UNL     1      -7.547  47.487 -29.761  1.00  0.00    -0.033 A 
HETATM   24  C19 UNL     1      -8.616  46.827 -29.131  1.00  0.00     0.009 A 
HETATM   25  C20 UNL     1      -9.926  47.284 -29.287  1.00  0.00     0.001 A 
HETATM   26  C21 UNL     1     -10.184  48.406 -30.070  1.00  0.00     0.000 A 
HETATM   27  C22 UNL     1      -9.135  49.074 -30.697  1.00  0.00     0.001 A 
HETATM   28  C23 UNL     1      -7.824  48.618 -30.543  1.00  0.00     0.009 A 
ENDBRANCH  19  23
ENDBRANCH  15  19
ENDBRANCH   1  13
BRANCH   7  29
HETATM   29  O3  UNL     1       0.726  52.977 -25.388  1.00  0.00    -0.330 OA
BRANCH  29  30
HETATM   30  C9  UNL     1       0.616  54.073 -24.484  1.00  0.00     0.216 C 
BRANCH  30  31
HETATM   31  C10 UNL     1       0.741  53.527 -23.082  1.00  0.00    -0.034 A 
HETATM   32  C11 UNL     1       0.243  52.254 -22.768  1.00  0.00     0.009 A 
HETATM   33  C12 UNL     1       0.342  51.756 -21.468  1.00  0.00     0.001 A 
HETATM   34  C13 UNL     1       0.932  52.527 -20.468  1.00  0.00     0.000 A 
HETATM   35  C14 UNL     1       1.418  53.800 -20.765  1.00  0.00     0.001 A 
HETATM   36  C15 UNL     1       1.319  54.300 -22.065  1.00  0.00     0.009 A 
ENDBRANCH  30  31
ENDBRANCH  29  30
ENDBRANCH   7  29
TORSDOF 8
ENDMDL
MODEL 4
REMARK minimizedAffinity -8.4986124
REMARK  8 active torsions:
REMARK  status: ('A' for Active; 'I' for Inactive)
REMARK    1  A    between atoms: O1_2  and  C2_3 
REMARK    2  A    between atoms: C2_3  and  C3_4 
REMARK    3  A    between atoms: C3_4  and  N1_5 
REMARK    4  A    between atoms: C3_4  and  C18_28 
REMARK       I    between atoms: N1_5  and  C4_6 
REMARK       I    between atoms: C4_6  and  N2_8 
REMARK    5  A    between atoms: N2_8  and  C5_9 
REMARK    6  A    between atoms: C8_15  and  O3_16 
REMARK    7  A    between atoms: O3_16  and  C9_17 
REMARK    8  A    between atoms: C9_17  and  C10_18 
ROOT
HETATM    1  C5  UNL     1      -3.892  48.914 -27.480  1.00  0.00     0.111 A 
HETATM    2  C6  UNL     1      -3.361  50.064 -28.052  1.00  0.00     0.080 A 
HETATM    3  C7  UNL     1      -2.440  50.749 -27.261  1.00  0.00     0.067 A 
HETATM    4  N3  UNL     1      -1.720  51.895 -27.472  1.00  0.00    -0.298 N 
HETATM    5  N4  UNL     1      -0.920  52.238 -26.443  1.00  0.00    -0.279 N 
ATOM      6  H4  UNL     1      -0.294  53.040 -26.366  1.00  0.00     0.189 HD
HETATM    7  C8  UNL     1      -1.145  51.271 -25.549  1.00  0.00     0.171 A 
HETATM    8  C16 UNL     1      -2.078  50.314 -25.994  1.00  0.00     0.060 A 
HETATM    9  C17 UNL     1      -2.654  49.150 -25.495  1.00  0.00     0.108 A 
HETATM   10  N5  UNL     1      -3.555  48.461 -26.249  1.00  0.00    -0.351 N 
ATOM     11  H5  UNL     1      -3.975  47.605 -25.886  1.00  0.00     0.166 HD
HETATM   12  H10 UNL     1      -1.729  52.489 -28.294  1.00  0.00     0.187 HD
ENDROOT
BRANCH   1  13
HETATM   13  N2  UNL     1      -4.821  48.094 -28.122  1.00  0.00    -0.295 N 
HETATM   14  C4  UNL     1      -5.190  48.094 -29.439  1.00  0.00     0.322 C 
HETATM   15  N1  UNL     1      -6.110  47.099 -29.693  1.00  0.00    -0.332 N 
HETATM   16  O2  UNL     1      -4.794  48.865 -30.304  1.00  0.00    -0.247 OA
HETATM   17  H7  UNL     1      -5.969  46.268 -29.139  1.00  0.00     0.165 HD
HETATM   18  H8  UNL     1      -5.347  47.527 -27.475  1.00  0.00     0.172 HD
BRANCH  15  19
HETATM   19  C3  UNL     1      -6.579  46.849 -31.058  1.00  0.00     0.143 C 
BRANCH  19  20
HETATM   20  C2  UNL     1      -8.113  46.996 -31.209  1.00  0.00     0.197 C 
BRANCH  20  21
HETATM   21  O1  UNL     1      -8.423  48.214 -31.902  1.00  0.00    -0.394 OA
HETATM   22  C1  UNL     1      -8.563  49.304 -31.001  1.00  0.00     0.201 C 
ENDBRANCH  20  21
ENDBRANCH  19  20
BRANCH  19  23
HETATM   23  C18 UNL     1      -6.111  45.464 -31.495  1.00  0.00    -0.033 A 
HETATM   24  C19 UNL     1      -4.938  45.291 -32.248  1.00  0.00     0.009 A 
HETATM   25  C20 UNL     1      -4.529  44.017 -32.648  1.00  0.00     0.001 A 
HETATM   26  C21 UNL     1      -5.285  42.902 -32.297  1.00  0.00     0.000 A 
HETATM   27  C22 UNL     1      -6.447  43.056 -31.546  1.00  0.00     0.001 A 
HETATM   28  C23 UNL     1      -6.858  44.329 -31.146  1.00  0.00     0.009 A 
ENDBRANCH  19  23
ENDBRANCH  15  19
ENDBRANCH   1  13
BRANCH   7  29
HETATM   29  O3  UNL     1      -0.517  51.257 -24.354  1.00  0.00    -0.330 OA
BRANCH  29  30
HETATM   30  C9  UNL     1       0.374  52.350 -24.146  1.00  0.00     0.216 C 
BRANCH  30  31
HETATM   31  C10 UNL     1       0.436  52.616 -22.660  1.00  0.00    -0.034 A 
HETATM   32  C11 UNL     1       1.110  53.742 -22.167  1.00  0.00     0.009 A 
HETATM   33  C12 UNL     1       1.183  53.978 -20.793  1.00  0.00     0.001 A 
HETATM   34  C13 UNL     1       0.592  53.087 -19.900  1.00  0.00     0.000 A 
HETATM   35  C14 UNL     1      -0.069  51.956 -20.377  1.00  0.00     0.001 A 
HETATM   36  C15 UNL     1      -0.143  51.718 -21.752  1.00  0.00     0.009 A 
ENDBRANCH  30  31
ENDBRANCH  29  30
ENDBRANCH   7  29
TORSDOF 8
ENDMDL
MODEL 5
REMARK minimizedAffinity -8.45213413
REMARK  8 active torsions:
REMARK  status: ('A' for Active; 'I' for Inactive)
REMARK    1  A    between atoms: O1_2  and  C2_3 
REMARK    2  A    between atoms: C2_3  and  C3_4 
REMARK    3  A    between atoms: C3_4  and  N1_5 
REMARK    4  A    between atoms: C3_4  and  C18_28 
REMARK       I    between atoms: N1_5  and  C4_6 
REMARK       I    between atoms: C4_6  and  N2_8 
REMARK    5  A    between atoms: N2_8  and  C5_9 
REMARK    6  A    between atoms: C8_15  and  O3_16 
REMARK    7  A    between atoms: O3_16  and  C9_17 
REMARK    8  A    between atoms: C9_17  and  C10_18 
ROOT
HETATM    1  C5  UNL     1      -0.077  52.384 -21.872  1.00  0.00     0.111 A 
HETATM    2  C6  UNL     1       0.596  53.300 -22.672  1.00  0.00     0.080 A 
HETATM    3  C7  UNL     1       0.511  53.063 -24.044  1.00  0.00     0.067 A 
HETATM    4  N3  UNL     1       1.029  53.725 -25.125  1.00  0.00    -0.298 N 
HETATM    5  N4  UNL     1       0.714  53.170 -26.312  1.00  0.00    -0.279 N 
ATOM      6  H4  UNL     1       0.979  53.480 -27.247  1.00  0.00     0.189 HD
HETATM    7  C8  UNL     1      -0.030  52.116 -25.965  1.00  0.00     0.171 A 
HETATM    8  C16 UNL     1      -0.196  51.991 -24.572  1.00  0.00     0.060 A 
HETATM    9  C17 UNL     1      -0.846  51.123 -23.700  1.00  0.00     0.108 A 
HETATM   10  N5  UNL     1      -0.780  51.333 -22.357  1.00  0.00    -0.351 N 
ATOM     11  H5  UNL     1      -1.260  50.700 -21.717  1.00  0.00     0.166 HD
HETATM   12  H10 UNL     1       1.604  54.560 -25.121  1.00  0.00     0.187 HD
ENDROOT
BRANCH   1  13
HETATM   13  N2  UNL     1      -0.113  52.461 -20.479  1.00  0.00    -0.295 N 
HETATM   14  C4  UNL     1      -0.078  51.440 -19.569  1.00  0.00     0.322 C 
HETATM   15  N1  UNL     1      -0.091  51.929 -18.279  1.00  0.00    -0.332 N 
HETATM   16  O2  UNL     1      -0.056  50.243 -19.821  1.00  0.00    -0.247 OA
HETATM   17  H7  UNL     1       0.400  52.805 -18.175  1.00  0.00     0.165 HD
HETATM   18  H8  UNL     1      -0.308  53.393 -20.149  1.00  0.00     0.172 HD
BRANCH  15  19
HETATM   19  C3  UNL     1       0.035  51.022 -17.137  1.00  0.00     0.143 C 
BRANCH  19  20
HETATM   20  C2  UNL     1      -1.213  51.021 -16.221  1.00  0.00     0.197 C 
BRANCH  20  21
HETATM   21  O1  UNL     1      -2.139  50.014 -16.654  1.00  0.00    -0.394 OA
HETATM   22  C1  UNL     1      -1.494  48.763 -16.850  1.00  0.00     0.201 C 
ENDBRANCH  20  21
ENDBRANCH  19  20
BRANCH  19  23
HETATM   23  C18 UNL     1       1.295  51.384 -16.355  1.00  0.00    -0.033 A 
HETATM   24  C19 UNL     1       2.211  52.332 -16.841  1.00  0.00     0.009 A 
HETATM   25  C20 UNL     1       3.363  52.645 -16.116  1.00  0.00     0.001 A 
HETATM   26  C21 UNL     1       3.611  52.018 -14.898  1.00  0.00     0.000 A 
HETATM   27  C22 UNL     1       2.709  51.080 -14.400  1.00  0.00     0.001 A 
HETATM   28  C23 UNL     1       1.557  50.765 -15.124  1.00  0.00     0.009 A 
ENDBRANCH  19  23
ENDBRANCH  15  19
ENDBRANCH   1  13
BRANCH   7  29
HETATM   29  O3  UNL     1      -0.548  51.284 -26.894  1.00  0.00    -0.330 OA
BRANCH  29  30
HETATM   30  C9  UNL     1      -1.856  51.639 -27.335  1.00  0.00     0.216 C 
BRANCH  30  31
HETATM   31  C10 UNL     1      -2.731  50.413 -27.210  1.00  0.00    -0.034 A 
HETATM   32  C11 UNL     1      -2.707  49.639 -26.041  1.00  0.00     0.009 A 
HETATM   33  C12 UNL     1      -3.501  48.497 -25.931  1.00  0.00     0.001 A 
HETATM   34  C13 UNL     1      -4.320  48.112 -26.992  1.00  0.00     0.000 A 
HETATM   35  C14 UNL     1      -4.342  48.866 -28.164  1.00  0.00     0.001 A 
HETATM   36  C15 UNL     1      -3.547  50.009 -28.275  1.00  0.00     0.009 A 
ENDBRANCH  30  31
ENDBRANCH  29  30
ENDBRANCH   7  29
TORSDOF 8
ENDMDL
MODEL 6
REMARK minimizedAffinity -8.44762516
REMARK  8 active torsions:
REMARK  status: ('A' for Active; 'I' for Inactive)
REMARK    1  A    between atoms: O1_2  and  C2_3 
REMARK    2  A    between atoms: C2_3  and  C3_4 
REMARK    3  A    between atoms: C3_4  and  N1_5 
REMARK    4  A    between atoms: C3_4  and  C18_28 
REMARK       I    between atoms: N1_5  and  C4_6 
REMARK       I    between atoms: C4_6  and  N2_8 
REMARK    5  A    between atoms: N2_8  and  C5_9 
REMARK    6  A    between atoms: C8_15  and  O3_16 
REMARK    7  A    between atoms: O3_16  and  C9_17 
REMARK    8  A    between atoms: C9_17  and  C10_18 
ROOT
HETATM    1  C5  UNL     1      -3.241  48.747 -24.621  1.00  0.00     0.111 A 
HETATM    2  C6  UNL     1      -4.604  48.493 -24.519  1.00  0.00     0.080 A 
HETATM    3  C7  UNL     1      -5.256  48.262 -25.730  1.00  0.00     0.067 A 
HETATM    4  N3  UNL     1      -6.563  47.985 -26.033  1.00  0.00    -0.298 N 
HETATM    5  N4  UNL     1      -6.800  47.823 -27.349  1.00  0.00    -0.279 N 
ATOM      6  H4  UNL     1      -7.683  47.611 -27.814  1.00  0.00     0.189 HD
HETATM    7  C8  UNL     1      -5.596  48.006 -27.898  1.00  0.00     0.171 A 
HETATM    8  C16 UNL     1      -4.591  48.282 -26.949  1.00  0.00     0.060 A 
HETATM    9  C17 UNL     1      -3.224  48.540 -26.962  1.00  0.00     0.108 A 
HETATM   10  N5  UNL     1      -2.565  48.767 -25.794  1.00  0.00    -0.351 N 
ATOM     11  H5  UNL     1      -1.561  48.953 -25.802  1.00  0.00     0.166 HD
HETATM   12  H10 UNL     1      -7.340  47.893 -25.388  1.00  0.00     0.187 HD
ENDROOT
BRANCH   1  13
HETATM   13  N2  UNL     1      -2.421  48.993 -23.519  1.00  0.00    -0.295 N 
HETATM   14  C4  UNL     1      -2.502  50.011 -22.609  1.00  0.00     0.322 C 
HETATM   15  N1  UNL     1      -1.530  49.883 -21.639  1.00  0.00    -0.332 N 
HETATM   16  O2  UNL     1      -3.301  50.939 -22.625  1.00  0.00    -0.247 OA
HETATM   17  H7  UNL     1      -1.314  48.925 -21.407  1.00  0.00     0.165 HD
HETATM   18  H8  UNL     1      -1.613  48.392 -23.498  1.00  0.00     0.172 HD
BRANCH  15  19
HETATM   19  C3  UNL     1      -1.481  50.808 -20.505  1.00  0.00     0.143 C 
BRANCH  19  20
HETATM   20  C2  UNL     1      -2.866  51.400 -20.144  1.00  0.00     0.197 C 
BRANCH  20  21
HETATM   21  O1  UNL     1      -2.876  51.822 -18.772  1.00  0.00    -0.394 OA
HETATM   22  C1  UNL     1      -2.959  50.714 -17.886  1.00  0.00     0.201 C 
ENDBRANCH  20  21
ENDBRANCH  19  20
BRANCH  19  23
HETATM   23  C18 UNL     1      -0.472  51.911 -20.810  1.00  0.00    -0.033 A 
HETATM   24  C19 UNL     1       0.101  52.683 -19.785  1.00  0.00     0.009 A 
HETATM   25  C20 UNL     1       1.016  53.695 -20.083  1.00  0.00     0.001 A 
HETATM   26  C21 UNL     1       1.371  53.946 -21.405  1.00  0.00     0.000 A 
HETATM   27  C22 UNL     1       0.816  53.185 -22.432  1.00  0.00     0.001 A 
HETATM   28  C23 UNL     1      -0.100  52.174 -22.137  1.00  0.00     0.009 A 
ENDBRANCH  19  23
ENDBRANCH  15  19
ENDBRANCH   1  13
BRANCH   7  29
HETATM   29  O3  UNL     1      -5.411  47.925 -29.233  1.00  0.00    -0.330 OA
BRANCH  29  30
HETATM   30  C9  UNL     1      -6.452  47.246 -29.930  1.00  0.00     0.216 C 
BRANCH  30  31
HETATM   31  C10 UNL     1      -6.219  47.442 -31.409  1.00  0.00    -0.034 A 
HETATM   32  C11 UNL     1      -7.302  47.507 -32.297  1.00  0.00     0.009 A 
HETATM   33  C12 UNL     1      -7.086  47.670 -33.667  1.00  0.00     0.001 A 
HETATM   34  C13 UNL     1      -5.786  47.761 -34.162  1.00  0.00     0.000 A 
HETATM   35  C14 UNL     1      -4.701  47.684 -33.291  1.00  0.00     0.001 A 
HETATM   36  C15 UNL     1      -4.915  47.521 -31.920  1.00  0.00     0.009 A 
ENDBRANCH  30  31
ENDBRANCH  29  30
ENDBRANCH   7  29
TORSDOF 8
ENDMDL
MODEL 7
REMARK minimizedAffinity -8.43589783
REMARK  8 active torsions:
REMARK  status: ('A' for Active; 'I' for Inactive)
REMARK    1  A    between atoms: O1_2  and  C2_3 
REMARK    2  A    between atoms: C2_3  and  C3_4 
REMARK    3  A    between atoms: C3_4  and  N1_5 
REMARK    4  A    between atoms: C3_4  and  C18_28 
REMARK       I    between atoms: N1_5  and  C4_6 
REMARK       I    between atoms: C4_6  and  N2_8 
REMARK    5  A    between atoms: N2_8  and  C5_9 
REMARK    6  A    between atoms: C8_15  and  O3_16 
REMARK    7  A    between atoms: O3_16  and  C9_17 
REMARK    8  A    between atoms: C9_17  and  C10_18 
ROOT
HETATM    1  C5  UNL     1       0.690  52.898 -19.953  1.00  0.00     0.111 A 
HETATM    2  C6  UNL     1       1.268  53.903 -20.721  1.00  0.00     0.080 A 
HETATM    3  C7  UNL     1       1.059  53.794 -22.095  1.00  0.00     0.067 A 
HETATM    4  N3  UNL     1       1.460  54.570 -23.151  1.00  0.00    -0.298 N 
HETATM    5  N4  UNL     1       1.046  54.121 -24.351  1.00  0.00    -0.279 N 
ATOM      6  H4  UNL     1       1.216  54.524 -25.273  1.00  0.00     0.189 HD
HETATM    7  C8  UNL     1       0.359  53.018 -24.041  1.00  0.00     0.171 A 
HETATM    8  C16 UNL     1       0.327  52.757 -22.657  1.00  0.00     0.060 A 
HETATM    9  C17 UNL     1      -0.221  51.793 -21.817  1.00  0.00     0.108 A 
HETATM   10  N5  UNL     1      -0.034  51.878 -20.472  1.00  0.00    -0.351 N 
ATOM     11  H5  UNL     1      -0.439  51.174 -19.854  1.00  0.00     0.166 HD
HETATM   12  H10 UNL     1       2.017  55.417 -23.118  1.00  0.00     0.187 HD
ENDROOT
BRANCH   1  13
HETATM   13  N2  UNL     1       0.784  52.843 -18.562  1.00  0.00    -0.295 N 
HETATM   14  C4  UNL     1       0.435  51.818 -17.726  1.00  0.00     0.322 C 
HETATM   15  N1  UNL     1       0.721  52.133 -16.414  1.00  0.00    -0.332 N 
HETATM   16  O2  UNL     1      -0.078  50.755 -18.054  1.00  0.00    -0.247 OA
HETATM   17  H7  UNL     1       1.547  52.703 -16.307  1.00  0.00     0.165 HD
HETATM   18  H8  UNL     1       1.033  53.731 -18.157  1.00  0.00     0.172 HD
BRANCH  15  19
HETATM   19  C3  UNL     1       0.519  51.148 -15.350  1.00  0.00     0.143 C 
BRANCH  19  20
HETATM   20  C2  UNL     1      -0.397  51.663 -14.212  1.00  0.00     0.197 C 
BRANCH  20  21
HETATM   21  O1  UNL     1       0.217  52.782 -13.556  1.00  0.00    -0.394 OA
HETATM   22  C1  UNL     1      -0.178  52.869 -12.194  1.00  0.00     0.201 C 
ENDBRANCH  20  21
ENDBRANCH  19  20
BRANCH  19  23
HETATM   23  C18 UNL     1       1.880  50.717 -14.811  1.00  0.00    -0.033 A 
HETATM   24  C19 UNL     1       2.019  49.575 -14.004  1.00  0.00     0.009 A 
HETATM   25  C20 UNL     1       3.271  49.200 -13.512  1.00  0.00     0.001 A 
HETATM   26  C21 UNL     1       4.397  49.958 -13.822  1.00  0.00     0.000 A 
HETATM   27  C22 UNL     1       4.276  51.089 -14.625  1.00  0.00     0.001 A 
HETATM   28  C23 UNL     1       3.025  51.467 -15.118  1.00  0.00     0.009 A 
ENDBRANCH  19  23
ENDBRANCH  15  19
ENDBRANCH   1  13
BRANCH   7  29
HETATM   29  O3  UNL     1      -0.228  52.263 -24.994  1.00  0.00    -0.330 OA
BRANCH  29  30
HETATM   30  C9  UNL     1      -0.876  51.093 -24.501  1.00  0.00     0.216 C 
BRANCH  30  31
HETATM   31  C10 UNL     1      -1.791  50.581 -25.588  1.00  0.00    -0.034 A 
HETATM   32  C11 UNL     1      -2.309  49.280 -25.527  1.00  0.00     0.009 A 
HETATM   33  C12 UNL     1      -3.140  48.800 -26.541  1.00  0.00     0.001 A 
HETATM   34  C13 UNL     1      -3.454  49.613 -27.629  1.00  0.00     0.000 A 
HETATM   35  C14 UNL     1      -2.933  50.904 -27.708  1.00  0.00     0.001 A 
HETATM   36  C15 UNL     1      -2.101  51.385 -26.694  1.00  0.00     0.009 A 
ENDBRANCH  30  31
ENDBRANCH  29  30
ENDBRANCH   7  29
TORSDOF 8
ENDMDL
MODEL 8
REMARK minimizedAffinity -8.43142509
REMARK  8 active torsions:
REMARK  status: ('A' for Active; 'I' for Inactive)
REMARK    1  A    between atoms: O1_2  and  C2_3 
REMARK    2  A    between atoms: C2_3  and  C3_4 
REMARK    3  A    between atoms: C3_4  and  N1_5 
REMARK    4  A    between atoms: C3_4  and  C18_28 
REMARK       I    between atoms: N1_5  and  C4_6 
REMARK       I    between atoms: C4_6  and  N2_8 
REMARK    5  A    between atoms: N2_8  and  C5_9 
REMARK    6  A    between atoms: C8_15  and  O3_16 
REMARK    7  A    between atoms: O3_16  and  C9_17 
REMARK    8  A    between atoms: C9_17  and  C10_18 
ROOT
HETATM    1  C5  UNL     1      -4.117  49.119 -25.910  1.00  0.00     0.111 A 
HETATM    2  C6  UNL     1      -3.641  48.539 -24.740  1.00  0.00     0.080 A 
HETATM    3  C7  UNL     1      -2.748  49.322 -24.010  1.00  0.00     0.067 A 
HETATM    4  N3  UNL     1      -2.080  49.101 -22.835  1.00  0.00    -0.298 N 
HETATM    5  N4  UNL     1      -1.293  50.125 -22.450  1.00  0.00    -0.279 N 
ATOM      6  H4  UNL     1      -0.704  50.195 -21.619  1.00  0.00     0.189 HD
HETATM    7  C8  UNL     1      -1.471  51.025 -23.421  1.00  0.00     0.171 A 
HETATM    8  C16 UNL     1      -2.363  50.591 -24.421  1.00  0.00     0.060 A 
HETATM    9  C17 UNL     1      -2.889  51.100 -25.604  1.00  0.00     0.108 A 
HETATM   10  N5  UNL     1      -3.764  50.356 -26.334  1.00  0.00    -0.351 N 
ATOM     11  H5  UNL     1      -4.154  50.731 -27.199  1.00  0.00     0.166 HD
HETATM   12  H10 UNL     1      -2.118  48.275 -22.249  1.00  0.00     0.187 HD
ENDROOT
BRANCH   1  13
HETATM   13  N2  UNL     1      -5.023  48.492 -26.767  1.00  0.00    -0.295 N 
HETATM   14  C4  UNL     1      -4.983  48.404 -28.131  1.00  0.00     0.322 C 
HETATM   15  N1  UNL     1      -6.043  47.663 -28.608  1.00  0.00    -0.332 N 
HETATM   16  O2  UNL     1      -4.148  48.913 -28.868  1.00  0.00    -0.247 OA
HETATM   17  H7  UNL     1      -6.319  46.910 -27.995  1.00  0.00     0.165 HD
HETATM   18  H8  UNL     1      -5.854  48.182 -26.289  1.00  0.00     0.172 HD
BRANCH  15  19
HETATM   19  C3  UNL     1      -6.156  47.356 -30.036  1.00  0.00     0.143 C 
BRANCH  19  20
HETATM   20  C2  UNL     1      -5.324  48.307 -30.930  1.00  0.00     0.197 C 
BRANCH  20  21
HETATM   21  O1  UNL     1      -4.505  47.545 -31.828  1.00  0.00    -0.394 OA
HETATM   22  C1  UNL     1      -4.750  47.897 -33.183  1.00  0.00     0.201 C 
ENDBRANCH  20  21
ENDBRANCH  19  20
BRANCH  19  23
HETATM   23  C18 UNL     1      -7.630  47.374 -30.430  1.00  0.00    -0.033 A 
HETATM   24  C19 UNL     1      -8.576  48.105 -29.692  1.00  0.00     0.009 A 
HETATM   25  C20 UNL     1      -9.923  48.103 -30.062  1.00  0.00     0.001 A 
HETATM   26  C21 UNL     1     -10.339  47.375 -31.174  1.00  0.00     0.000 A 
HETATM   27  C22 UNL     1      -9.411  46.650 -31.919  1.00  0.00     0.001 A 
HETATM   28  C23 UNL     1      -8.065  46.649 -31.550  1.00  0.00     0.009 A 
ENDBRANCH  19  23
ENDBRANCH  15  19
ENDBRANCH   1  13
BRANCH   7  29
HETATM   29  O3  UNL     1      -0.837  52.217 -23.401  1.00  0.00    -0.330 OA
BRANCH  29  30
HETATM   30  C9  UNL     1       0.509  52.175 -23.867  1.00  0.00     0.216 C 
BRANCH  30  31
HETATM   31  C10 UNL     1       0.482  52.353 -25.367  1.00  0.00    -0.034 A 
HETATM   32  C11 UNL     1      -0.017  53.535 -25.933  1.00  0.00     0.009 A 
HETATM   33  C12 UNL     1      -0.060  53.692 -27.320  1.00  0.00     0.001 A 
HETATM   34  C13 UNL     1       0.387  52.668 -28.152  1.00  0.00     0.000 A 
HETATM   35  C14 UNL     1       0.873  51.483 -27.601  1.00  0.00     0.001 A 
HETATM   36  C15 UNL     1       0.916  51.324 -26.214  1.00  0.00     0.009 A 
ENDBRANCH  30  31
ENDBRANCH  29  30
ENDBRANCH   7  29
TORSDOF 8
ENDMDL
MODEL 9
REMARK minimizedAffinity -8.40535355
REMARK  8 active torsions:
REMARK  status: ('A' for Active; 'I' for Inactive)
REMARK    1  A    between atoms: O1_2  and  C2_3 
REMARK    2  A    between atoms: C2_3  and  C3_4 
REMARK    3  A    between atoms: C3_4  and  N1_5 
REMARK    4  A    between atoms: C3_4  and  C18_28 
REMARK       I    between atoms: N1_5  and  C4_6 
REMARK       I    between atoms: C4_6  and  N2_8 
REMARK    5  A    between atoms: N2_8  and  C5_9 
REMARK    6  A    between atoms: C8_15  and  O3_16 
REMARK    7  A    between atoms: O3_16  and  C9_17 
REMARK    8  A    between atoms: C9_17  and  C10_18 
ROOT
HETATM    1  C5  UNL     1      -1.389  50.437 -22.160  1.00  0.00     0.111 A 
HETATM    2  C6  UNL     1      -0.728  51.474 -22.808  1.00  0.00     0.080 A 
HETATM    3  C7  UNL     1       0.083  52.262 -21.992  1.00  0.00     0.067 A 
HETATM    4  N3  UNL     1       0.873  53.349 -22.257  1.00  0.00    -0.298 N 
HETATM    5  N4  UNL     1       1.513  53.839 -21.177  1.00  0.00    -0.279 N 
ATOM      6  H4  UNL     1       2.151  54.634 -21.123  1.00  0.00     0.189 HD
HETATM    7  C8  UNL     1       1.110  53.029 -20.194  1.00  0.00     0.171 A 
HETATM    8  C16 UNL     1       0.222  52.027 -20.631  1.00  0.00     0.060 A 
HETATM    9  C17 UNL     1      -0.473  50.965 -20.061  1.00  0.00     0.108 A 
HETATM   10  N5  UNL     1      -1.269  50.180 -20.836  1.00  0.00    -0.351 N 
ATOM     11  H5  UNL     1      -1.776  49.398 -20.419  1.00  0.00     0.166 HD
HETATM   12  H10 UNL     1       1.018  53.805 -23.151  1.00  0.00     0.187 HD
ENDROOT
BRANCH   1  13
HETATM   13  N2  UNL     1      -2.237  49.540 -22.811  1.00  0.00    -0.295 N 
HETATM   14  C4  UNL     1      -3.597  49.598 -22.942  1.00  0.00     0.322 C 
HETATM   15  N1  UNL     1      -4.064  48.541 -23.695  1.00  0.00    -0.332 N 
HETATM   16  O2  UNL     1      -4.339  50.445 -22.461  1.00  0.00    -0.247 OA
HETATM   17  H7  UNL     1      -3.431  48.254 -24.426  1.00  0.00     0.165 HD
HETATM   18  H8  UNL     1      -1.761  48.701 -23.102  1.00  0.00     0.172 HD
BRANCH  15  19
HETATM   19  C3  UNL     1      -5.482  48.446 -24.047  1.00  0.00     0.143 C 
BRANCH  19  20
HETATM   20  C2  UNL     1      -6.243  47.378 -23.224  1.00  0.00     0.197 C 
BRANCH  20  21
HETATM   21  O1  UNL     1      -5.626  47.217 -21.939  1.00  0.00    -0.394 OA
HETATM   22  C1  UNL     1      -5.572  45.851 -21.553  1.00  0.00     0.201 C 
ENDBRANCH  20  21
ENDBRANCH  19  20
BRANCH  19  23
HETATM   23  C18 UNL     1      -5.602  48.177 -25.545  1.00  0.00    -0.033 A 
HETATM   24  C19 UNL     1      -4.538  48.441 -26.424  1.00  0.00     0.009 A 
HETATM   25  C20 UNL     1      -4.668  48.198 -27.792  1.00  0.00     0.001 A 
HETATM   26  C21 UNL     1      -5.860  47.688 -28.299  1.00  0.00     0.000 A 
HETATM   27  C22 UNL     1      -6.923  47.416 -27.440  1.00  0.00     0.001 A 
HETATM   28  C23 UNL     1      -6.795  47.659 -26.071  1.00  0.00     0.009 A 
ENDBRANCH  19  23
ENDBRANCH  15  19
ENDBRANCH   1  13
BRANCH   7  29
HETATM   29  O3  UNL     1       1.540  53.195 -18.924  1.00  0.00    -0.330 OA
BRANCH  29  30
HETATM   30  C9  UNL     1       0.803  52.456 -17.953  1.00  0.00     0.216 C 
BRANCH  30  31
HETATM   31  C10 UNL     1       1.740  52.137 -16.812  1.00  0.00    -0.034 A 
HETATM   32  C11 UNL     1       1.340  51.269 -15.786  1.00  0.00     0.009 A 
HETATM   33  C12 UNL     1       2.198  50.988 -14.721  1.00  0.00     0.001 A 
HETATM   34  C13 UNL     1       3.459  51.578 -14.668  1.00  0.00     0.000 A 
HETATM   35  C14 UNL     1       3.863  52.454 -15.674  1.00  0.00     0.001 A 
HETATM   36  C15 UNL     1       3.005  52.736 -16.740  1.00  0.00     0.009 A 
ENDBRANCH  30  31
ENDBRANCH  29  30
ENDBRANCH   7  29
TORSDOF 8
ENDMDL
