MODEL 1
REMARK minimizedAffinity -7.79506922
REMARK  7 active torsions:
REMARK  status: ('A' for Active; 'I' for Inactive)
REMARK    1  A    between atoms: O1_2  and  C2_3 
REMARK    2  A    between atoms: C2_3  and  C3_4 
REMARK    3  A    between atoms: C3_4  and  O2_5 
REMARK    4  A    between atoms: O2_5  and  C4_6 
REMARK    5  A    between atoms: C7_12  and  N3_13 
REMARK       I    between atoms: N3_13  and  C8_14 
REMARK       I    between atoms: C8_14  and  N4_16 
REMARK    6  A    between atoms: N4_16  and  C9_17 
REMARK    7  A    between atoms: C9_17  and  C10_18 
ROOT
HETATM    1  C4  UNL     1      -0.345  53.396 -25.809  1.00  0.00     0.171 A 
HETATM    2  N1  UNL     1       0.518  54.395 -25.619  1.00  0.00    -0.279 N 
ATOM      3  H1  UNL     1       0.776  55.137 -26.270  1.00  0.00     0.189 HD
HETATM    4  N2  UNL     1       0.965  54.194 -24.372  1.00  0.00    -0.298 N 
HETATM    5  C5  UNL     1       0.422  53.101 -23.754  1.00  0.00     0.067 A 
HETATM    6  C6  UNL     1       0.626  52.567 -22.480  1.00  0.00     0.080 A 
HETATM    7  C7  UNL     1      -0.116  51.432 -22.188  1.00  0.00     0.111 A 
HETATM    8  N5  UNL     1      -0.976  50.859 -23.060  1.00  0.00    -0.351 N 
ATOM      9  H5  UNL     1      -1.492  50.022 -22.790  1.00  0.00     0.166 HD
HETATM   10  C16 UNL     1      -1.155  51.397 -24.296  1.00  0.00     0.108 A 
HETATM   11  C17 UNL     1      -0.456  52.543 -24.679  1.00  0.00     0.060 A 
HETATM   12  H8  UNL     1       1.647  54.843 -23.995  1.00  0.00     0.187 HD
ENDROOT
BRANCH   7  13
HETATM   13  N3  UNL     1      -0.046  50.754 -20.971  1.00  0.00    -0.295 N 
HETATM   14  C8  UNL     1      -0.748  50.993 -19.821  1.00  0.00     0.322 C 
HETATM   15  O3  UNL     1      -1.613  51.845 -19.664  1.00  0.00    -0.247 OA
HETATM   16  N4  UNL     1      -0.374  50.124 -18.819  1.00  0.00    -0.339 N 
HETATM   17  H11 UNL     1       0.551  49.728 -18.888  1.00  0.00     0.164 HD
HETATM   18  H10 UNL     1       0.533  49.931 -21.024  1.00  0.00     0.172 HD
BRANCH  16  19
HETATM   19  C9  UNL     1      -0.932  50.230 -17.490  1.00  0.00     0.162 C 
BRANCH  19  20
HETATM   20  C10 UNL     1       0.138  50.538 -16.473  1.00  0.00    -0.039 A 
HETATM   21  C11 UNL     1       0.104  49.940 -15.206  1.00  0.00     0.010 A 
HETATM   22  C12 UNL     1       1.082  50.240 -14.253  1.00  0.00     0.026 A 
HETATM   23  C13 UNL     1       2.101  51.147 -14.552  1.00  0.00     0.055 A 
HETATM   24 CL1  UNL     1       3.274  51.472 -13.327  1.00  0.00    -0.083 Cl
HETATM   25  C14 UNL     1       2.139  51.757 -15.810  1.00  0.00     0.056 A 
HETATM   26 CL2  UNL     1       3.362  52.895 -16.251  1.00  0.00    -0.083 Cl
HETATM   27  C15 UNL     1       1.159  51.455 -16.764  1.00  0.00     0.034 A 
ENDBRANCH  19  20
ENDBRANCH  16  19
ENDBRANCH   7  13
BRANCH   1  28
HETATM   28  O2  UNL     1      -0.922  53.416 -27.029  1.00  0.00    -0.332 OA
BRANCH  28  29
HETATM   29  C3  UNL     1      -0.043  53.235 -28.133  1.00  0.00     0.203 C 
BRANCH  29  30
HETATM   30  C2  UNL     1       0.549  51.824 -28.069  1.00  0.00     0.193 C 
BRANCH  30  31
HETATM   31  O1  UNL     1       1.981  51.817 -28.087  1.00  0.00    -0.394 OA
HETATM   32  C1  UNL     1       2.560  51.517 -26.823  1.00  0.00     0.201 C 
ENDBRANCH  30  31
ENDBRANCH  29  30
ENDBRANCH  28  29
ENDBRANCH   1  28
TORSDOF 7
ENDMDL
MODEL 2
REMARK minimizedAffinity -7.76510191
REMARK  7 active torsions:
REMARK  status: ('A' for Active; 'I' for Inactive)
REMARK    1  A    between atoms: O1_2  and  C2_3 
REMARK    2  A    between atoms: C2_3  and  C3_4 
REMARK    3  A    between atoms: C3_4  and  O2_5 
REMARK    4  A    between atoms: O2_5  and  C4_6 
REMARK    5  A    between atoms: C7_12  and  N3_13 
REMARK       I    between atoms: N3_13  and  C8_14 
REMARK       I    between atoms: C8_14  and  N4_16 
REMARK    6  A    between atoms: N4_16  and  C9_17 
REMARK    7  A    between atoms: C9_17  and  C10_18 
ROOT
HETATM    1  C4  UNL     1       0.042  52.320 -22.836  1.00  0.00     0.171 A 
HETATM    2  N1  UNL     1      -0.775  51.267 -22.827  1.00  0.00    -0.279 N 
ATOM      3  H1  UNL     1      -1.211  50.799 -23.623  1.00  0.00     0.189 HD
HETATM    4  N2  UNL     1      -0.889  50.966 -21.526  1.00  0.00    -0.298 N 
HETATM    5  C5  UNL     1      -0.175  51.789 -20.698  1.00  0.00     0.067 A 
HETATM    6  C6  UNL     1      -0.037  51.803 -19.310  1.00  0.00     0.080 A 
HETATM    7  C7  UNL     1       0.789  52.799 -18.807  1.00  0.00     0.111 A 
HETATM    8  N5  UNL     1       1.420  53.707 -19.585  1.00  0.00    -0.351 N 
ATOM      9  H5  UNL     1       2.012  54.419 -19.158  1.00  0.00     0.166 HD
HETATM   10  C16 UNL     1       1.267  53.673 -20.936  1.00  0.00     0.108 A 
HETATM   11  C17 UNL     1       0.460  52.704 -21.534  1.00  0.00     0.060 A 
HETATM   12  H8  UNL     1      -1.474  50.180 -21.263  1.00  0.00     0.187 HD
ENDROOT
BRANCH   7  13
HETATM   13  N3  UNL     1       1.047  52.976 -17.448  1.00  0.00    -0.295 N 
HETATM   14  C8  UNL     1       1.043  52.040 -16.450  1.00  0.00     0.322 C 
HETATM   15  O3  UNL     1       0.841  50.839 -16.584  1.00  0.00    -0.247 OA
HETATM   16  N4  UNL     1       1.317  52.613 -15.228  1.00  0.00    -0.339 N 
HETATM   17  H11 UNL     1       1.106  53.594 -15.132  1.00  0.00     0.164 HD
HETATM   18  H10 UNL     1       1.371  53.907 -17.238  1.00  0.00     0.172 HD
BRANCH  16  19
HETATM   19  C9  UNL     1       1.300  51.829 -14.013  1.00  0.00     0.162 C 
BRANCH  19  20
HETATM   20  C10 UNL     1       0.107  52.177 -13.158  1.00  0.00    -0.039 A 
HETATM   21  C11 UNL     1      -1.155  51.643 -13.452  1.00  0.00     0.010 A 
HETATM   22  C12 UNL     1      -2.268  51.980 -12.676  1.00  0.00     0.026 A 
HETATM   23  C13 UNL     1      -2.134  52.862 -11.602  1.00  0.00     0.055 A 
HETATM   24 CL1  UNL     1      -3.550  53.237 -10.687  1.00  0.00    -0.083 Cl
HETATM   25  C14 UNL     1      -0.881  53.410 -11.305  1.00  0.00     0.056 A 
HETATM   26 CL2  UNL     1      -0.638  54.514  -9.999  1.00  0.00    -0.083 Cl
HETATM   27  C15 UNL     1       0.232  53.071 -12.084  1.00  0.00     0.034 A 
ENDBRANCH  19  20
ENDBRANCH  16  19
ENDBRANCH   7  13
BRANCH   1  28
HETATM   28  O2  UNL     1       0.294  52.787 -24.077  1.00  0.00    -0.332 OA
BRANCH  28  29
HETATM   29  C3  UNL     1      -0.101  51.939 -25.149  1.00  0.00     0.203 C 
BRANCH  29  30
HETATM   30  C2  UNL     1       0.458  52.503 -26.459  1.00  0.00     0.193 C 
BRANCH  30  31
HETATM   31  O1  UNL     1       1.888  52.566 -26.474  1.00  0.00    -0.394 OA
HETATM   32  C1  UNL     1       2.510  51.287 -26.471  1.00  0.00     0.201 C 
ENDBRANCH  30  31
ENDBRANCH  29  30
ENDBRANCH  28  29
ENDBRANCH   1  28
TORSDOF 7
ENDMDL
MODEL 3
REMARK minimizedAffinity -7.71566391
REMARK  7 active torsions:
REMARK  status: ('A' for Active; 'I' for Inactive)
REMARK    1  A    between atoms: O1_2  and  C2_3 
REMARK    2  A    between atoms: C2_3  and  C3_4 
REMARK    3  A    between atoms: C3_4  and  O2_5 
REMARK    4  A    between atoms: O2_5  and  C4_6 
REMARK    5  A    between atoms: C7_12  and  N3_13 
REMARK       I    between atoms: N3_13  and  C8_14 
REMARK       I    between atoms: C8_14  and  N4_16 
REMARK    6  A    between atoms: N4_16  and  C9_17 
REMARK    7  A    between atoms: C9_17  and  C10_18 
ROOT
HETATM    1  C4  UNL     1       0.022  68.206 -39.999  1.00  0.00     0.171 A 
HETATM    2  N1  UNL     1       0.533  67.525 -41.025  1.00  0.00    -0.279 N 
ATOM      3  H1  UNL     1       0.375  67.675 -42.022  1.00  0.00     0.189 HD
HETATM    4  N2  UNL     1       1.303  66.598 -40.439  1.00  0.00    -0.298 N 
HETATM    5  C5  UNL     1       1.304  66.659 -39.071  1.00  0.00     0.067 A 
HETATM    6  C6  UNL     1       1.965  65.884 -38.117  1.00  0.00     0.080 A 
HETATM    7  C7  UNL     1       1.731  66.244 -36.797  1.00  0.00     0.111 A 
HETATM    8  N5  UNL     1       0.919  67.264 -36.436  1.00  0.00    -0.351 N 
ATOM      9  H5  UNL     1       0.783  67.480 -35.449  1.00  0.00     0.166 HD
HETATM   10  C16 UNL     1       0.286  68.002 -37.386  1.00  0.00     0.108 A 
HETATM   11  C17 UNL     1       0.463  67.718 -38.740  1.00  0.00     0.060 A 
HETATM   12  H8  UNL     1       1.807  65.947 -41.030  1.00  0.00     0.187 HD
ENDROOT
BRANCH   7  13
HETATM   13  N3  UNL     1       2.297  65.588 -35.705  1.00  0.00    -0.295 N 
HETATM   14  C8  UNL     1       3.595  65.613 -35.274  1.00  0.00     0.322 C 
HETATM   15  O3  UNL     1       4.509  66.265 -35.765  1.00  0.00    -0.247 OA
HETATM   16  N4  UNL     1       3.771  64.806 -34.171  1.00  0.00    -0.339 N 
HETATM   17  H11 UNL     1       3.115  64.048 -34.058  1.00  0.00     0.164 HD
HETATM   18  H10 UNL     1       1.605  65.131 -35.132  1.00  0.00     0.172 HD
BRANCH  16  19
HETATM   19  C9  UNL     1       5.077  64.620 -33.581  1.00  0.00     0.162 C 
BRANCH  19  20
HETATM   20  C10 UNL     1       5.682  63.304 -34.001  1.00  0.00    -0.039 A 
HETATM   21  C11 UNL     1       4.877  62.164 -34.133  1.00  0.00     0.010 A 
HETATM   22  C12 UNL     1       5.437  60.938 -34.500  1.00  0.00     0.026 A 
HETATM   23  C13 UNL     1       6.810  60.833 -34.733  1.00  0.00     0.055 A 
HETATM   24 CL1  UNL     1       7.436  59.287 -35.182  1.00  0.00    -0.083 Cl
HETATM   25  C14 UNL     1       7.625  61.962 -34.595  1.00  0.00     0.056 A 
HETATM   26 CL2  UNL     1       9.332  61.910 -34.857  1.00  0.00    -0.083 Cl
HETATM   27  C15 UNL     1       7.062  63.190 -34.227  1.00  0.00     0.034 A 
ENDBRANCH  19  20
ENDBRANCH  16  19
ENDBRANCH   7  13
BRANCH   1  28
HETATM   28  O2  UNL     1      -0.797  69.208 -40.381  1.00  0.00    -0.332 OA
BRANCH  28  29
HETATM   29  C3  UNL     1      -1.697  68.903 -41.440  1.00  0.00     0.203 C 
BRANCH  29  30
HETATM   30  C2  UNL     1      -2.943  69.782 -41.301  1.00  0.00     0.193 C 
BRANCH  30  31
HETATM   31  O1  UNL     1      -4.163  69.035 -41.370  1.00  0.00    -0.394 OA
HETATM   32  C1  UNL     1      -4.447  68.535 -42.671  1.00  0.00     0.201 C 
ENDBRANCH  30  31
ENDBRANCH  29  30
ENDBRANCH  28  29
ENDBRANCH   1  28
TORSDOF 7
ENDMDL
MODEL 4
REMARK minimizedAffinity -7.63522959
REMARK  7 active torsions:
REMARK  status: ('A' for Active; 'I' for Inactive)
REMARK    1  A    between atoms: O1_2  and  C2_3 
REMARK    2  A    between atoms: C2_3  and  C3_4 
REMARK    3  A    between atoms: C3_4  and  O2_5 
REMARK    4  A    between atoms: O2_5  and  C4_6 
REMARK    5  A    between atoms: C7_12  and  N3_13 
REMARK       I    between atoms: N3_13  and  C8_14 
REMARK       I    between atoms: C8_14  and  N4_16 
REMARK    6  A    between atoms: N4_16  and  C9_17 
REMARK    7  A    between atoms: C9_17  and  C10_18 
ROOT
HETATM    1  C4  UNL     1       0.936  53.885 -23.909  1.00  0.00     0.171 A 
HETATM    2  N1  UNL     1       1.673  54.933 -23.539  1.00  0.00    -0.279 N 
ATOM      3  H1  UNL     1       2.106  55.640 -24.134  1.00  0.00     0.189 HD
HETATM    4  N2  UNL     1       1.709  54.840 -22.203  1.00  0.00    -0.298 N 
HETATM    5  C5  UNL     1       1.023  53.768 -21.700  1.00  0.00     0.067 A 
HETATM    6  C6  UNL     1       0.827  53.334 -20.388  1.00  0.00     0.080 A 
HETATM    7  C7  UNL     1       0.056  52.188 -20.252  1.00  0.00     0.111 A 
HETATM    8  N5  UNL     1      -0.473  51.518 -21.300  1.00  0.00    -0.351 N 
ATOM      9  H5  UNL     1      -1.028  50.678 -21.139  1.00  0.00     0.166 HD
HETATM   10  C16 UNL     1      -0.265  51.961 -22.569  1.00  0.00     0.108 A 
HETATM   11  C17 UNL     1       0.493  53.107 -22.805  1.00  0.00     0.060 A 
HETATM   12  H8  UNL     1       2.223  55.545 -21.685  1.00  0.00     0.187 HD
ENDROOT
BRANCH   7  13
HETATM   13  N3  UNL     1      -0.245  51.600 -19.024  1.00  0.00    -0.295 N 
HETATM   14  C8  UNL     1       0.373  51.782 -17.817  1.00  0.00     0.322 C 
HETATM   15  O3  UNL     1       1.306  52.542 -17.588  1.00  0.00    -0.247 OA
HETATM   16  N4  UNL     1      -0.199  50.997 -16.840  1.00  0.00    -0.339 N 
HETATM   17  H11 UNL     1      -0.676  50.165 -17.153  1.00  0.00     0.164 HD
HETATM   18  H10 UNL     1      -1.095  51.060 -19.056  1.00  0.00     0.172 HD
BRANCH  16  19
HETATM   19  C9  UNL     1       0.332  50.969 -15.496  1.00  0.00     0.162 C 
BRANCH  19  20
HETATM   20  C10 UNL     1      -0.720  51.356 -14.487  1.00  0.00    -0.039 A 
HETATM   21  C11 UNL     1      -2.052  50.956 -14.664  1.00  0.00     0.010 A 
HETATM   22  C12 UNL     1      -3.035  51.330 -13.744  1.00  0.00     0.026 A 
HETATM   23  C13 UNL     1      -2.700  52.117 -12.639  1.00  0.00     0.055 A 
HETATM   24 CL1  UNL     1      -3.964  52.545 -11.543  1.00  0.00    -0.083 Cl
HETATM   25  C14 UNL     1      -1.376  52.531 -12.458  1.00  0.00     0.056 A 
HETATM   26 CL2  UNL     1      -0.887  53.512 -11.122  1.00  0.00    -0.083 Cl
HETATM   27  C15 UNL     1      -0.393  52.154 -13.381  1.00  0.00     0.034 A 
ENDBRANCH  19  20
ENDBRANCH  16  19
ENDBRANCH   7  13
BRANCH   1  28
HETATM   28  O2  UNL     1       0.772  53.795 -25.245  1.00  0.00    -0.332 OA
BRANCH  28  29
HETATM   29  C3  UNL     1      -0.147  52.805 -25.691  1.00  0.00     0.203 C 
BRANCH  29  30
HETATM   30  C2  UNL     1      -0.593  53.148 -27.115  1.00  0.00     0.193 C 
BRANCH  30  31
HETATM   31  O1  UNL     1      -2.014  53.272 -27.240  1.00  0.00    -0.394 OA
HETATM   32  C1  UNL     1      -2.704  52.037 -27.091  1.00  0.00     0.201 C 
ENDBRANCH  30  31
ENDBRANCH  29  30
ENDBRANCH  28  29
ENDBRANCH   1  28
TORSDOF 7
ENDMDL
MODEL 5
REMARK minimizedAffinity -7.58121204
REMARK  7 active torsions:
REMARK  status: ('A' for Active; 'I' for Inactive)
REMARK    1  A    between atoms: O1_2  and  C2_3 
REMARK    2  A    between atoms: C2_3  and  C3_4 
REMARK    3  A    between atoms: C3_4  and  O2_5 
REMARK    4  A    between atoms: O2_5  and  C4_6 
REMARK    5  A    between atoms: C7_12  and  N3_13 
REMARK       I    between atoms: N3_13  and  C8_14 
REMARK       I    between atoms: C8_14  and  N4_16 
REMARK    6  A    between atoms: N4_16  and  C9_17 
REMARK    7  A    between atoms: C9_17  and  C10_18 
ROOT
HETATM    1  C4  UNL     1      -0.760  52.338 -26.766  1.00  0.00     0.171 A 
HETATM    2  N1  UNL     1      -0.147  53.466 -27.130  1.00  0.00    -0.279 N 
ATOM      3  H1  UNL     1      -0.100  53.887 -28.058  1.00  0.00     0.189 HD
HETATM    4  N2  UNL     1       0.391  53.916 -25.988  1.00  0.00    -0.298 N 
HETATM    5  C5  UNL     1       0.148  53.117 -24.904  1.00  0.00     0.067 A 
HETATM    6  C6  UNL     1       0.529  53.239 -23.567  1.00  0.00     0.080 A 
HETATM    7  C7  UNL     1       0.088  52.224 -22.730  1.00  0.00     0.111 A 
HETATM    8  N5  UNL     1      -0.653  51.177 -23.157  1.00  0.00    -0.351 N 
ATOM      9  H5  UNL     1      -0.946  50.457 -22.496  1.00  0.00     0.166 HD
HETATM   10  C16 UNL     1      -1.010  51.080 -24.465  1.00  0.00     0.108 A 
HETATM   11  C17 UNL     1      -0.616  52.056 -25.381  1.00  0.00     0.060 A 
HETATM   12  H8  UNL     1       0.919  54.782 -26.013  1.00  0.00     0.187 HD
ENDROOT
BRANCH   7  13
HETATM   13  N3  UNL     1       0.371  52.169 -21.366  1.00  0.00    -0.295 N 
HETATM   14  C8  UNL     1      -0.433  51.738 -20.345  1.00  0.00     0.322 C 
HETATM   15  O3  UNL     1      -1.562  51.277 -20.457  1.00  0.00    -0.247 OA
HETATM   16  N4  UNL     1       0.196  51.868 -19.126  1.00  0.00    -0.339 N 
HETATM   17  H11 UNL     1       0.923  52.564 -19.066  1.00  0.00     0.164 HD
HETATM   18  H10 UNL     1       1.333  52.388 -21.165  1.00  0.00     0.172 HD
BRANCH  16  19
HETATM   19  C9  UNL     1      -0.485  51.539 -17.894  1.00  0.00     0.162 C 
BRANCH  19  20
HETATM   20  C10 UNL     1       0.494  51.376 -16.759  1.00  0.00    -0.039 A 
HETATM   21  C11 UNL     1       0.175  50.569 -15.659  1.00  0.00     0.010 A 
HETATM   22  C12 UNL     1       1.070  50.433 -14.593  1.00  0.00     0.026 A 
HETATM   23  C13 UNL     1       2.292  51.109 -14.611  1.00  0.00     0.055 A 
HETATM   24 CL1  UNL     1       3.348  50.898 -13.261  1.00  0.00    -0.083 Cl
HETATM   25  C14 UNL     1       2.617  51.927 -15.699  1.00  0.00     0.056 A 
HETATM   26 CL2  UNL     1       4.104  52.801 -15.789  1.00  0.00    -0.083 Cl
HETATM   27  C15 UNL     1       1.719  52.061 -16.765  1.00  0.00     0.034 A 
ENDBRANCH  19  20
ENDBRANCH  16  19
ENDBRANCH   7  13
BRANCH   1  28
HETATM   28  O2  UNL     1      -1.381  51.717 -27.791  1.00  0.00    -0.332 OA
BRANCH  28  29
HETATM   29  C3  UNL     1      -2.791  51.580 -27.668  1.00  0.00     0.203 C 
BRANCH  29  30
HETATM   30  C2  UNL     1      -3.124  50.113 -27.378  1.00  0.00     0.193 C 
BRANCH  30  31
HETATM   31  O1  UNL     1      -3.741  49.451 -28.487  1.00  0.00    -0.394 OA
HETATM   32  C1  UNL     1      -4.490  48.301 -28.114  1.00  0.00     0.201 C 
ENDBRANCH  30  31
ENDBRANCH  29  30
ENDBRANCH  28  29
ENDBRANCH   1  28
TORSDOF 7
ENDMDL
MODEL 6
REMARK minimizedAffinity -7.44324684
REMARK  7 active torsions:
REMARK  status: ('A' for Active; 'I' for Inactive)
REMARK    1  A    between atoms: O1_2  and  C2_3 
REMARK    2  A    between atoms: C2_3  and  C3_4 
REMARK    3  A    between atoms: C3_4  and  O2_5 
REMARK    4  A    between atoms: O2_5  and  C4_6 
REMARK    5  A    between atoms: C7_12  and  N3_13 
REMARK       I    between atoms: N3_13  and  C8_14 
REMARK       I    between atoms: C8_14  and  N4_16 
REMARK    6  A    between atoms: N4_16  and  C9_17 
REMARK    7  A    between atoms: C9_17  and  C10_18 
ROOT
HETATM    1  C4  UNL     1       0.542  54.331 -24.670  1.00  0.00     0.171 A 
HETATM    2  N1  UNL     1       1.378  55.249 -24.183  1.00  0.00    -0.279 N 
ATOM      3  H1  UNL     1       1.744  56.079 -24.651  1.00  0.00     0.189 HD
HETATM    4  N2  UNL     1       1.623  54.826 -22.936  1.00  0.00    -0.298 N 
HETATM    5  C5  UNL     1       0.976  53.667 -22.603  1.00  0.00     0.067 A 
HETATM    6  C6  UNL     1       0.973  52.921 -21.423  1.00  0.00     0.080 A 
HETATM    7  C7  UNL     1       0.179  51.782 -21.445  1.00  0.00     0.111 A 
HETATM    8  N5  UNL     1      -0.542  51.398 -22.522  1.00  0.00    -0.351 N 
ATOM      9  H5  UNL     1      -1.105  50.548 -22.480  1.00  0.00     0.166 HD
HETATM   10  C16 UNL     1      -0.520  52.142 -23.660  1.00  0.00     0.108 A 
HETATM   11  C17 UNL     1       0.245  53.306 -23.731  1.00  0.00     0.060 A 
HETATM   12  H8  UNL     1       2.247  55.375 -22.355  1.00  0.00     0.187 HD
ENDROOT
BRANCH   7  13
HETATM   13  N3  UNL     1       0.051  50.909 -20.365  1.00  0.00    -0.295 N 
HETATM   14  C8  UNL     1      -0.599  51.111 -19.178  1.00  0.00     0.322 C 
HETATM   15  O3  UNL     1      -1.232  52.110 -18.859  1.00  0.00    -0.247 OA
HETATM   16  N4  UNL     1      -0.475  50.017 -18.350  1.00  0.00    -0.339 N 
HETATM   17  H11 UNL     1       0.326  49.424 -18.503  1.00  0.00     0.164 HD
HETATM   18  H10 UNL     1       0.411  49.990 -20.571  1.00  0.00     0.172 HD
BRANCH  16  19
HETATM   19  C9  UNL     1      -1.023  50.027 -17.012  1.00  0.00     0.162 C 
BRANCH  19  20
HETATM   20  C10 UNL     1       0.041  49.723 -15.986  1.00  0.00    -0.039 A 
HETATM   21  C11 UNL     1       0.698  50.765 -15.318  1.00  0.00     0.010 A 
HETATM   22  C12 UNL     1       1.700  50.489 -14.384  1.00  0.00     0.026 A 
HETATM   23  C13 UNL     1       2.063  49.168 -14.111  1.00  0.00     0.055 A 
HETATM   24 CL1  UNL     1       3.310  48.900 -12.947  1.00  0.00    -0.083 Cl
HETATM   25  C14 UNL     1       1.421  48.120 -14.780  1.00  0.00     0.056 A 
HETATM   26 CL2  UNL     1       1.820  46.462 -14.503  1.00  0.00    -0.083 Cl
HETATM   27  C15 UNL     1       0.417  48.399 -15.716  1.00  0.00     0.034 A 
ENDBRANCH  19  20
ENDBRANCH  16  19
ENDBRANCH   7  13
BRANCH   1  28
HETATM   28  O2  UNL     1       0.162  54.577 -25.940  1.00  0.00    -0.332 OA
BRANCH  28  29
HETATM   29  C3  UNL     1       0.249  53.477 -26.838  1.00  0.00     0.203 C 
BRANCH  29  30
HETATM   30  C2  UNL     1      -0.670  53.739 -28.035  1.00  0.00     0.193 C 
BRANCH  30  31
HETATM   31  O1  UNL     1      -2.055  53.544 -27.729  1.00  0.00    -0.394 OA
HETATM   32  C1  UNL     1      -2.316  52.324 -27.045  1.00  0.00     0.201 C 
ENDBRANCH  30  31
ENDBRANCH  29  30
ENDBRANCH  28  29
ENDBRANCH   1  28
TORSDOF 7
ENDMDL
MODEL 7
REMARK minimizedAffinity -7.40832901
REMARK  7 active torsions:
REMARK  status: ('A' for Active; 'I' for Inactive)
REMARK    1  A    between atoms: O1_2  and  C2_3 
REMARK    2  A    between atoms: C2_3  and  C3_4 
REMARK    3  A    between atoms: C3_4  and  O2_5 
REMARK    4  A    between atoms: O2_5  and  C4_6 
REMARK    5  A    between atoms: C7_12  and  N3_13 
REMARK       I    between atoms: N3_13  and  C8_14 
REMARK       I    between atoms: C8_14  and  N4_16 
REMARK    6  A    between atoms: N4_16  and  C9_17 
REMARK    7  A    between atoms: C9_17  and  C10_18 
ROOT
HETATM    1  C4  UNL     1       9.066  62.045 -34.534  1.00  0.00     0.171 A 
HETATM    2  N1  UNL     1       8.515  61.016 -33.890  1.00  0.00    -0.279 N 
ATOM      3  H1  UNL     1       8.983  60.278 -33.364  1.00  0.00     0.189 HD
HETATM    4  N2  UNL     1       7.201  61.180 -34.097  1.00  0.00    -0.298 N 
HETATM    5  C5  UNL     1       6.888  62.278 -34.852  1.00  0.00     0.067 A 
HETATM    6  C6  UNL     1       5.658  62.782 -35.279  1.00  0.00     0.080 A 
HETATM    7  C7  UNL     1       5.725  63.941 -36.039  1.00  0.00     0.111 A 
HETATM    8  N5  UNL     1       6.886  64.553 -36.363  1.00  0.00    -0.351 N 
ATOM      9  H5  UNL     1       6.872  65.402 -36.928  1.00  0.00     0.166 HD
HETATM   10  C16 UNL     1       8.071  64.041 -35.936  1.00  0.00     0.108 A 
HETATM   11  C17 UNL     1       8.104  62.881 -35.162  1.00  0.00     0.060 A 
HETATM   12  H8  UNL     1       6.562  60.504 -33.693  1.00  0.00     0.187 HD
ENDROOT
BRANCH   7  13
HETATM   13  N3  UNL     1       4.605  64.589 -36.558  1.00  0.00    -0.295 N 
HETATM   14  C8  UNL     1       3.775  65.484 -35.940  1.00  0.00     0.322 C 
HETATM   15  O3  UNL     1       3.893  65.914 -34.799  1.00  0.00    -0.247 OA
HETATM   16  N4  UNL     1       2.756  65.881 -36.779  1.00  0.00    -0.339 N 
HETATM   17  H11 UNL     1       2.508  65.244 -37.520  1.00  0.00     0.164 HD
HETATM   18  H10 UNL     1       4.491  64.426 -37.546  1.00  0.00     0.172 HD
BRANCH  16  19
HETATM   19  C9  UNL     1       1.715  66.774 -36.320  1.00  0.00     0.162 C 
BRANCH  19  20
HETATM   20  C10 UNL     1       1.031  67.453 -37.481  1.00  0.00    -0.039 A 
HETATM   21  C11 UNL     1       0.040  68.416 -37.253  1.00  0.00     0.010 A 
HETATM   22  C12 UNL     1      -0.613  69.032 -38.325  1.00  0.00     0.026 A 
HETATM   23  C13 UNL     1      -0.287  68.686 -39.639  1.00  0.00     0.055 A 
HETATM   24 CL1  UNL     1      -1.133  69.484 -40.915  1.00  0.00    -0.083 Cl
HETATM   25  C14 UNL     1       0.694  67.718 -39.878  1.00  0.00     0.056 A 
HETATM   26 CL2  UNL     1       1.146  67.230 -41.473  1.00  0.00    -0.083 Cl
HETATM   27  C15 UNL     1       1.347  67.102 -38.802  1.00  0.00     0.034 A 
ENDBRANCH  19  20
ENDBRANCH  16  19
ENDBRANCH   7  13
BRANCH   1  28
HETATM   28  O2  UNL     1      10.412  62.068 -34.446  1.00  0.00    -0.332 OA
BRANCH  28  29
HETATM   29  C3  UNL     1      10.978  63.259 -33.911  1.00  0.00     0.203 C 
BRANCH  29  30
HETATM   30  C2  UNL     1      11.287  63.039 -32.428  1.00  0.00     0.193 C 
BRANCH  30  31
HETATM   31  O1  UNL     1      10.351  62.165 -31.786  1.00  0.00    -0.394 OA
HETATM   32  C1  UNL     1      10.968  61.084 -31.098  1.00  0.00     0.201 C 
ENDBRANCH  30  31
ENDBRANCH  29  30
ENDBRANCH  28  29
ENDBRANCH   1  28
TORSDOF 7
ENDMDL
MODEL 8
REMARK minimizedAffinity -7.29567575
REMARK  7 active torsions:
REMARK  status: ('A' for Active; 'I' for Inactive)
REMARK    1  A    between atoms: O1_2  and  C2_3 
REMARK    2  A    between atoms: C2_3  and  C3_4 
REMARK    3  A    between atoms: C3_4  and  O2_5 
REMARK    4  A    between atoms: O2_5  and  C4_6 
REMARK    5  A    between atoms: C7_12  and  N3_13 
REMARK       I    between atoms: N3_13  and  C8_14 
REMARK       I    between atoms: C8_14  and  N4_16 
REMARK    6  A    between atoms: N4_16  and  C9_17 
REMARK    7  A    between atoms: C9_17  and  C10_18 
ROOT
HETATM    1  C4  UNL     1       0.362  52.685 -23.141  1.00  0.00     0.171 A 
HETATM    2  N1  UNL     1      -0.487  51.664 -23.274  1.00  0.00    -0.279 N 
ATOM      3  H1  UNL     1      -0.873  51.274 -24.134  1.00  0.00     0.189 HD
HETATM    4  N2  UNL     1      -0.711  51.273 -22.012  1.00  0.00    -0.298 N 
HETATM    5  C5  UNL     1      -0.039  52.006 -21.072  1.00  0.00     0.067 A 
HETATM    6  C6  UNL     1      -0.009  51.912 -19.680  1.00  0.00     0.080 A 
HETATM    7  C7  UNL     1       0.806  52.837 -19.042  1.00  0.00     0.111 A 
HETATM    8  N5  UNL     1       1.524  53.775 -19.699  1.00  0.00    -0.351 N 
ATOM      9  H5  UNL     1       2.102  54.431 -19.175  1.00  0.00     0.166 HD
HETATM   10  C16 UNL     1       1.476  53.847 -21.055  1.00  0.00     0.108 A 
HETATM   11  C17 UNL     1       0.688  52.956 -21.785  1.00  0.00     0.060 A 
HETATM   12  H8  UNL     1      -1.339  50.492 -21.855  1.00  0.00     0.187 HD
ENDROOT
BRANCH   7  13
HETATM   13  N3  UNL     1       0.962  52.903 -17.658  1.00  0.00    -0.295 N 
HETATM   14  C8  UNL     1       0.941  51.882 -16.747  1.00  0.00     0.322 C 
HETATM   15  O3  UNL     1       0.813  50.690 -16.998  1.00  0.00    -0.247 OA
HETATM   16  N4  UNL     1       1.102  52.356 -15.463  1.00  0.00    -0.339 N 
HETATM   17  H11 UNL     1       0.833  53.313 -15.299  1.00  0.00     0.164 HD
HETATM   18  H10 UNL     1       1.222  53.825 -17.345  1.00  0.00     0.172 HD
BRANCH  16  19
HETATM   19  C9  UNL     1       1.045  51.466 -14.325  1.00  0.00     0.162 C 
BRANCH  19  20
HETATM   20  C10 UNL     1       1.288  52.213 -13.038  1.00  0.00    -0.039 A 
HETATM   21  C11 UNL     1       2.520  52.105 -12.379  1.00  0.00     0.010 A 
HETATM   22  C12 UNL     1       2.743  52.777 -11.174  1.00  0.00     0.026 A 
HETATM   23  C13 UNL     1       1.734  53.561 -10.609  1.00  0.00     0.055 A 
HETATM   24 CL1  UNL     1       2.076  54.362  -9.118  1.00  0.00    -0.083 Cl
HETATM   25  C14 UNL     1       0.496  53.668 -11.253  1.00  0.00     0.056 A 
HETATM   26 CL2  UNL     1      -0.803  54.610 -10.613  1.00  0.00    -0.083 Cl
HETATM   27  C15 UNL     1       0.275  52.993 -12.460  1.00  0.00     0.034 A 
ENDBRANCH  19  20
ENDBRANCH  16  19
ENDBRANCH   7  13
BRANCH   1  28
HETATM   28  O2  UNL     1       0.724  53.232 -24.320  1.00  0.00    -0.332 OA
BRANCH  28  29
HETATM   29  C3  UNL     1       0.289  52.539 -25.484  1.00  0.00     0.203 C 
BRANCH  29  30
HETATM   30  C2  UNL     1       0.065  53.553 -26.610  1.00  0.00     0.193 C 
BRANCH  30  31
HETATM   31  O1  UNL     1       0.097  52.957 -27.911  1.00  0.00    -0.394 OA
HETATM   32  C1  UNL     1       0.922  51.801 -27.984  1.00  0.00     0.201 C 
ENDBRANCH  30  31
ENDBRANCH  29  30
ENDBRANCH  28  29
ENDBRANCH   1  28
TORSDOF 7
ENDMDL
MODEL 9
REMARK minimizedAffinity -7.28815556
REMARK  7 active torsions:
REMARK  status: ('A' for Active; 'I' for Inactive)
REMARK    1  A    between atoms: O1_2  and  C2_3 
REMARK    2  A    between atoms: C2_3  and  C3_4 
REMARK    3  A    between atoms: C3_4  and  O2_5 
REMARK    4  A    between atoms: O2_5  and  C4_6 
REMARK    5  A    between atoms: C7_12  and  N3_13 
REMARK       I    between atoms: N3_13  and  C8_14 
REMARK       I    between atoms: C8_14  and  N4_16 
REMARK    6  A    between atoms: N4_16  and  C9_17 
REMARK    7  A    between atoms: C9_17  and  C10_18 
ROOT
HETATM    1  C4  UNL     1       0.322  52.758 -24.768  1.00  0.00     0.171 A 
HETATM    2  N1  UNL     1       0.552  53.879 -25.453  1.00  0.00    -0.279 N 
ATOM      3  H1  UNL     1       1.237  54.609 -25.256  1.00  0.00     0.189 HD
HETATM    4  N2  UNL     1      -0.330  53.820 -26.461  1.00  0.00    -0.298 N 
HETATM    5  C5  UNL     1      -1.118  52.702 -26.448  1.00  0.00     0.067 A 
HETATM    6  C6  UNL     1      -2.134  52.282 -27.308  1.00  0.00     0.080 A 
HETATM    7  C7  UNL     1      -2.722  51.067 -26.982  1.00  0.00     0.111 A 
HETATM    8  N5  UNL     1      -2.358  50.328 -25.909  1.00  0.00    -0.351 N 
ATOM      9  H5  UNL     1      -2.829  49.445 -25.718  1.00  0.00     0.166 HD
HETATM   10  C16 UNL     1      -1.367  50.761 -25.086  1.00  0.00     0.108 A 
HETATM   11  C17 UNL     1      -0.714  51.968 -25.336  1.00  0.00     0.060 A 
HETATM   12  H8  UNL     1      -0.345  54.580 -27.132  1.00  0.00     0.187 HD
ENDROOT
BRANCH   7  13
HETATM   13  N3  UNL     1      -3.754  50.486 -27.717  1.00  0.00    -0.295 N 
HETATM   14  C8  UNL     1      -3.944  49.166 -28.025  1.00  0.00     0.322 C 
HETATM   15  O3  UNL     1      -3.239  48.231 -27.667  1.00  0.00    -0.247 OA
HETATM   16  N4  UNL     1      -5.070  48.992 -28.799  1.00  0.00    -0.339 N 
HETATM   17  H11 UNL     1      -5.370  49.785 -29.344  1.00  0.00     0.164 HD
HETATM   18  H10 UNL     1      -4.482  51.146 -27.943  1.00  0.00     0.172 HD
BRANCH  16  19
HETATM   19  C9  UNL     1      -5.435  47.687 -29.304  1.00  0.00     0.162 C 
BRANCH  19  20
HETATM   20  C10 UNL     1      -6.860  47.344 -28.945  1.00  0.00    -0.039 A 
HETATM   21  C11 UNL     1      -7.130  46.450 -27.900  1.00  0.00     0.010 A 
HETATM   22  C12 UNL     1      -8.448  46.112 -27.578  1.00  0.00     0.026 A 
HETATM   23  C13 UNL     1      -9.511  46.658 -28.302  1.00  0.00     0.055 A 
HETATM   24 CL1  UNL     1     -11.113  46.194 -27.852  1.00  0.00    -0.083 Cl
HETATM   25  C14 UNL     1      -9.252  47.543 -29.353  1.00  0.00     0.056 A 
HETATM   26 CL2  UNL     1     -10.512  48.252 -30.300  1.00  0.00    -0.083 Cl
HETATM   27  C15 UNL     1      -7.931  47.881 -29.674  1.00  0.00     0.034 A 
ENDBRANCH  19  20
ENDBRANCH  16  19
ENDBRANCH   7  13
BRANCH   1  28
HETATM   28  O2  UNL     1       1.124  52.619 -23.692  1.00  0.00    -0.332 OA
BRANCH  28  29
HETATM   29  C3  UNL     1       0.578  53.053 -22.452  1.00  0.00     0.203 C 
BRANCH  29  30
HETATM   30  C2  UNL     1       1.449  54.182 -21.894  1.00  0.00     0.193 C 
BRANCH  30  31
HETATM   31  O1  UNL     1       1.251  54.400 -20.493  1.00  0.00    -0.394 OA
HETATM   32  C1  UNL     1       1.164  53.195 -19.741  1.00  0.00     0.201 C 
ENDBRANCH  30  31
ENDBRANCH  29  30
ENDBRANCH  28  29
ENDBRANCH   1  28
TORSDOF 7
ENDMDL
