MODEL 1
REMARK minimizedAffinity -8.74780941
REMARK  7 active torsions:
REMARK  status: ('A' for Active; 'I' for Inactive)
REMARK    1  A    between atoms: O1_2  and  C2_3 
REMARK    2  A    between atoms: C2_3  and  C3_4 
REMARK    3  A    between atoms: C3_4  and  N1_5 
REMARK    4  A    between atoms: C3_4  and  C16_27 
REMARK       I    between atoms: N1_5  and  C4_6 
REMARK       I    between atoms: C4_6  and  N2_8 
REMARK    5  A    between atoms: N2_8  and  C5_9 
REMARK    6  A    between atoms: C8_15  and  O3_16 
REMARK    7  A    between atoms: O3_16  and  C9_17 
ROOT
HETATM    1  C5  UNL     1      -2.743  51.014 -26.787  1.00  0.00     0.111 A 
HETATM    2  C6  UNL     1      -2.185  52.257 -27.064  1.00  0.00     0.080 A 
HETATM    3  C7  UNL     1      -1.167  52.658 -26.199  1.00  0.00     0.067 A 
HETATM    4  N3  UNL     1      -0.399  53.793 -26.144  1.00  0.00    -0.298 N 
HETATM    5  N4  UNL     1       0.496  53.802 -25.137  1.00  0.00    -0.279 N 
ATOM      6  H4  UNL     1       1.172  54.525 -24.892  1.00  0.00     0.189 HD
HETATM    7  C8  UNL     1       0.280  52.630 -24.542  1.00  0.00     0.171 A 
HETATM    8  C14 UNL     1      -0.746  51.872 -25.134  1.00  0.00     0.060 A 
HETATM    9  C15 UNL     1      -1.367  50.646 -24.917  1.00  0.00     0.108 A 
HETATM   10  N6  UNL     1      -2.355  50.229 -25.751  1.00  0.00    -0.351 N 
ATOM     11  H6  UNL     1      -2.805  49.326 -25.599  1.00  0.00     0.166 HD
HETATM   12  H10 UNL     1      -0.439  54.598 -26.761  1.00  0.00     0.187 HD
ENDROOT
BRANCH   1  13
HETATM   13  N2  UNL     1      -3.769  50.445 -27.541  1.00  0.00    -0.295 N 
HETATM   14  C4  UNL     1      -3.903  49.147 -27.960  1.00  0.00     0.322 C 
HETATM   15  N1  UNL     1      -5.045  48.984 -28.711  1.00  0.00    -0.332 N 
HETATM   16  O2  UNL     1      -3.145  48.222 -27.694  1.00  0.00    -0.247 OA
HETATM   17  H7  UNL     1      -5.453  49.815 -29.104  1.00  0.00     0.165 HD
HETATM   18  H8  UNL     1      -4.529  51.087 -27.699  1.00  0.00     0.172 HD
BRANCH  15  19
HETATM   19  C3  UNL     1      -5.333  47.729 -29.402  1.00  0.00     0.143 C 
BRANCH  19  20
HETATM   20  C2  UNL     1      -5.776  47.966 -30.869  1.00  0.00     0.197 C 
BRANCH  20  21
HETATM   21  O1  UNL     1      -4.707  48.324 -31.752  1.00  0.00    -0.394 OA
HETATM   22  C1  UNL     1      -4.662  47.526 -32.928  1.00  0.00     0.201 C 
ENDBRANCH  20  21
ENDBRANCH  19  20
BRANCH  19  23
HETATM   23  C16 UNL     1      -6.384  46.951 -28.623  1.00  0.00    -0.033 A 
HETATM   24  C17 UNL     1      -6.914  45.739 -29.094  1.00  0.00     0.009 A 
HETATM   25  C18 UNL     1      -7.871  45.043 -28.353  1.00  0.00     0.001 A 
HETATM   26  C19 UNL     1      -8.319  45.551 -27.136  1.00  0.00     0.000 A 
HETATM   27  C20 UNL     1      -7.814  46.759 -26.661  1.00  0.00     0.001 A 
HETATM   28  C21 UNL     1      -6.856  47.457 -27.400  1.00  0.00     0.009 A 
ENDBRANCH  19  23
ENDBRANCH  15  19
ENDBRANCH   1  13
BRANCH   7  29
HETATM   29  O3  UNL     1       1.003  52.342 -23.445  1.00  0.00    -0.329 OA
BRANCH  29  30
HETATM   30  C9  UNL     1       0.307  52.695 -22.243  1.00  0.00     0.134 C 
HETATM   31  C10 UNL     1       1.204  53.659 -21.462  1.00  0.00     0.062 C 
HETATM   32  C11 UNL     1       0.612  53.963 -20.090  1.00  0.00     0.272 C 
HETATM   33  N5  UNL     1       0.372  52.743 -19.318  1.00  0.00     0.083 N 
HETATM   34  C12 UNL     1      -0.521  51.829 -20.033  1.00  0.00     0.272 C 
HETATM   35  H16 UNL     1       1.263  52.272 -19.150  1.00  0.00     0.315 HD
HETATM   36  C13 UNL     1       0.032  51.446 -21.400  1.00  0.00     0.062 C 
ENDBRANCH  29  30
ENDBRANCH   7  29
TORSDOF 7
ENDMDL
MODEL 2
REMARK minimizedAffinity -8.47834206
REMARK  7 active torsions:
REMARK  status: ('A' for Active; 'I' for Inactive)
REMARK    1  A    between atoms: O1_2  and  C2_3 
REMARK    2  A    between atoms: C2_3  and  C3_4 
REMARK    3  A    between atoms: C3_4  and  N1_5 
REMARK    4  A    between atoms: C3_4  and  C16_27 
REMARK       I    between atoms: N1_5  and  C4_6 
REMARK       I    between atoms: C4_6  and  N2_8 
REMARK    5  A    between atoms: N2_8  and  C5_9 
REMARK    6  A    between atoms: C8_15  and  O3_16 
REMARK    7  A    between atoms: O3_16  and  C9_17 
ROOT
HETATM    1  C5  UNL     1       0.890  53.058 -19.497  1.00  0.00     0.111 A 
HETATM    2  C6  UNL     1       1.429  54.052 -20.305  1.00  0.00     0.080 A 
HETATM    3  C7  UNL     1       1.210  53.889 -21.673  1.00  0.00     0.067 A 
HETATM    4  N3  UNL     1       1.582  54.637 -22.761  1.00  0.00    -0.298 N 
HETATM    5  N4  UNL     1       1.167  54.135 -23.940  1.00  0.00    -0.279 N 
ATOM      6  H4  UNL     1       1.317  54.506 -24.878  1.00  0.00     0.189 HD
HETATM    7  C8  UNL     1       0.512  53.035 -23.576  1.00  0.00     0.171 A 
HETATM    8  C14 UNL     1       0.507  52.807 -22.189  1.00  0.00     0.060 A 
HETATM    9  C15 UNL     1       0.013  51.847 -21.311  1.00  0.00     0.108 A 
HETATM   10  N6  UNL     1       0.206  51.988 -19.973  1.00  0.00    -0.351 N 
ATOM     11  H6  UNL     1      -0.164  51.290 -19.327  1.00  0.00     0.166 HD
HETATM   12  H10 UNL     1       2.123  55.496 -22.765  1.00  0.00     0.187 HD
ENDROOT
BRANCH   1  13
HETATM   13  N2  UNL     1       1.004  53.049 -18.106  1.00  0.00    -0.295 N 
HETATM   14  C4  UNL     1       0.801  52.009 -17.238  1.00  0.00     0.322 C 
HETATM   15  N1  UNL     1       0.986  52.408 -15.933  1.00  0.00    -0.332 N 
HETATM   16  O2  UNL     1       0.524  50.857 -17.547  1.00  0.00    -0.247 OA
HETATM   17  H7  UNL     1       0.940  53.396 -15.750  1.00  0.00     0.165 HD
HETATM   18  H8  UNL     1       1.369  53.917 -17.747  1.00  0.00     0.172 HD
BRANCH  15  19
HETATM   19  C3  UNL     1       0.677  51.523 -14.812  1.00  0.00     0.143 C 
BRANCH  19  20
HETATM   20  C2  UNL     1       0.034  52.292 -13.629  1.00  0.00     0.197 C 
BRANCH  20  21
HETATM   21  O1  UNL     1      -1.384  52.125 -13.524  1.00  0.00    -0.394 OA
HETATM   22  C1  UNL     1      -1.818  50.813 -13.854  1.00  0.00     0.201 C 
ENDBRANCH  20  21
ENDBRANCH  19  20
BRANCH  19  23
HETATM   23  C16 UNL     1       1.941  50.794 -14.380  1.00  0.00    -0.033 A 
HETATM   24  C17 UNL     1       1.896  49.574 -13.686  1.00  0.00     0.009 A 
HETATM   25  C18 UNL     1       3.073  48.924 -13.309  1.00  0.00     0.001 A 
HETATM   26  C19 UNL     1       4.311  49.487 -13.613  1.00  0.00     0.000 A 
HETATM   27  C20 UNL     1       4.373  50.703 -14.288  1.00  0.00     0.001 A 
HETATM   28  C21 UNL     1       3.197  51.355 -14.666  1.00  0.00     0.009 A 
ENDBRANCH  19  23
ENDBRANCH  15  19
ENDBRANCH   1  13
BRANCH   7  29
HETATM   29  O3  UNL     1      -0.004  52.262 -24.549  1.00  0.00    -0.329 OA
BRANCH  29  30
HETATM   30  C9  UNL     1       0.476  52.649 -25.843  1.00  0.00     0.134 C 
HETATM   31  C10 UNL     1      -0.713  53.228 -26.617  1.00  0.00     0.062 C 
HETATM   32  C11 UNL     1      -0.332  53.519 -28.064  1.00  0.00     0.272 C 
HETATM   33  N5  UNL     1       0.192  52.332 -28.738  1.00  0.00     0.083 N 
HETATM   34  C12 UNL     1       1.359  51.791 -28.035  1.00  0.00     0.272 C 
HETATM   35  H16 UNL     1      -0.535  51.615 -28.770  1.00  0.00     0.315 HD
HETATM   36  C13 UNL     1       1.036  51.435 -26.589  1.00  0.00     0.062 C 
ENDBRANCH  29  30
ENDBRANCH   7  29
TORSDOF 7
ENDMDL
MODEL 3
REMARK minimizedAffinity -8.45814991
REMARK  7 active torsions:
REMARK  status: ('A' for Active; 'I' for Inactive)
REMARK    1  A    between atoms: O1_2  and  C2_3 
REMARK    2  A    between atoms: C2_3  and  C3_4 
REMARK    3  A    between atoms: C3_4  and  N1_5 
REMARK    4  A    between atoms: C3_4  and  C16_27 
REMARK       I    between atoms: N1_5  and  C4_6 
REMARK       I    between atoms: C4_6  and  N2_8 
REMARK    5  A    between atoms: N2_8  and  C5_9 
REMARK    6  A    between atoms: C8_15  and  O3_16 
REMARK    7  A    between atoms: O3_16  and  C9_17 
ROOT
HETATM    1  C5  UNL     1      -3.131  48.782 -24.525  1.00  0.00     0.111 A 
HETATM    2  C6  UNL     1      -4.476  48.440 -24.605  1.00  0.00     0.080 A 
HETATM    3  C7  UNL     1      -4.981  48.313 -25.899  1.00  0.00     0.067 A 
HETATM    4  N3  UNL     1      -6.229  48.005 -26.374  1.00  0.00    -0.298 N 
HETATM    5  N4  UNL     1      -6.315  47.981 -27.719  1.00  0.00    -0.279 N 
ATOM      6  H4  UNL     1      -7.127  47.779 -28.302  1.00  0.00     0.189 HD
HETATM    7  C8  UNL     1      -5.075  48.286 -28.097  1.00  0.00     0.171 A 
HETATM    8  C14 UNL     1      -4.195  48.521 -27.026  1.00  0.00     0.060 A 
HETATM    9  C15 UNL     1      -2.860  48.875 -26.858  1.00  0.00     0.108 A 
HETATM   10  N6  UNL     1      -2.342  48.996 -25.607  1.00  0.00    -0.351 N 
ATOM     11  H6  UNL     1      -1.361  49.247 -25.483  1.00  0.00     0.166 HD
HETATM   12  H10 UNL     1      -7.065  47.803 -25.834  1.00  0.00     0.187 HD
ENDROOT
BRANCH   1  13
HETATM   13  N2  UNL     1      -2.450  48.952 -23.319  1.00  0.00    -0.295 N 
HETATM   14  C4  UNL     1      -2.600  49.943 -22.385  1.00  0.00     0.322 C 
HETATM   15  N1  UNL     1      -1.719  49.777 -21.340  1.00  0.00    -0.332 N 
HETATM   16  O2  UNL     1      -3.420  50.852 -22.425  1.00  0.00    -0.247 OA
HETATM   17  H7  UNL     1      -0.920  49.189 -21.508  1.00  0.00     0.165 HD
HETATM   18  H8  UNL     1      -1.842  48.176 -23.111  1.00  0.00     0.172 HD
BRANCH  15  19
HETATM   19  C3  UNL     1      -1.576  50.786 -20.293  1.00  0.00     0.143 C 
BRANCH  19  20
HETATM   20  C2  UNL     1      -2.940  51.419 -19.911  1.00  0.00     0.197 C 
BRANCH  20  21
HETATM   21  O1  UNL     1      -3.048  51.789 -18.532  1.00  0.00    -0.394 OA
HETATM   22  C1  UNL     1      -2.720  50.731 -17.642  1.00  0.00     0.201 C 
ENDBRANCH  20  21
ENDBRANCH  19  20
BRANCH  19  23
HETATM   23  C16 UNL     1      -0.579  51.844 -20.743  1.00  0.00    -0.033 A 
HETATM   24  C17 UNL     1      -0.132  51.928 -22.072  1.00  0.00     0.009 A 
HETATM   25  C18 UNL     1       0.777  52.916 -22.457  1.00  0.00     0.001 A 
HETATM   26  C19 UNL     1       1.257  53.828 -21.521  1.00  0.00     0.000 A 
HETATM   27  C20 UNL     1       0.834  53.750 -20.197  1.00  0.00     0.001 A 
HETATM   28  C21 UNL     1      -0.075  52.764 -19.808  1.00  0.00     0.009 A 
ENDBRANCH  19  23
ENDBRANCH  15  19
ENDBRANCH   1  13
BRANCH   7  29
HETATM   29  O3  UNL     1      -4.830  48.388 -29.416  1.00  0.00    -0.329 OA
BRANCH  29  30
HETATM   30  C9  UNL     1      -5.779  47.644 -30.190  1.00  0.00     0.134 C 
HETATM   31  C10 UNL     1      -4.985  46.734 -31.134  1.00  0.00     0.062 C 
HETATM   32  C11 UNL     1      -5.913  46.020 -32.111  1.00  0.00     0.272 C 
HETATM   33  N5  UNL     1      -6.731  46.964 -32.872  1.00  0.00     0.083 N 
HETATM   34  C12 UNL     1      -7.531  47.812 -31.985  1.00  0.00     0.272 C 
HETATM   35  H16 UNL     1      -6.121  47.559 -33.436  1.00  0.00     0.315 HD
HETATM   36  C13 UNL     1      -6.661  48.592 -31.007  1.00  0.00     0.062 C 
ENDBRANCH  29  30
ENDBRANCH   7  29
TORSDOF 7
ENDMDL
MODEL 4
REMARK minimizedAffinity -8.33295441
REMARK  7 active torsions:
REMARK  status: ('A' for Active; 'I' for Inactive)
REMARK    1  A    between atoms: O1_2  and  C2_3 
REMARK    2  A    between atoms: C2_3  and  C3_4 
REMARK    3  A    between atoms: C3_4  and  N1_5 
REMARK    4  A    between atoms: C3_4  and  C16_27 
REMARK       I    between atoms: N1_5  and  C4_6 
REMARK       I    between atoms: C4_6  and  N2_8 
REMARK    5  A    between atoms: N2_8  and  C5_9 
REMARK    6  A    between atoms: C8_15  and  O3_16 
REMARK    7  A    between atoms: O3_16  and  C9_17 
ROOT
HETATM    1  C5  UNL     1      -0.073  52.375 -20.442  1.00  0.00     0.111 A 
HETATM    2  C6  UNL     1       0.778  53.108 -19.622  1.00  0.00     0.080 A 
HETATM    3  C7  UNL     1       0.887  52.643 -18.311  1.00  0.00     0.067 A 
HETATM    4  N3  UNL     1       1.602  53.092 -17.231  1.00  0.00    -0.298 N 
HETATM    5  N4  UNL     1       1.437  52.353 -16.117  1.00  0.00    -0.279 N 
ATOM      6  H4  UNL     1       1.858  52.484 -15.197  1.00  0.00     0.189 HD
HETATM    7  C8  UNL     1       0.587  51.408 -16.515  1.00  0.00     0.171 A 
HETATM    8  C14 UNL     1       0.189  51.530 -17.858  1.00  0.00     0.060 A 
HETATM    9  C15 UNL     1      -0.654  50.861 -18.740  1.00  0.00     0.108 A 
HETATM   10  N6  UNL     1      -0.770  51.289 -20.025  1.00  0.00    -0.351 N 
ATOM     11  H6  UNL     1      -1.380  50.793 -20.675  1.00  0.00     0.166 HD
HETATM   12  H10 UNL     1       2.218  53.898 -17.189  1.00  0.00     0.187 HD
ENDROOT
BRANCH   1  13
HETATM   13  N2  UNL     1      -0.308  52.685 -21.781  1.00  0.00    -0.295 N 
HETATM   14  C4  UNL     1      -0.800  51.876 -22.772  1.00  0.00     0.322 C 
HETATM   15  N1  UNL     1      -0.859  52.545 -23.974  1.00  0.00    -0.332 N 
HETATM   16  O2  UNL     1      -1.177  50.719 -22.636  1.00  0.00    -0.247 OA
HETATM   17  H7  UNL     1      -0.293  53.371 -24.063  1.00  0.00     0.165 HD
HETATM   18  H8  UNL     1      -0.165  53.662 -21.978  1.00  0.00     0.172 HD
BRANCH  15  19
HETATM   19  C3  UNL     1      -1.203  51.855 -25.216  1.00  0.00     0.143 C 
BRANCH  19  20
HETATM   20  C2  UNL     1      -1.792  50.445 -24.949  1.00  0.00     0.197 C 
BRANCH  20  21
HETATM   21  O1  UNL     1      -3.041  50.199 -25.604  1.00  0.00    -0.394 OA
HETATM   22  C1  UNL     1      -2.952  49.221 -26.630  1.00  0.00     0.201 C 
ENDBRANCH  20  21
ENDBRANCH  19  20
BRANCH  19  23
HETATM   23  C16 UNL     1       0.025  51.784 -26.113  1.00  0.00    -0.033 A 
HETATM   24  C17 UNL     1       1.320  51.636 -25.590  1.00  0.00     0.009 A 
HETATM   25  C18 UNL     1       2.427  51.565 -26.439  1.00  0.00     0.001 A 
HETATM   26  C19 UNL     1       2.257  51.649 -27.818  1.00  0.00     0.000 A 
HETATM   27  C20 UNL     1       0.981  51.810 -28.352  1.00  0.00     0.001 A 
HETATM   28  C21 UNL     1      -0.128  51.881 -27.506  1.00  0.00     0.009 A 
ENDBRANCH  19  23
ENDBRANCH  15  19
ENDBRANCH   1  13
BRANCH   7  29
HETATM   29  O3  UNL     1       0.176  50.510 -15.602  1.00  0.00    -0.329 OA
BRANCH  29  30
HETATM   30  C9  UNL     1       0.792  50.732 -14.327  1.00  0.00     0.134 C 
HETATM   31  C10 UNL     1       0.276  52.074 -13.797  1.00  0.00     0.062 C 
HETATM   32  C11 UNL     1       1.002  52.469 -12.516  1.00  0.00     0.272 C 
HETATM   33  N5  UNL     1       2.453  52.512 -12.703  1.00  0.00     0.083 N 
HETATM   34  C12 UNL     1       2.968  51.222 -13.167  1.00  0.00     0.272 C 
HETATM   35  H16 UNL     1       2.680  53.228 -13.397  1.00  0.00     0.315 HD
HETATM   36  C13 UNL     1       2.316  50.785 -14.473  1.00  0.00     0.062 C 
ENDBRANCH  29  30
ENDBRANCH   7  29
TORSDOF 7
ENDMDL
MODEL 5
REMARK minimizedAffinity -8.2881403
REMARK  7 active torsions:
REMARK  status: ('A' for Active; 'I' for Inactive)
REMARK    1  A    between atoms: O1_2  and  C2_3 
REMARK    2  A    between atoms: C2_3  and  C3_4 
REMARK    3  A    between atoms: C3_4  and  N1_5 
REMARK    4  A    between atoms: C3_4  and  C16_27 
REMARK       I    between atoms: N1_5  and  C4_6 
REMARK       I    between atoms: C4_6  and  N2_8 
REMARK    5  A    between atoms: N2_8  and  C5_9 
REMARK    6  A    between atoms: C8_15  and  O3_16 
REMARK    7  A    between atoms: O3_16  and  C9_17 
ROOT
HETATM    1  C5  UNL     1      -3.540  49.076 -26.129  1.00  0.00     0.111 A 
HETATM    2  C6  UNL     1      -4.657  48.477 -25.557  1.00  0.00     0.080 A 
HETATM    3  C7  UNL     1      -5.606  48.002 -26.463  1.00  0.00     0.067 A 
HETATM    4  N3  UNL     1      -6.813  47.376 -26.289  1.00  0.00    -0.298 N 
HETATM    5  N4  UNL     1      -7.444  47.069 -27.438  1.00  0.00    -0.279 N 
ATOM      6  H4  UNL     1      -8.343  46.605 -27.567  1.00  0.00     0.189 HD
HETATM    7  C8  UNL     1      -6.601  47.520 -28.365  1.00  0.00     0.171 A 
HETATM    8  C14 UNL     1      -5.446  48.125 -27.838  1.00  0.00     0.060 A 
HETATM    9  C15 UNL     1      -4.304  48.751 -28.329  1.00  0.00     0.108 A 
HETATM   10  N6  UNL     1      -3.361  49.214 -27.466  1.00  0.00    -0.351 N 
ATOM     11  H6  UNL     1      -2.519  49.665 -27.825  1.00  0.00     0.166 HD
HETATM   12  H10 UNL     1      -7.263  47.132 -25.412  1.00  0.00     0.187 HD
ENDROOT
BRANCH   1  13
HETATM   13  N2  UNL     1      -2.486  49.608 -25.386  1.00  0.00    -0.295 N 
HETATM   14  C4  UNL     1      -1.972  50.877 -25.420  1.00  0.00     0.322 C 
HETATM   15  N1  UNL     1      -0.910  51.005 -24.553  1.00  0.00    -0.332 N 
HETATM   16  O2  UNL     1      -2.395  51.808 -26.094  1.00  0.00    -0.247 OA
HETATM   17  H7  UNL     1      -0.463  50.156 -24.254  1.00  0.00     0.165 HD
HETATM   18  H8  UNL     1      -2.148  48.965 -24.688  1.00  0.00     0.172 HD
BRANCH  15  19
HETATM   19  C3  UNL     1      -0.094  52.217 -24.517  1.00  0.00     0.143 C 
BRANCH  19  20
HETATM   20  C2  UNL     1       1.189  52.075 -25.378  1.00  0.00     0.197 C 
BRANCH  20  21
HETATM   21  O1  UNL     1       1.145  52.793 -26.616  1.00  0.00    -0.394 OA
HETATM   22  C1  UNL     1       0.917  51.955 -27.741  1.00  0.00     0.201 C 
ENDBRANCH  20  21
ENDBRANCH  19  20
BRANCH  19  23
HETATM   23  C16 UNL     1       0.242  52.560 -23.073  1.00  0.00    -0.033 A 
HETATM   24  C17 UNL     1      -0.210  51.777 -21.998  1.00  0.00     0.009 A 
HETATM   25  C18 UNL     1       0.121  52.112 -20.683  1.00  0.00     0.001 A 
HETATM   26  C19 UNL     1       0.900  53.236 -20.424  1.00  0.00     0.000 A 
HETATM   27  C20 UNL     1       1.345  54.031 -21.477  1.00  0.00     0.001 A 
HETATM   28  C21 UNL     1       1.015  53.699 -22.792  1.00  0.00     0.009 A 
ENDBRANCH  19  23
ENDBRANCH  15  19
ENDBRANCH   1  13
BRANCH   7  29
HETATM   29  O3  UNL     1      -6.965  47.402 -29.655  1.00  0.00    -0.329 OA
BRANCH  29  30
HETATM   30  C9  UNL     1      -5.887  46.924 -30.468  1.00  0.00     0.134 C 
HETATM   31  C10 UNL     1      -5.727  47.901 -31.637  1.00  0.00     0.062 C 
HETATM   32  C11 UNL     1      -4.707  47.384 -32.645  1.00  0.00     0.272 C 
HETATM   33  N5  UNL     1      -5.052  46.049 -33.133  1.00  0.00     0.083 N 
HETATM   34  C12 UNL     1      -5.164  45.091 -32.030  1.00  0.00     0.272 C 
HETATM   35  H16 UNL     1      -5.946  46.092 -33.625  1.00  0.00     0.315 HD
HETATM   36  C13 UNL     1      -6.203  45.525 -31.004  1.00  0.00     0.062 C 
ENDBRANCH  29  30
ENDBRANCH   7  29
TORSDOF 7
ENDMDL
MODEL 6
REMARK minimizedAffinity -8.26432037
REMARK  7 active torsions:
REMARK  status: ('A' for Active; 'I' for Inactive)
REMARK    1  A    between atoms: O1_2  and  C2_3 
REMARK    2  A    between atoms: C2_3  and  C3_4 
REMARK    3  A    between atoms: C3_4  and  N1_5 
REMARK    4  A    between atoms: C3_4  and  C16_27 
REMARK       I    between atoms: N1_5  and  C4_6 
REMARK       I    between atoms: C4_6  and  N2_8 
REMARK    5  A    between atoms: N2_8  and  C5_9 
REMARK    6  A    between atoms: C8_15  and  O3_16 
REMARK    7  A    between atoms: O3_16  and  C9_17 
ROOT
HETATM    1  C5  UNL     1       1.879  66.104 -36.536  1.00  0.00     0.111 A 
HETATM    2  C6  UNL     1       1.009  67.107 -36.125  1.00  0.00     0.080 A 
HETATM    3  C7  UNL     1       0.512  67.918 -37.146  1.00  0.00     0.067 A 
HETATM    4  N3  UNL     1      -0.342  68.990 -37.137  1.00  0.00    -0.298 N 
HETATM    5  N4  UNL     1      -0.580  69.513 -38.355  1.00  0.00    -0.279 N 
ATOM      6  H4  UNL     1      -1.174  70.304 -38.604  1.00  0.00     0.189 HD
HETATM    7  C8  UNL     1       0.151  68.739 -39.155  1.00  0.00     0.171 A 
HETATM    8  C14 UNL     1       0.869  67.737 -38.477  1.00  0.00     0.060 A 
HETATM    9  C15 UNL     1       1.758  66.718 -38.802  1.00  0.00     0.108 A 
HETATM   10  N6  UNL     1       2.248  65.909 -37.826  1.00  0.00    -0.351 N 
ATOM     11  H6  UNL     1       2.893  65.155 -38.064  1.00  0.00     0.166 HD
HETATM   12  H10 UNL     1      -0.792  69.416 -36.333  1.00  0.00     0.187 HD
ENDROOT
BRANCH   1  13
HETATM   13  N2  UNL     1       2.475  65.194 -35.661  1.00  0.00    -0.295 N 
HETATM   14  C4  UNL     1       3.610  65.350 -34.910  1.00  0.00     0.322 C 
HETATM   15  N1  UNL     1       3.889  64.208 -34.192  1.00  0.00    -0.332 N 
HETATM   16  O2  UNL     1       4.292  66.364 -34.836  1.00  0.00    -0.247 OA
HETATM   17  H7  UNL     1       3.457  63.356 -34.507  1.00  0.00     0.165 HD
HETATM   18  H8  UNL     1       1.916  64.366 -35.532  1.00  0.00     0.172 HD
BRANCH  15  19
HETATM   19  C3  UNL     1       5.130  64.067 -33.433  1.00  0.00     0.143 C 
BRANCH  19  20
HETATM   20  C2  UNL     1       5.976  65.367 -33.463  1.00  0.00     0.197 C 
BRANCH  20  21
HETATM   21  O1  UNL     1       6.238  65.924 -32.170  1.00  0.00    -0.394 OA
HETATM   22  C1  UNL     1       6.882  67.189 -32.226  1.00  0.00     0.201 C 
ENDBRANCH  20  21
ENDBRANCH  19  20
BRANCH  19  23
HETATM   23  C16 UNL     1       5.918  62.880 -33.968  1.00  0.00    -0.033 A 
HETATM   24  C17 UNL     1       7.316  62.915 -34.104  1.00  0.00     0.009 A 
HETATM   25  C18 UNL     1       8.013  61.807 -34.590  1.00  0.00     0.001 A 
HETATM   26  C19 UNL     1       7.324  60.652 -34.953  1.00  0.00     0.000 A 
HETATM   27  C20 UNL     1       5.938  60.605 -34.837  1.00  0.00     0.001 A 
HETATM   28  C21 UNL     1       5.238  61.712 -34.352  1.00  0.00     0.009 A 
ENDBRANCH  19  23
ENDBRANCH  15  19
ENDBRANCH   1  13
BRANCH   7  29
HETATM   29  O3  UNL     1       0.166  69.030 -40.468  1.00  0.00    -0.329 OA
BRANCH  29  30
HETATM   30  C9  UNL     1      -1.008  68.544 -41.131  1.00  0.00     0.134 C 
HETATM   31  C10 UNL     1      -0.593  67.327 -41.963  1.00  0.00     0.062 C 
HETATM   32  C11 UNL     1      -1.747  66.840 -42.831  1.00  0.00     0.272 C 
HETATM   33  N5  UNL     1      -2.264  67.901 -43.694  1.00  0.00     0.083 N 
HETATM   34  C12 UNL     1      -2.709  69.056 -42.911  1.00  0.00     0.272 C 
HETATM   35  H16 UNL     1      -1.528  68.200 -44.336  1.00  0.00     0.315 HD
HETATM   36  C13 UNL     1      -1.587  69.624 -42.050  1.00  0.00     0.062 C 
ENDBRANCH  29  30
ENDBRANCH   7  29
TORSDOF 7
ENDMDL
MODEL 7
REMARK minimizedAffinity -8.09208298
REMARK  7 active torsions:
REMARK  status: ('A' for Active; 'I' for Inactive)
REMARK    1  A    between atoms: O1_2  and  C2_3 
REMARK    2  A    between atoms: C2_3  and  C3_4 
REMARK    3  A    between atoms: C3_4  and  N1_5 
REMARK    4  A    between atoms: C3_4  and  C16_27 
REMARK       I    between atoms: N1_5  and  C4_6 
REMARK       I    between atoms: C4_6  and  N2_8 
REMARK    5  A    between atoms: N2_8  and  C5_9 
REMARK    6  A    between atoms: C8_15  and  O3_16 
REMARK    7  A    between atoms: O3_16  and  C9_17 
ROOT
HETATM    1  C5  UNL     1       0.697  52.070 -19.873  1.00  0.00     0.111 A 
HETATM    2  C6  UNL     1       1.370  52.892 -18.976  1.00  0.00     0.080 A 
HETATM    3  C7  UNL     1       1.196  52.568 -17.630  1.00  0.00     0.067 A 
HETATM    4  N3  UNL     1       1.677  53.134 -16.477  1.00  0.00    -0.298 N 
HETATM    5  N4  UNL     1       1.272  52.516 -15.351  1.00  0.00    -0.279 N 
ATOM      6  H4  UNL     1       1.494  52.747 -14.383  1.00  0.00     0.189 HD
HETATM    7  C8  UNL     1       0.510  51.529 -15.817  1.00  0.00     0.171 A 
HETATM    8  C14 UNL     1       0.402  51.505 -17.218  1.00  0.00     0.060 A 
HETATM    9  C15 UNL     1      -0.249  50.740 -18.182  1.00  0.00     0.108 A 
HETATM   10  N6  UNL     1      -0.088  51.030 -19.500  1.00  0.00    -0.351 N 
ATOM     11  H6  UNL     1      -0.557  50.464 -20.207  1.00  0.00     0.166 HD
HETATM   12  H10 UNL     1       2.283  53.944 -16.392  1.00  0.00     0.187 HD
ENDROOT
BRANCH   1  13
HETATM   13  N2  UNL     1       0.751  52.235 -21.258  1.00  0.00    -0.295 N 
HETATM   14  C4  UNL     1      -0.243  52.044 -22.181  1.00  0.00     0.322 C 
HETATM   15  N1  UNL     1       0.212  52.284 -23.458  1.00  0.00    -0.332 N 
HETATM   16  O2  UNL     1      -1.403  51.733 -21.936  1.00  0.00    -0.247 OA
HETATM   17  H7  UNL     1       1.208  52.264 -23.596  1.00  0.00     0.165 HD
HETATM   18  H8  UNL     1       1.627  52.630 -21.562  1.00  0.00     0.172 HD
BRANCH  15  19
HETATM   19  C3  UNL     1      -0.613  52.000 -24.629  1.00  0.00     0.143 C 
BRANCH  19  20
HETATM   20  C2  UNL     1      -1.460  50.714 -24.441  1.00  0.00     0.197 C 
BRANCH  20  21
HETATM   21  O1  UNL     1      -2.864  50.901 -24.651  1.00  0.00    -0.394 OA
HETATM   22  C1  UNL     1      -3.214  52.254 -24.910  1.00  0.00     0.201 C 
ENDBRANCH  20  21
ENDBRANCH  19  20
BRANCH  19  23
HETATM   23  C16 UNL     1       0.273  51.906 -25.863  1.00  0.00    -0.033 A 
HETATM   24  C17 UNL     1       1.663  51.727 -25.768  1.00  0.00     0.009 A 
HETATM   25  C18 UNL     1       2.450  51.636 -26.918  1.00  0.00     0.001 A 
HETATM   26  C19 UNL     1       1.862  51.730 -28.177  1.00  0.00     0.000 A 
HETATM   27  C20 UNL     1       0.488  51.922 -28.288  1.00  0.00     0.001 A 
HETATM   28  C21 UNL     1      -0.302  52.013 -27.140  1.00  0.00     0.009 A 
ENDBRANCH  19  23
ENDBRANCH  15  19
ENDBRANCH   1  13
BRANCH   7  29
HETATM   29  O3  UNL     1      -0.097  50.729 -14.920  1.00  0.00    -0.329 OA
BRANCH  29  30
HETATM   30  C9  UNL     1      -0.811  51.485 -13.934  1.00  0.00     0.134 C 
HETATM   31  C10 UNL     1      -0.465  50.891 -12.565  1.00  0.00     0.062 C 
HETATM   32  C11 UNL     1      -1.307  51.531 -11.466  1.00  0.00     0.272 C 
HETATM   33  N5  UNL     1      -2.739  51.407 -11.735  1.00  0.00     0.083 N 
HETATM   34  C12 UNL     1      -3.094  52.011 -13.021  1.00  0.00     0.272 C 
HETATM   35  H16 UNL     1      -2.993  50.417 -11.753  1.00  0.00     0.315 HD
HETATM   36  C13 UNL     1      -2.320  51.385 -14.175  1.00  0.00     0.062 C 
ENDBRANCH  29  30
ENDBRANCH   7  29
TORSDOF 7
ENDMDL
MODEL 8
REMARK minimizedAffinity -8.02555275
REMARK  7 active torsions:
REMARK  status: ('A' for Active; 'I' for Inactive)
REMARK    1  A    between atoms: O1_2  and  C2_3 
REMARK    2  A    between atoms: C2_3  and  C3_4 
REMARK    3  A    between atoms: C3_4  and  N1_5 
REMARK    4  A    between atoms: C3_4  and  C16_27 
REMARK       I    between atoms: N1_5  and  C4_6 
REMARK       I    between atoms: C4_6  and  N2_8 
REMARK    5  A    between atoms: N2_8  and  C5_9 
REMARK    6  A    between atoms: C8_15  and  O3_16 
REMARK    7  A    between atoms: O3_16  and  C9_17 
ROOT
HETATM    1  C5  UNL     1      -3.527  49.059 -25.718  1.00  0.00     0.111 A 
HETATM    2  C6  UNL     1      -4.624  48.785 -24.909  1.00  0.00     0.080 A 
HETATM    3  C7  UNL     1      -5.698  48.169 -25.554  1.00  0.00     0.067 A 
HETATM    4  N3  UNL     1      -6.927  47.760 -25.107  1.00  0.00    -0.298 N 
HETATM    5  N4  UNL     1      -7.698  47.196 -26.057  1.00  0.00    -0.279 N 
ATOM      6  H4  UNL     1      -8.641  46.817 -25.971  1.00  0.00     0.189 HD
HETATM    7  C8  UNL     1      -6.921  47.256 -27.138  1.00  0.00     0.171 A 
HETATM    8  C14 UNL     1      -5.672  47.859 -26.908  1.00  0.00     0.060 A 
HETATM    9  C15 UNL     1      -4.539  48.181 -27.650  1.00  0.00     0.108 A 
HETATM   10  N6  UNL     1      -3.477  48.773 -27.043  1.00  0.00    -0.351 N 
ATOM     11  H6  UNL     1      -2.642  49.001 -27.583  1.00  0.00     0.166 HD
HETATM   12  H10 UNL     1      -7.302  47.839 -24.167  1.00  0.00     0.187 HD
ENDROOT
BRANCH   1  13
HETATM   13  N2  UNL     1      -2.361  49.669 -25.254  1.00  0.00    -0.295 N 
HETATM   14  C4  UNL     1      -2.117  51.001 -25.048  1.00  0.00     0.322 C 
HETATM   15  N1  UNL     1      -0.828  51.207 -24.608  1.00  0.00    -0.332 N 
HETATM   16  O2  UNL     1      -2.922  51.912 -25.194  1.00  0.00    -0.247 OA
HETATM   17  H7  UNL     1      -0.168  50.467 -24.774  1.00  0.00     0.165 HD
HETATM   18  H8  UNL     1      -1.668  48.997 -24.963  1.00  0.00     0.172 HD
BRANCH  15  19
HETATM   19  C3  UNL     1      -0.276  52.552 -24.465  1.00  0.00     0.143 C 
BRANCH  19  20
HETATM   20  C2  UNL     1       0.854  52.825 -25.492  1.00  0.00     0.197 C 
BRANCH  20  21
HETATM   21  O1  UNL     1       0.518  53.799 -26.486  1.00  0.00    -0.394 OA
HETATM   22  C1  UNL     1      -0.096  53.236 -27.637  1.00  0.00     0.201 C 
ENDBRANCH  20  21
ENDBRANCH  19  20
BRANCH  19  23
HETATM   23  C16 UNL     1       0.212  52.750 -23.037  1.00  0.00    -0.033 A 
HETATM   24  C17 UNL     1       1.034  53.829 -22.674  1.00  0.00     0.009 A 
HETATM   25  C18 UNL     1       1.460  53.990 -21.354  1.00  0.00     0.001 A 
HETATM   26  C19 UNL     1       1.077  53.070 -20.380  1.00  0.00     0.000 A 
HETATM   27  C20 UNL     1       0.274  51.987 -20.725  1.00  0.00     0.001 A 
HETATM   28  C21 UNL     1      -0.153  51.824 -22.045  1.00  0.00     0.009 A 
ENDBRANCH  19  23
ENDBRANCH  15  19
ENDBRANCH   1  13
BRANCH   7  29
HETATM   29  O3  UNL     1      -7.426  46.800 -28.298  1.00  0.00    -0.329 OA
BRANCH  29  30
HETATM   30  C9  UNL     1      -7.327  47.780 -29.340  1.00  0.00     0.134 C 
HETATM   31  C10 UNL     1      -8.700  48.446 -29.473  1.00  0.00     0.062 C 
HETATM   32  C11 UNL     1      -8.733  49.391 -30.669  1.00  0.00     0.272 C 
HETATM   33  N5  UNL     1      -8.368  48.711 -31.911  1.00  0.00     0.083 N 
HETATM   34  C12 UNL     1      -7.037  48.107 -31.816  1.00  0.00     0.272 C 
HETATM   35  H16 UNL     1      -9.051  47.977 -32.105  1.00  0.00     0.315 HD
HETATM   36  C13 UNL     1      -6.945  47.113 -30.664  1.00  0.00     0.062 C 
ENDBRANCH  29  30
ENDBRANCH   7  29
TORSDOF 7
ENDMDL
MODEL 9
REMARK minimizedAffinity -7.97899199
REMARK  7 active torsions:
REMARK  status: ('A' for Active; 'I' for Inactive)
REMARK    1  A    between atoms: O1_2  and  C2_3 
REMARK    2  A    between atoms: C2_3  and  C3_4 
REMARK    3  A    between atoms: C3_4  and  N1_5 
REMARK    4  A    between atoms: C3_4  and  C16_27 
REMARK       I    between atoms: N1_5  and  C4_6 
REMARK       I    between atoms: C4_6  and  N2_8 
REMARK    5  A    between atoms: N2_8  and  C5_9 
REMARK    6  A    between atoms: C8_15  and  O3_16 
REMARK    7  A    between atoms: O3_16  and  C9_17 
ROOT
HETATM    1  C5  UNL     1       0.781  52.846 -19.097  1.00  0.00     0.111 A 
HETATM    2  C6  UNL     1       1.274  53.703 -20.075  1.00  0.00     0.080 A 
HETATM    3  C7  UNL     1       0.924  53.373 -21.384  1.00  0.00     0.067 A 
HETATM    4  N3  UNL     1       1.217  53.955 -22.590  1.00  0.00    -0.298 N 
HETATM    5  N4  UNL     1       0.680  53.323 -23.651  1.00  0.00    -0.279 N 
ATOM      6  H4  UNL     1       0.754  53.562 -24.640  1.00  0.00     0.189 HD
HETATM    7  C8  UNL     1       0.027  52.308 -23.088  1.00  0.00     0.171 A 
HETATM    8  C14 UNL     1       0.144  52.264 -21.687  1.00  0.00     0.060 A 
HETATM    9  C15 UNL     1      -0.297  51.448 -20.649  1.00  0.00     0.108 A 
HETATM   10  N6  UNL     1       0.023  51.754 -19.364  1.00  0.00    -0.351 N 
ATOM     11  H6  UNL     1      -0.308  51.162 -18.601  1.00  0.00     0.166 HD
HETATM   12  H10 UNL     1       1.781  54.783 -22.757  1.00  0.00     0.187 HD
ENDROOT
BRANCH   1  13
HETATM   13  N2  UNL     1       1.023  53.014 -17.733  1.00  0.00    -0.295 N 
HETATM   14  C4  UNL     1       1.110  52.056 -16.756  1.00  0.00     0.322 C 
HETATM   15  N1  UNL     1       1.332  52.625 -15.522  1.00  0.00    -0.332 N 
HETATM   16  O2  UNL     1       1.037  50.846 -16.926  1.00  0.00    -0.247 OA
HETATM   17  H7  UNL     1       1.110  53.601 -15.426  1.00  0.00     0.165 HD
HETATM   18  H8  UNL     1       1.242  53.969 -17.498  1.00  0.00     0.172 HD
BRANCH  15  19
HETATM   19  C3  UNL     1       1.309  51.828 -14.298  1.00  0.00     0.143 C 
BRANCH  19  20
HETATM   20  C2  UNL     1       1.763  50.367 -14.552  1.00  0.00     0.197 C 
BRANCH  20  21
HETATM   21  O1  UNL     1       1.911  49.585 -13.362  1.00  0.00    -0.394 OA
HETATM   22  C1  UNL     1       2.851  48.528 -13.500  1.00  0.00     0.201 C 
ENDBRANCH  20  21
ENDBRANCH  19  20
BRANCH  19  23
HETATM   23  C16 UNL     1      -0.083  51.880 -13.686  1.00  0.00    -0.033 A 
HETATM   24  C17 UNL     1      -0.350  52.586 -12.502  1.00  0.00     0.009 A 
HETATM   25  C18 UNL     1      -1.640  52.622 -11.968  1.00  0.00     0.001 A 
HETATM   26  C19 UNL     1      -2.679  51.948 -12.605  1.00  0.00     0.000 A 
HETATM   27  C20 UNL     1      -2.429  51.232 -13.773  1.00  0.00     0.001 A 
HETATM   28  C21 UNL     1      -1.140  51.194 -14.308  1.00  0.00     0.009 A 
ENDBRANCH  19  23
ENDBRANCH  15  19
ENDBRANCH   1  13
BRANCH   7  29
HETATM   29  O3  UNL     1      -0.600  51.439 -23.900  1.00  0.00    -0.329 OA
BRANCH  29  30
HETATM   30  C9  UNL     1      -0.690  51.937 -25.241  1.00  0.00     0.134 C 
HETATM   31  C10 UNL     1      -2.176  52.002 -25.606  1.00  0.00     0.062 C 
HETATM   32  C11 UNL     1      -2.361  52.369 -27.075  1.00  0.00     0.272 C 
HETATM   33  N5  UNL     1      -1.653  51.444 -27.960  1.00  0.00     0.083 N 
HETATM   34  C12 UNL     1      -0.221  51.404 -27.653  1.00  0.00     0.272 C 
HETATM   35  H16 UNL     1      -2.042  50.506 -27.846  1.00  0.00     0.315 HD
HETATM   36  C13 UNL     1       0.039  50.998 -26.208  1.00  0.00     0.062 C 
ENDBRANCH  29  30
ENDBRANCH   7  29
TORSDOF 7
ENDMDL
