MODEL 1
REMARK minimizedAffinity -8.20607853
REMARK CNNscore 0.421868712
REMARK CNNaffinity 7.0588975
REMARK  5 active torsions:
REMARK  status: ('A' for Active; 'I' for Inactive)
REMARK    1  A    between atoms: C4_5  and  C5_6 
REMARK    2  A    between atoms: C8_9  and  C9_10 
REMARK    3  A    between atoms: C12_16  and  N3_17 
REMARK       I    between atoms: N3_17  and  C13_18 
REMARK       I    between atoms: C13_18  and  N4_20 
REMARK    4  A    between atoms: N4_20  and  C14_21 
REMARK    5  A    between atoms: C14_21  and  C16_23 
ROOT
HETATM    1  C9  UNL     1       0.050  52.162 -21.496  1.00  0.00     0.073 A 
HETATM    2  N1  UNL     1       0.868  53.094 -22.015  1.00  0.00    -0.299 N 
ATOM      3  H1  UNL     1       0.955  53.374 -22.993  1.00  0.00     0.187 HD
HETATM    4  N2  UNL     1       1.545  53.572 -20.962  1.00  0.00    -0.299 N 
HETATM    5  C10 UNL     1       1.187  53.018 -19.767  1.00  0.00     0.065 A 
HETATM    6  C11 UNL     1       1.627  53.242 -18.463  1.00  0.00     0.080 A 
HETATM    7  C12 UNL     1       0.999  52.484 -17.476  1.00  0.00     0.111 A 
HETATM    8  N5  UNL     1       0.037  51.585 -17.749  1.00  0.00    -0.351 N 
ATOM      9  H5  UNL     1      -0.382  51.048 -16.989  1.00  0.00     0.166 HD
HETATM   10  C22 UNL     1      -0.383  51.382 -19.024  1.00  0.00     0.105 A 
HETATM   11  C23 UNL     1       0.197  52.093 -20.076  1.00  0.00     0.036 A 
HETATM   12  H7  UNL     1       2.241  54.291 -21.129  1.00  0.00     0.187 HD
ENDROOT
BRANCH   7  13
HETATM   13  N3  UNL     1       1.437  52.676 -16.160  1.00  0.00    -0.295 N 
HETATM   14  C13 UNL     1       0.823  52.182 -15.032  1.00  0.00     0.322 C 
HETATM   15  O1  UNL     1      -0.251  51.605 -14.956  1.00  0.00    -0.247 OA
HETATM   16  N4  UNL     1       1.600  52.453 -13.916  1.00  0.00    -0.335 N 
HETATM   17  H10 UNL     1       2.589  52.350 -14.092  1.00  0.00     0.165 HD
HETATM   18  H9  UNL     1       2.157  53.359 -16.002  1.00  0.00     0.172 HD
BRANCH  16  19
HETATM   19  C14 UNL     1       1.169  51.987 -12.602  1.00  0.00     0.115 C 
HETATM   20  C15 UNL     1       0.027  52.838 -12.038  1.00  0.00     0.037 C 
BRANCH  19  21
HETATM   21  C16 UNL     1       2.361  51.974 -11.657  1.00  0.00    -0.036 A 
HETATM   22  C17 UNL     1       2.834  53.179 -11.110  1.00  0.00     0.012 A 
HETATM   23  C18 UNL     1       3.919  53.182 -10.231  1.00  0.00     0.043 A 
HETATM   24  C19 UNL     1       4.532  51.983  -9.895  1.00  0.00     0.116 A 
HETATM   25  F1  UNL     1       5.571  51.987  -9.049  1.00  0.00    -0.206 F 
HETATM   26  C20 UNL     1       4.080  50.778 -10.417  1.00  0.00     0.043 A 
HETATM   27  C21 UNL     1       2.996  50.772 -11.295  1.00  0.00     0.012 A 
ENDBRANCH  19  21
ENDBRANCH  16  19
ENDBRANCH   7  13
BRANCH   1  28
HETATM   28  C8  UNL     1      -0.839  51.395 -22.363  1.00  0.00     0.008 A 
HETATM   29  C7  UNL     1      -1.339  50.153 -21.962  1.00  0.00     0.017 A 
HETATM   30  C6  UNL     1      -2.190  49.436 -22.807  1.00  0.00     0.033 A 
HETATM   31  C5  UNL     1      -2.528  49.975 -24.046  1.00  0.00     0.066 A 
HETATM   32  N6  UNL     1      -2.065  51.188 -24.448  1.00  0.00    -0.363 N 
HETATM   33  C24 UNL     1      -1.248  51.865 -23.603  1.00  0.00     0.102 A 
ATOM     34  H6  UNL     1      -2.323  51.577 -25.355  1.00  0.00     0.165 HD
BRANCH  31  35
HETATM   35  C4  UNL     1      -3.420  49.298 -25.011  1.00  0.00     0.101 A 
HETATM   36  S1  UNL     1      -2.939  49.082 -26.658  1.00  0.00    -0.080 SA
HETATM   37  C3  UNL     1      -4.432  48.322 -26.998  1.00  0.00     0.076 A 
HETATM   38  C2  UNL     1      -5.211  48.274 -25.860  1.00  0.00     0.012 A 
HETATM   39  C1  UNL     1      -6.578  47.706 -25.742  1.00  0.00     0.068 C 
HETATM   40  N7  UNL     1      -4.627  48.834 -24.738  1.00  0.00    -0.352 N 
ATOM     41  H7  UNL     1      -5.069  48.883 -23.821  1.00  0.00     0.166 HD
ENDBRANCH  31  35
ENDBRANCH   1  28
TORSDOF 5
ENDMDL
MODEL 2
REMARK minimizedAffinity -9.18559551
REMARK CNNscore 0.415820837
REMARK CNNaffinity 6.99444056
REMARK  5 active torsions:
REMARK  status: ('A' for Active; 'I' for Inactive)
REMARK    1  A    between atoms: C4_5  and  C5_6 
REMARK    2  A    between atoms: C8_9  and  C9_10 
REMARK    3  A    between atoms: C12_16  and  N3_17 
REMARK       I    between atoms: N3_17  and  C13_18 
REMARK       I    between atoms: C13_18  and  N4_20 
REMARK    4  A    between atoms: N4_20  and  C14_21 
REMARK    5  A    between atoms: C14_21  and  C16_23 
ROOT
HETATM    1  C9  UNL     1       0.102  52.603 -20.856  1.00  0.00     0.073 A 
HETATM    2  N1  UNL     1       0.822  53.738 -20.860  1.00  0.00    -0.299 N 
ATOM      3  H1  UNL     1       0.970  54.380 -21.640  1.00  0.00     0.187 HD
HETATM    4  N2  UNL     1       1.301  53.838 -19.613  1.00  0.00    -0.299 N 
HETATM    5  C10 UNL     1       0.904  52.834 -18.778  1.00  0.00     0.065 A 
HETATM    6  C11 UNL     1       1.162  52.582 -17.430  1.00  0.00     0.080 A 
HETATM    7  C12 UNL     1       0.553  51.444 -16.903  1.00  0.00     0.111 A 
HETATM    8  N5  UNL     1      -0.227  50.629 -17.635  1.00  0.00    -0.351 N 
ATOM      9  H5  UNL     1      -0.639  49.802 -17.202  1.00  0.00     0.166 HD
HETATM   10  C22 UNL     1      -0.472  50.893 -18.945  1.00  0.00     0.105 A 
HETATM   11  C23 UNL     1       0.105  52.006 -19.556  1.00  0.00     0.036 A 
HETATM   12  H7  UNL     1       1.895  54.631 -19.392  1.00  0.00     0.187 HD
ENDROOT
BRANCH   7  13
HETATM   13  N3  UNL     1       0.813  51.156 -15.558  1.00  0.00    -0.295 N 
HETATM   14  C13 UNL     1       1.941  51.529 -14.863  1.00  0.00     0.322 C 
HETATM   15  O1  UNL     1       2.950  52.057 -15.303  1.00  0.00    -0.247 OA
HETATM   16  N4  UNL     1       1.802  51.192 -13.525  1.00  0.00    -0.335 N 
HETATM   17  H10 UNL     1       0.867  51.345 -13.177  1.00  0.00     0.165 HD
HETATM   18  H9  UNL     1       0.218  50.489 -15.099  1.00  0.00     0.172 HD
BRANCH  16  19
HETATM   19  C14 UNL     1       2.862  51.527 -12.580  1.00  0.00     0.115 C 
HETATM   20  C15 UNL     1       3.290  50.316 -11.745  1.00  0.00     0.037 C 
BRANCH  19  21
HETATM   21  C16 UNL     1       2.398  52.671 -11.689  1.00  0.00    -0.036 A 
HETATM   22  C17 UNL     1       3.336  53.382 -10.920  1.00  0.00     0.012 A 
HETATM   23  C18 UNL     1       2.928  54.441 -10.108  1.00  0.00     0.043 A 
HETATM   24  C19 UNL     1       1.585  54.794 -10.062  1.00  0.00     0.116 A 
HETATM   25  F1  UNL     1       1.196  55.813  -9.284  1.00  0.00    -0.206 F 
HETATM   26  C20 UNL     1       0.642  54.110 -10.817  1.00  0.00     0.043 A 
HETATM   27  C21 UNL     1       1.046  53.051 -11.630  1.00  0.00     0.012 A 
ENDBRANCH  19  21
ENDBRANCH  16  19
ENDBRANCH   7  13
BRANCH   1  28
HETATM   28  C8  UNL     1      -0.562  52.144 -22.072  1.00  0.00     0.008 A 
HETATM   29  C7  UNL     1      -1.866  51.644 -22.034  1.00  0.00     0.017 A 
HETATM   30  C6  UNL     1      -2.484  51.210 -23.210  1.00  0.00     0.033 A 
HETATM   31  C5  UNL     1      -1.782  51.286 -24.411  1.00  0.00     0.066 A 
HETATM   32  N6  UNL     1      -0.519  51.783 -24.472  1.00  0.00    -0.363 N 
HETATM   33  C24 UNL     1       0.051  52.203 -23.315  1.00  0.00     0.102 A 
ATOM     34  H6  UNL     1      -0.016  51.839 -25.357  1.00  0.00     0.165 HD
BRANCH  31  35
HETATM   35  C4  UNL     1      -2.345  50.855 -25.709  1.00  0.00     0.101 A 
HETATM   36  S1  UNL     1      -2.311  51.908 -27.080  1.00  0.00    -0.080 SA
HETATM   37  C3  UNL     1      -3.113  50.723 -28.015  1.00  0.00     0.076 A 
HETATM   38  C2  UNL     1      -3.366  49.604 -27.248  1.00  0.00     0.012 A 
HETATM   39  C1  UNL     1      -4.054  48.363 -27.686  1.00  0.00     0.068 C 
HETATM   40  N7  UNL     1      -2.928  49.692 -25.939  1.00  0.00    -0.352 N 
ATOM     41  H7  UNL     1      -3.039  48.955 -25.243  1.00  0.00     0.166 HD
ENDBRANCH  31  35
ENDBRANCH   1  28
TORSDOF 5
ENDMDL
MODEL 3
REMARK minimizedAffinity -9.42913818
REMARK CNNscore 0.325711548
REMARK CNNaffinity 6.8634057
REMARK  5 active torsions:
REMARK  status: ('A' for Active; 'I' for Inactive)
REMARK    1  A    between atoms: C4_5  and  C5_6 
REMARK    2  A    between atoms: C8_9  and  C9_10 
REMARK    3  A    between atoms: C12_16  and  N3_17 
REMARK       I    between atoms: N3_17  and  C13_18 
REMARK       I    between atoms: C13_18  and  N4_20 
REMARK    4  A    between atoms: N4_20  and  C14_21 
REMARK    5  A    between atoms: C14_21  and  C16_23 
ROOT
HETATM    1  C9  UNL     1       0.229  52.293 -20.417  1.00  0.00     0.073 A 
HETATM    2  N1  UNL     1       1.134  53.277 -20.277  1.00  0.00    -0.299 N 
ATOM      3  H1  UNL     1       1.515  53.883 -21.005  1.00  0.00     0.187 HD
HETATM    4  N2  UNL     1       1.424  53.285 -18.968  1.00  0.00    -0.299 N 
HETATM    5  C10 UNL     1       0.727  52.369 -18.235  1.00  0.00     0.065 A 
HETATM    6  C11 UNL     1       0.722  52.071 -16.872  1.00  0.00     0.080 A 
HETATM    7  C12 UNL     1      -0.158  51.063 -16.479  1.00  0.00     0.111 A 
HETATM    8  N5  UNL     1      -0.949  50.407 -17.346  1.00  0.00    -0.351 N 
ATOM      9  H5  UNL     1      -1.566  49.669 -17.006  1.00  0.00     0.166 HD
HETATM   10  C22 UNL     1      -0.935  50.714 -18.669  1.00  0.00     0.105 A 
HETATM   11  C23 UNL     1      -0.079  51.704 -19.151  1.00  0.00     0.036 A 
HETATM   12  H7  UNL     1       2.110  53.955 -18.636  1.00  0.00     0.187 HD
ENDROOT
BRANCH   7  13
HETATM   13  N3  UNL     1      -0.167  50.730 -15.119  1.00  0.00    -0.295 N 
HETATM   14  C13 UNL     1       0.132  51.586 -14.084  1.00  0.00     0.322 C 
HETATM   15  O1  UNL     1       0.563  52.725 -14.155  1.00  0.00    -0.247 OA
HETATM   16  N4  UNL     1      -0.107  50.957 -12.871  1.00  0.00    -0.335 N 
HETATM   17  H10 UNL     1      -0.934  50.379 -12.884  1.00  0.00     0.165 HD
HETATM   18  H9  UNL     1      -0.232  49.757 -14.877  1.00  0.00     0.172 HD
BRANCH  16  19
HETATM   19  C14 UNL     1       0.100  51.686 -11.624  1.00  0.00     0.115 C 
HETATM   20  C15 UNL     1       0.562  50.764 -10.490  1.00  0.00     0.037 C 
BRANCH  19  21
HETATM   21  C16 UNL     1      -1.181  52.416 -11.249  1.00  0.00    -0.036 A 
HETATM   22  C17 UNL     1      -2.422  51.772 -11.395  1.00  0.00     0.012 A 
HETATM   23  C18 UNL     1      -3.604  52.425 -11.043  1.00  0.00     0.043 A 
HETATM   24  C19 UNL     1      -3.552  53.719 -10.543  1.00  0.00     0.116 A 
HETATM   25  F1  UNL     1      -4.688  54.343 -10.203  1.00  0.00    -0.206 F 
HETATM   26  C20 UNL     1      -2.338  54.374 -10.384  1.00  0.00     0.043 A 
HETATM   27  C21 UNL     1      -1.154  53.725 -10.734  1.00  0.00     0.012 A 
ENDBRANCH  19  21
ENDBRANCH  16  19
ENDBRANCH   7  13
BRANCH   1  28
HETATM   28  C8  UNL     1      -0.311  51.967 -21.733  1.00  0.00     0.008 A 
HETATM   29  C7  UNL     1       0.278  52.469 -22.896  1.00  0.00     0.017 A 
HETATM   30  C6  UNL     1      -0.255  52.144 -24.147  1.00  0.00     0.033 A 
HETATM   31  C5  UNL     1      -1.375  51.318 -24.212  1.00  0.00     0.066 A 
HETATM   32  N6  UNL     1      -1.952  50.807 -23.094  1.00  0.00    -0.363 N 
HETATM   33  C24 UNL     1      -1.408  51.134 -21.895  1.00  0.00     0.102 A 
ATOM     34  H6  UNL     1      -2.769  50.199 -23.153  1.00  0.00     0.165 HD
BRANCH  31  35
HETATM   35  C4  UNL     1      -2.013  50.914 -25.483  1.00  0.00     0.101 A 
HETATM   36  S1  UNL     1      -2.136  52.024 -26.802  1.00  0.00    -0.080 SA
HETATM   37  C3  UNL     1      -2.948  50.839 -27.730  1.00  0.00     0.076 A 
HETATM   38  C2  UNL     1      -3.084  49.677 -26.999  1.00  0.00     0.012 A 
HETATM   39  C1  UNL     1      -3.741  48.421 -27.443  1.00  0.00     0.068 C 
HETATM   40  N7  UNL     1      -2.552  49.732 -25.724  1.00  0.00    -0.352 N 
ATOM     41  H7  UNL     1      -2.573  48.961 -25.057  1.00  0.00     0.166 HD
ENDBRANCH  31  35
ENDBRANCH   1  28
TORSDOF 5
ENDMDL
MODEL 4
REMARK minimizedAffinity -9.21591473
REMARK CNNscore 0.282304823
REMARK CNNaffinity 6.64670897
REMARK  5 active torsions:
REMARK  status: ('A' for Active; 'I' for Inactive)
REMARK    1  A    between atoms: C4_5  and  C5_6 
REMARK    2  A    between atoms: C8_9  and  C9_10 
REMARK    3  A    between atoms: C12_16  and  N3_17 
REMARK       I    between atoms: N3_17  and  C13_18 
REMARK       I    between atoms: C13_18  and  N4_20 
REMARK    4  A    between atoms: N4_20  and  C14_21 
REMARK    5  A    between atoms: C14_21  and  C16_23 
ROOT
HETATM    1  C9  UNL     1      -0.128  52.156 -20.179  1.00  0.00     0.073 A 
HETATM    2  N1  UNL     1       0.406  53.375 -20.371  1.00  0.00    -0.299 N 
ATOM      3  H1  UNL     1       0.337  53.963 -21.202  1.00  0.00     0.187 HD
HETATM    4  N2  UNL     1       1.051  53.644 -19.227  1.00  0.00    -0.299 N 
HETATM    5  C10 UNL     1       0.939  52.669 -18.278  1.00  0.00     0.065 A 
HETATM    6  C11 UNL     1       1.434  52.568 -16.978  1.00  0.00     0.080 A 
HETATM    7  C12 UNL     1       1.087  51.406 -16.290  1.00  0.00     0.111 A 
HETATM    8  N5  UNL     1       0.334  50.434 -16.833  1.00  0.00    -0.351 N 
ATOM      9  H5  UNL     1       0.119  49.599 -16.288  1.00  0.00     0.166 HD
HETATM   10  C22 UNL     1      -0.144  50.551 -18.098  1.00  0.00     0.105 A 
HETATM   11  C23 UNL     1       0.161  51.677 -18.863  1.00  0.00     0.036 A 
HETATM   12  H7  UNL     1       1.547  54.526 -19.155  1.00  0.00     0.187 HD
ENDROOT
BRANCH   7  13
HETATM   13  N3  UNL     1       1.589  51.271 -14.989  1.00  0.00    -0.295 N 
HETATM   14  C13 UNL     1       1.041  51.829 -13.858  1.00  0.00     0.322 C 
HETATM   15  O1  UNL     1       0.114  52.620 -13.787  1.00  0.00    -0.247 OA
HETATM   16  N4  UNL     1       1.720  51.379 -12.735  1.00  0.00    -0.335 N 
HETATM   17  H10 UNL     1       1.979  50.406 -12.797  1.00  0.00     0.165 HD
HETATM   18  H9  UNL     1       2.508  50.879 -14.882  1.00  0.00     0.172 HD
BRANCH  16  19
HETATM   19  C14 UNL     1       1.289  51.807 -11.408  1.00  0.00     0.115 C 
HETATM   20  C15 UNL     1      -0.238  51.820 -11.277  1.00  0.00     0.037 C 
BRANCH  19  21
HETATM   21  C16 UNL     1       1.877  53.177 -11.105  1.00  0.00    -0.036 A 
HETATM   22  C17 UNL     1       3.267  53.371 -11.169  1.00  0.00     0.012 A 
HETATM   23  C18 UNL     1       3.820  54.626 -10.906  1.00  0.00     0.043 A 
HETATM   24  C19 UNL     1       2.988  55.688 -10.580  1.00  0.00     0.116 A 
HETATM   25  F1  UNL     1       3.520  56.892 -10.330  1.00  0.00    -0.206 F 
HETATM   26  C20 UNL     1       1.611  55.523 -10.516  1.00  0.00     0.043 A 
HETATM   27  C21 UNL     1       1.055  54.271 -10.779  1.00  0.00     0.012 A 
ENDBRANCH  19  21
ENDBRANCH  16  19
ENDBRANCH   7  13
BRANCH   1  28
HETATM   28  C8  UNL     1      -0.896  51.511 -21.240  1.00  0.00     0.008 A 
HETATM   29  C7  UNL     1      -0.425  51.484 -22.554  1.00  0.00     0.017 A 
HETATM   30  C6  UNL     1      -1.176  50.861 -23.554  1.00  0.00     0.033 A 
HETATM   31  C5  UNL     1      -2.393  50.271 -23.219  1.00  0.00     0.066 A 
HETATM   32  N6  UNL     1      -2.861  50.273 -21.944  1.00  0.00    -0.363 N 
HETATM   33  C24 UNL     1      -2.106  50.879 -20.994  1.00  0.00     0.102 A 
ATOM     34  H6  UNL     1      -3.751  49.833 -21.708  1.00  0.00     0.165 HD
BRANCH  31  35
HETATM   35  C4  UNL     1      -3.261  49.586 -24.201  1.00  0.00     0.101 A 
HETATM   36  S1  UNL     1      -4.764  48.884 -23.714  1.00  0.00    -0.080 SA
HETATM   37  C3  UNL     1      -5.038  48.349 -25.314  1.00  0.00     0.076 A 
HETATM   38  C2  UNL     1      -3.987  48.723 -26.126  1.00  0.00     0.012 A 
HETATM   39  C1  UNL     1      -3.840  48.439 -27.576  1.00  0.00     0.068 C 
HETATM   40  N7  UNL     1      -2.982  49.423 -25.482  1.00  0.00    -0.352 N 
ATOM     41  H7  UNL     1      -2.137  49.767 -25.937  1.00  0.00     0.166 HD
ENDBRANCH  31  35
ENDBRANCH   1  28
TORSDOF 5
ENDMDL
MODEL 5
REMARK minimizedAffinity -8.05901718
REMARK CNNscore 0.201078281
REMARK CNNaffinity 6.61196566
REMARK  5 active torsions:
REMARK  status: ('A' for Active; 'I' for Inactive)
REMARK    1  A    between atoms: C4_5  and  C5_6 
REMARK    2  A    between atoms: C8_9  and  C9_10 
REMARK    3  A    between atoms: C12_16  and  N3_17 
REMARK       I    between atoms: N3_17  and  C13_18 
REMARK       I    between atoms: C13_18  and  N4_20 
REMARK    4  A    between atoms: N4_20  and  C14_21 
REMARK    5  A    between atoms: C14_21  and  C16_23 
ROOT
HETATM    1  C9  UNL     1       0.038  52.399 -20.768  1.00  0.00     0.073 A 
HETATM    2  N1  UNL     1       0.696  53.571 -20.742  1.00  0.00    -0.299 N 
ATOM      3  H1  UNL     1       0.817  54.236 -21.507  1.00  0.00     0.187 HD
HETATM    4  N2  UNL     1       1.157  53.671 -19.488  1.00  0.00    -0.299 N 
HETATM    5  C10 UNL     1       0.806  52.631 -18.677  1.00  0.00     0.065 A 
HETATM    6  C11 UNL     1       1.063  52.366 -17.332  1.00  0.00     0.080 A 
HETATM    7  C12 UNL     1       0.510  51.187 -16.834  1.00  0.00     0.111 A 
HETATM    8  N5  UNL     1      -0.218  50.346 -17.590  1.00  0.00    -0.351 N 
ATOM      9  H5  UNL     1      -0.590  49.491 -17.177  1.00  0.00     0.166 HD
HETATM   10  C22 UNL     1      -0.463  50.623 -18.896  1.00  0.00     0.105 A 
HETATM   11  C23 UNL     1       0.059  51.778 -19.480  1.00  0.00     0.036 A 
HETATM   12  H7  UNL     1       1.705  54.490 -19.245  1.00  0.00     0.187 HD
ENDROOT
BRANCH   7  13
HETATM   13  N3  UNL     1       0.772  50.887 -15.491  1.00  0.00    -0.295 N 
HETATM   14  C13 UNL     1       1.007  49.630 -14.984  1.00  0.00     0.322 C 
HETATM   15  O1  UNL     1       0.916  48.559 -15.564  1.00  0.00    -0.247 OA
HETATM   16  N4  UNL     1       1.358  49.721 -13.645  1.00  0.00    -0.335 N 
HETATM   17  H10 UNL     1       1.953  50.512 -13.449  1.00  0.00     0.165 HD
HETATM   18  H9  UNL     1       0.616  51.610 -14.811  1.00  0.00     0.172 HD
BRANCH  16  19
HETATM   19  C14 UNL     1       1.695  48.512 -12.900  1.00  0.00     0.115 C 
HETATM   20  C15 UNL     1       0.475  47.917 -12.191  1.00  0.00     0.037 C 
BRANCH  19  21
HETATM   21  C16 UNL     1       2.807  48.825 -11.909  1.00  0.00    -0.036 A 
HETATM   22  C17 UNL     1       2.839  48.171 -10.665  1.00  0.00     0.012 A 
HETATM   23  C18 UNL     1       3.859  48.438  -9.751  1.00  0.00     0.043 A 
HETATM   24  C19 UNL     1       4.850  49.356 -10.076  1.00  0.00     0.116 A 
HETATM   25  F1  UNL     1       5.830  49.608  -9.198  1.00  0.00    -0.206 F 
HETATM   26  C20 UNL     1       4.843  50.010 -11.300  1.00  0.00     0.043 A 
HETATM   27  C21 UNL     1       3.825  49.745 -12.217  1.00  0.00     0.012 A 
ENDBRANCH  19  21
ENDBRANCH  16  19
ENDBRANCH   7  13
BRANCH   1  28
HETATM   28  C8  UNL     1      -0.590  51.930 -21.999  1.00  0.00     0.008 A 
HETATM   29  C7  UNL     1      -1.486  50.859 -21.988  1.00  0.00     0.017 A 
HETATM   30  C6  UNL     1      -2.075  50.427 -23.179  1.00  0.00     0.033 A 
HETATM   31  C5  UNL     1      -1.756  51.078 -24.368  1.00  0.00     0.066 A 
HETATM   32  N6  UNL     1      -0.898  52.131 -24.399  1.00  0.00    -0.363 N 
HETATM   33  C24 UNL     1      -0.348  52.533 -23.226  1.00  0.00     0.102 A 
ATOM     34  H6  UNL     1      -0.675  52.604 -25.274  1.00  0.00     0.165 HD
BRANCH  31  35
HETATM   35  C4  UNL     1      -2.325  50.700 -25.679  1.00  0.00     0.101 A 
HETATM   36  S1  UNL     1      -2.211  51.768 -27.034  1.00  0.00    -0.080 SA
HETATM   37  C3  UNL     1      -3.068  50.645 -27.997  1.00  0.00     0.076 A 
HETATM   38  C2  UNL     1      -3.396  49.532 -27.250  1.00  0.00     0.012 A 
HETATM   39  C1  UNL     1      -4.149  48.340 -27.716  1.00  0.00     0.068 C 
HETATM   40  N7  UNL     1      -2.971  49.576 -25.934  1.00  0.00    -0.352 N 
ATOM     41  H7  UNL     1      -3.135  48.837 -25.251  1.00  0.00     0.166 HD
ENDBRANCH  31  35
ENDBRANCH   1  28
TORSDOF 5
ENDMDL
MODEL 6
REMARK minimizedAffinity -9.25678444
REMARK CNNscore 0.172229648
REMARK CNNaffinity 6.70601034
REMARK  5 active torsions:
REMARK  status: ('A' for Active; 'I' for Inactive)
REMARK    1  A    between atoms: C4_5  and  C5_6 
REMARK    2  A    between atoms: C8_9  and  C9_10 
REMARK    3  A    between atoms: C12_16  and  N3_17 
REMARK       I    between atoms: N3_17  and  C13_18 
REMARK       I    between atoms: C13_18  and  N4_20 
REMARK    4  A    between atoms: N4_20  and  C14_21 
REMARK    5  A    between atoms: C14_21  and  C16_23 
ROOT
HETATM    1  C9  UNL     1       0.647  52.503 -19.370  1.00  0.00     0.073 A 
HETATM    2  N1  UNL     1       1.674  53.296 -19.019  1.00  0.00    -0.299 N 
ATOM      3  H1  UNL     1       2.227  53.905 -19.623  1.00  0.00     0.187 HD
HETATM    4  N2  UNL     1       1.809  53.108 -17.699  1.00  0.00    -0.299 N 
HETATM    5  C10 UNL     1       0.896  52.248 -17.159  1.00  0.00     0.065 A 
HETATM    6  C11 UNL     1       0.688  51.804 -15.853  1.00  0.00     0.080 A 
HETATM    7  C12 UNL     1      -0.379  50.925 -15.679  1.00  0.00     0.111 A 
HETATM    8  N5  UNL     1      -1.159  50.514 -16.695  1.00  0.00    -0.351 N 
ATOM      9  H5  UNL     1      -1.920  49.859 -16.513  1.00  0.00     0.166 HD
HETATM   10  C22 UNL     1      -0.945  50.960 -17.959  1.00  0.00     0.105 A 
HETATM   11  C23 UNL     1       0.106  51.837 -18.226  1.00  0.00     0.036 A 
HETATM   12  H7  UNL     1       2.549  53.609 -17.219  1.00  0.00     0.187 HD
ENDROOT
BRANCH   7  13
HETATM   13  N3  UNL     1      -0.597  50.448 -14.380  1.00  0.00    -0.295 N 
HETATM   14  C13 UNL     1      -1.507  50.957 -13.483  1.00  0.00     0.322 C 
HETATM   15  O1  UNL     1      -2.189  51.963 -13.598  1.00  0.00    -0.247 OA
HETATM   16  N4  UNL     1      -1.546  50.160 -12.348  1.00  0.00    -0.335 N 
HETATM   17  H10 UNL     1      -1.474  49.176 -12.558  1.00  0.00     0.165 HD
HETATM   18  H9  UNL     1       0.067  49.793 -14.005  1.00  0.00     0.172 HD
BRANCH  16  19
HETATM   19  C14 UNL     1      -2.472  50.482 -11.268  1.00  0.00     0.115 C 
HETATM   20  C15 UNL     1      -3.928  50.209 -11.661  1.00  0.00     0.037 C 
BRANCH  19  21
HETATM   21  C16 UNL     1      -2.280  51.934 -10.855  1.00  0.00    -0.036 A 
HETATM   22  C17 UNL     1      -1.006  52.390 -10.476  1.00  0.00     0.012 A 
HETATM   23  C18 UNL     1      -0.811  53.722 -10.106  1.00  0.00     0.043 A 
HETATM   24  C19 UNL     1      -1.886  54.601 -10.117  1.00  0.00     0.116 A 
HETATM   25  F1  UNL     1      -1.696  55.880  -9.765  1.00  0.00    -0.206 F 
HETATM   26  C20 UNL     1      -3.152  54.176 -10.493  1.00  0.00     0.043 A 
HETATM   27  C21 UNL     1      -3.350  52.845 -10.863  1.00  0.00     0.012 A 
ENDBRANCH  19  21
ENDBRANCH  16  19
ENDBRANCH   7  13
BRANCH   1  28
HETATM   28  C8  UNL     1       0.217  52.423 -20.763  1.00  0.00     0.008 A 
HETATM   29  C7  UNL     1      -0.996  51.825 -21.108  1.00  0.00     0.017 A 
HETATM   30  C6  UNL     1      -1.388  51.759 -22.448  1.00  0.00     0.033 A 
HETATM   31  C5  UNL     1      -0.554  52.297 -23.425  1.00  0.00     0.066 A 
HETATM   32  N6  UNL     1       0.623  52.897 -23.108  1.00  0.00    -0.363 N 
HETATM   33  C24 UNL     1       0.973  52.952 -21.799  1.00  0.00     0.102 A 
ATOM     34  H6  UNL     1       1.225  53.292 -23.832  1.00  0.00     0.165 HD
BRANCH  31  35
HETATM   35  C4  UNL     1      -0.877  52.280 -24.867  1.00  0.00     0.101 A 
HETATM   36  S1  UNL     1      -1.724  50.946 -25.569  1.00  0.00    -0.080 SA
HETATM   37  C3  UNL     1      -1.637  51.692 -27.104  1.00  0.00     0.076 A 
HETATM   38  C2  UNL     1      -0.976  52.899 -27.008  1.00  0.00     0.012 A 
HETATM   39  C1  UNL     1      -0.685  53.843 -28.118  1.00  0.00     0.068 C 
HETATM   40  N7  UNL     1      -0.547  53.222 -25.734  1.00  0.00    -0.352 N 
ATOM     41  H7  UNL     1      -0.041  54.074 -25.495  1.00  0.00     0.166 HD
ENDBRANCH  31  35
ENDBRANCH   1  28
TORSDOF 5
ENDMDL
MODEL 7
REMARK minimizedAffinity -9.5152359
REMARK CNNscore 0.165093511
REMARK CNNaffinity 6.1787734
REMARK  5 active torsions:
REMARK  status: ('A' for Active; 'I' for Inactive)
REMARK    1  A    between atoms: C4_5  and  C5_6 
REMARK    2  A    between atoms: C8_9  and  C9_10 
REMARK    3  A    between atoms: C12_16  and  N3_17 
REMARK       I    between atoms: N3_17  and  C13_18 
REMARK       I    between atoms: C13_18  and  N4_20 
REMARK    4  A    between atoms: N4_20  and  C14_21 
REMARK    5  A    between atoms: C14_21  and  C16_23 
ROOT
HETATM    1  C9  UNL     1      -0.363  50.511 -19.226  1.00  0.00     0.073 A 
HETATM    2  N1  UNL     1      -0.901  49.357 -18.794  1.00  0.00    -0.299 N 
ATOM      3  H1  UNL     1      -1.335  48.623 -19.355  1.00  0.00     0.187 HD
HETATM    4  N2  UNL     1      -0.742  49.389 -17.464  1.00  0.00    -0.299 N 
HETATM    5  C10 UNL     1      -0.094  50.498 -17.003  1.00  0.00     0.065 A 
HETATM    6  C11 UNL     1       0.275  50.899 -15.719  1.00  0.00     0.080 A 
HETATM    7  C12 UNL     1       0.957  52.112 -15.640  1.00  0.00     0.111 A 
HETATM    8  N5  UNL     1       1.239  52.862 -16.720  1.00  0.00    -0.351 N 
ATOM      9  H5  UNL     1       1.731  53.748 -16.603  1.00  0.00     0.166 HD
HETATM   10  C22 UNL     1       0.875  52.454 -17.963  1.00  0.00     0.105 A 
HETATM   11  C23 UNL     1       0.182  51.256 -18.134  1.00  0.00     0.036 A 
HETATM   12  H7  UNL     1      -1.096  48.606 -16.923  1.00  0.00     0.187 HD
ENDROOT
BRANCH   7  13
HETATM   13  N3  UNL     1       1.322  52.547 -14.360  1.00  0.00    -0.295 N 
HETATM   14  C13 UNL     1       1.901  51.768 -13.384  1.00  0.00     0.322 C 
HETATM   15  O1  UNL     1       2.090  50.562 -13.404  1.00  0.00    -0.247 OA
HETATM   16  N4  UNL     1       2.245  52.556 -12.296  1.00  0.00    -0.335 N 
HETATM   17  H10 UNL     1       2.608  53.459 -12.564  1.00  0.00     0.165 HD
HETATM   18  H9  UNL     1       0.992  53.448 -14.061  1.00  0.00     0.172 HD
BRANCH  16  19
HETATM   19  C14 UNL     1       2.914  51.953 -11.148  1.00  0.00     0.115 C 
HETATM   20  C15 UNL     1       1.917  51.491 -10.081  1.00  0.00     0.037 C 
BRANCH  19  21
HETATM   21  C16 UNL     1       3.914  52.944 -10.570  1.00  0.00    -0.036 A 
HETATM   22  C17 UNL     1       4.968  52.484  -9.762  1.00  0.00     0.012 A 
HETATM   23  C18 UNL     1       5.900  53.380  -9.236  1.00  0.00     0.043 A 
HETATM   24  C19 UNL     1       5.784  54.735  -9.515  1.00  0.00     0.116 A 
HETATM   25  F1  UNL     1       6.681  55.593  -9.011  1.00  0.00    -0.206 F 
HETATM   26  C20 UNL     1       4.755  55.213 -10.316  1.00  0.00     0.043 A 
HETATM   27  C21 UNL     1       3.822  54.321 -10.844  1.00  0.00     0.012 A 
ENDBRANCH  19  21
ENDBRANCH  16  19
ENDBRANCH   7  13
BRANCH   1  28
HETATM   28  C8  UNL     1      -0.374  50.846 -20.647  1.00  0.00     0.008 A 
HETATM   29  C7  UNL     1       0.429  51.871 -21.151  1.00  0.00     0.017 A 
HETATM   30  C6  UNL     1       0.402  52.175 -22.514  1.00  0.00     0.033 A 
HETATM   31  C5  UNL     1      -0.433  51.443 -23.356  1.00  0.00     0.066 A 
HETATM   32  N6  UNL     1      -1.210  50.432 -22.888  1.00  0.00    -0.363 N 
HETATM   33  C24 UNL     1      -1.157  50.155 -21.561  1.00  0.00     0.102 A 
ATOM     34  H6  UNL     1      -1.815  49.899 -23.513  1.00  0.00     0.165 HD
BRANCH  31  35
HETATM   35  C4  UNL     1      -0.533  51.685 -24.810  1.00  0.00     0.101 A 
HETATM   36  S1  UNL     1      -2.030  52.174 -25.525  1.00  0.00    -0.080 SA
HETATM   37  C3  UNL     1      -1.295  52.185 -27.068  1.00  0.00     0.076 A 
HETATM   38  C2  UNL     1       0.031  51.819 -26.965  1.00  0.00     0.012 A 
HETATM   39  C1  UNL     1       1.007  51.695 -28.077  1.00  0.00     0.068 C 
HETATM   40  N7  UNL     1       0.452  51.534 -25.679  1.00  0.00    -0.352 N 
ATOM     41  H7  UNL     1       1.398  51.246 -25.432  1.00  0.00     0.166 HD
ENDBRANCH  31  35
ENDBRANCH   1  28
TORSDOF 5
ENDMDL
MODEL 8
REMARK minimizedAffinity -8.59247398
REMARK CNNscore 0.16487515
REMARK CNNaffinity 7.06181002
REMARK  5 active torsions:
REMARK  status: ('A' for Active; 'I' for Inactive)
REMARK    1  A    between atoms: C4_5  and  C5_6 
REMARK    2  A    between atoms: C8_9  and  C9_10 
REMARK    3  A    between atoms: C12_16  and  N3_17 
REMARK       I    between atoms: N3_17  and  C13_18 
REMARK       I    between atoms: C13_18  and  N4_20 
REMARK    4  A    between atoms: N4_20  and  C14_21 
REMARK    5  A    between atoms: C14_21  and  C16_23 
ROOT
HETATM    1  C9  UNL     1      -1.492  51.217 -25.616  1.00  0.00     0.073 A 
HETATM    2  N1  UNL     1      -0.843  52.225 -26.225  1.00  0.00    -0.299 N 
ATOM      3  H1  UNL     1      -0.938  52.534 -27.193  1.00  0.00     0.187 HD
HETATM    4  N2  UNL     1      -0.045  52.733 -25.276  1.00  0.00    -0.299 N 
HETATM    5  C10 UNL     1      -0.161  52.124 -24.060  1.00  0.00     0.065 A 
HETATM    6  C11 UNL     1       0.465  52.354 -22.836  1.00  0.00     0.080 A 
HETATM    7  C12 UNL     1       0.066  51.525 -21.789  1.00  0.00     0.111 A 
HETATM    8  N5  UNL     1      -0.855  50.555 -21.938  1.00  0.00    -0.351 N 
ATOM      9  H5  UNL     1      -1.102  49.969 -21.141  1.00  0.00     0.166 HD
HETATM   10  C22 UNL     1      -1.458  50.348 -23.136  1.00  0.00     0.105 A 
HETATM   11  C23 UNL     1      -1.112  51.128 -24.241  1.00  0.00     0.036 A 
HETATM   12  H7  UNL     1       0.557  53.511 -25.526  1.00  0.00     0.187 HD
ENDROOT
BRANCH   7  13
HETATM   13  N3  UNL     1       0.695  51.722 -20.554  1.00  0.00    -0.295 N 
HETATM   14  C13 UNL     1       0.055  51.855 -19.343  1.00  0.00     0.322 C 
HETATM   15  O1  UNL     1      -1.145  51.946 -19.136  1.00  0.00    -0.247 OA
HETATM   16  N4  UNL     1       0.990  51.903 -18.319  1.00  0.00    -0.335 N 
HETATM   17  H10 UNL     1       1.763  51.271 -18.465  1.00  0.00     0.165 HD
HETATM   18  H9  UNL     1       1.673  51.950 -20.558  1.00  0.00     0.172 HD
BRANCH  16  19
HETATM   19  C14 UNL     1       0.544  52.002 -16.934  1.00  0.00     0.115 C 
HETATM   20  C15 UNL     1       1.458  52.905 -16.100  1.00  0.00     0.037 C 
BRANCH  19  21
HETATM   21  C16 UNL     1       0.456  50.607 -16.332  1.00  0.00    -0.036 A 
HETATM   22  C17 UNL     1       1.249  50.273 -15.221  1.00  0.00     0.012 A 
HETATM   23  C18 UNL     1       1.171  49.002 -14.650  1.00  0.00     0.043 A 
HETATM   24  C19 UNL     1       0.300  48.062 -15.185  1.00  0.00     0.116 A 
HETATM   25  F1  UNL     1       0.223  46.843 -14.634  1.00  0.00    -0.206 F 
HETATM   26  C20 UNL     1      -0.498  48.369 -16.279  1.00  0.00     0.043 A 
HETATM   27  C21 UNL     1      -0.423  49.639 -16.851  1.00  0.00     0.012 A 
ENDBRANCH  19  21
ENDBRANCH  16  19
ENDBRANCH   7  13
BRANCH   1  28
HETATM   28  C8  UNL     1      -2.447  50.399 -26.357  1.00  0.00     0.008 A 
HETATM   29  C7  UNL     1      -2.841  49.146 -25.882  1.00  0.00     0.017 A 
HETATM   30  C6  UNL     1      -3.757  48.379 -26.607  1.00  0.00     0.033 A 
HETATM   31  C5  UNL     1      -4.267  48.882 -27.802  1.00  0.00     0.066 A 
HETATM   32  N6  UNL     1      -3.908  50.104 -28.273  1.00  0.00    -0.363 N 
HETATM   33  C24 UNL     1      -3.023  50.829 -27.543  1.00  0.00     0.102 A 
ATOM     34  H6  UNL     1      -4.291  50.466 -29.147  1.00  0.00     0.165 HD
BRANCH  31  35
HETATM   35  C4  UNL     1      -5.240  48.152 -28.641  1.00  0.00     0.101 A 
HETATM   36  S1  UNL     1      -6.561  47.297 -27.923  1.00  0.00    -0.080 SA
HETATM   37  C3  UNL     1      -7.081  46.792 -29.472  1.00  0.00     0.076 A 
HETATM   38  C2  UNL     1      -6.235  47.288 -30.442  1.00  0.00     0.012 A 
HETATM   39  C1  UNL     1      -6.336  47.066 -31.907  1.00  0.00     0.068 C 
HETATM   40  N7  UNL     1      -5.191  48.057 -29.958  1.00  0.00    -0.352 N 
ATOM     41  H7  UNL     1      -4.478  48.493 -30.542  1.00  0.00     0.166 HD
ENDBRANCH  31  35
ENDBRANCH   1  28
TORSDOF 5
ENDMDL
MODEL 9
REMARK minimizedAffinity -9.34377575
REMARK CNNscore 0.158364728
REMARK CNNaffinity 6.80809069
REMARK  5 active torsions:
REMARK  status: ('A' for Active; 'I' for Inactive)
REMARK    1  A    between atoms: C4_5  and  C5_6 
REMARK    2  A    between atoms: C8_9  and  C9_10 
REMARK    3  A    between atoms: C12_16  and  N3_17 
REMARK       I    between atoms: N3_17  and  C13_18 
REMARK       I    between atoms: C13_18  and  N4_20 
REMARK    4  A    between atoms: N4_20  and  C14_21 
REMARK    5  A    between atoms: C14_21  and  C16_23 
ROOT
HETATM    1  C9  UNL     1       0.481  50.613 -16.442  1.00  0.00     0.073 A 
HETATM    2  N1  UNL     1       0.020  49.356 -16.552  1.00  0.00    -0.299 N 
ATOM      3  H1  UNL     1       0.015  48.628 -15.836  1.00  0.00     0.187 HD
HETATM    4  N2  UNL     1      -0.432  49.271 -17.811  1.00  0.00    -0.299 N 
HETATM    5  C10 UNL     1      -0.317  50.427 -18.527  1.00  0.00     0.065 A 
HETATM    6  C11 UNL     1      -0.673  50.757 -19.834  1.00  0.00     0.080 A 
HETATM    7  C12 UNL     1      -0.414  52.073 -20.215  1.00  0.00     0.111 A 
HETATM    8  N5  UNL     1       0.150  52.973 -19.392  1.00  0.00    -0.351 N 
ATOM      9  H5  UNL     1       0.328  53.920 -19.726  1.00  0.00     0.166 HD
HETATM   10  C22 UNL     1       0.486  52.636 -18.120  1.00  0.00     0.105 A 
HETATM   11  C23 UNL     1       0.270  51.338 -17.657  1.00  0.00     0.036 A 
HETATM   12  H7  UNL     1      -0.820  48.385 -18.120  1.00  0.00     0.187 HD
ENDROOT
BRANCH   7  13
HETATM   13  N3  UNL     1      -0.743  52.424 -21.531  1.00  0.00    -0.295 N 
HETATM   14  C13 UNL     1      -0.975  51.541 -22.560  1.00  0.00     0.322 C 
HETATM   15  O1  UNL     1      -0.826  50.329 -22.555  1.00  0.00    -0.247 OA
HETATM   16  N4  UNL     1      -1.404  52.231 -23.684  1.00  0.00    -0.335 N 
HETATM   17  H10 UNL     1      -2.028  52.993 -23.463  1.00  0.00     0.165 HD
HETATM   18  H9  UNL     1      -0.643  53.388 -21.796  1.00  0.00     0.172 HD
BRANCH  16  19
HETATM   19  C14 UNL     1      -1.752  51.497 -24.896  1.00  0.00     0.115 C 
HETATM   20  C15 UNL     1      -2.095  50.033 -24.602  1.00  0.00     0.037 C 
BRANCH  19  21
HETATM   21  C16 UNL     1      -0.609  51.602 -25.895  1.00  0.00    -0.036 A 
HETATM   22  C17 UNL     1       0.716  51.702 -25.434  1.00  0.00     0.012 A 
HETATM   23  C18 UNL     1       1.776  51.786 -26.337  1.00  0.00     0.043 A 
HETATM   24  C19 UNL     1       1.518  51.768 -27.702  1.00  0.00     0.116 A 
HETATM   25  F1  UNL     1       2.538  51.846 -28.568  1.00  0.00    -0.206 F 
HETATM   26  C20 UNL     1       0.220  51.664 -28.182  1.00  0.00     0.043 A 
HETATM   27  C21 UNL     1      -0.843  51.580 -27.281  1.00  0.00     0.012 A 
ENDBRANCH  19  21
ENDBRANCH  16  19
ENDBRANCH   7  13
BRANCH   1  28
HETATM   28  C8  UNL     1       1.084  51.074 -15.195  1.00  0.00     0.008 A 
HETATM   29  C7  UNL     1       0.417  50.927 -13.977  1.00  0.00     0.017 A 
HETATM   30  C6  UNL     1       1.012  51.374 -12.794  1.00  0.00     0.033 A 
HETATM   31  C5  UNL     1       2.273  51.965 -12.852  1.00  0.00     0.066 A 
HETATM   32  N6  UNL     1       2.944  52.103 -14.025  1.00  0.00    -0.363 N 
HETATM   33  C24 UNL     1       2.344  51.652 -15.154  1.00  0.00     0.102 A 
ATOM     34  H6  UNL     1       3.870  52.532 -14.055  1.00  0.00     0.165 HD
BRANCH  31  35
HETATM   35  C4  UNL     1       2.989  52.468 -11.661  1.00  0.00     0.101 A 
HETATM   36  S1  UNL     1       3.464  51.393 -10.393  1.00  0.00    -0.080 SA
HETATM   37  C3  UNL     1       4.124  52.705  -9.520  1.00  0.00     0.076 A 
HETATM   38  C2  UNL     1       3.950  53.879 -10.225  1.00  0.00     0.012 A 
HETATM   39  C1  UNL     1       4.373  55.239  -9.803  1.00  0.00     0.068 C 
HETATM   40  N7  UNL     1       3.302  53.733 -11.437  1.00  0.00    -0.352 N 
ATOM     41  H7  UNL     1       3.093  54.500 -12.076  1.00  0.00     0.166 HD
ENDBRANCH  31  35
ENDBRANCH   1  28
TORSDOF 5
ENDMDL
