MODEL 1
REMARK minimizedAffinity -10.4281025
REMARK  4 active torsions:
REMARK  status: ('A' for Active; 'I' for Inactive)
REMARK    1  A    between atoms: C4_4  and  C5_5 
REMARK    2  A    between atoms: C8_11  and  N3_12 
REMARK       I    between atoms: N3_12  and  C9_13 
REMARK       I    between atoms: C9_13  and  N4_15 
REMARK    3  A    between atoms: N4_15  and  C10_16 
REMARK    4  A    between atoms: C10_16  and  C11_17 
ROOT
HETATM    1  C5  UNL     1       0.659  53.125 -23.565  1.00  0.00     0.072 A 
HETATM    2  N1  UNL     1       1.277  54.291 -23.828  1.00  0.00    -0.299 N 
ATOM      3  H1  UNL     1       1.462  54.708 -24.740  1.00  0.00     0.187 HD
HETATM    4  N2  UNL     1       1.596  54.783 -22.622  1.00  0.00    -0.299 N 
HETATM    5  C6  UNL     1       1.246  53.975 -21.579  1.00  0.00     0.065 A 
HETATM    6  C7  UNL     1       1.420  54.109 -20.202  1.00  0.00     0.080 A 
HETATM    7  C8  UNL     1       0.946  53.050 -19.440  1.00  0.00     0.111 A 
HETATM    8  N7  UNL     1       0.346  51.958 -19.970  1.00  0.00    -0.351 N 
ATOM      9  H7  UNL     1       0.008  51.215 -19.358  1.00  0.00     0.166 HD
HETATM   10  C19 UNL     1       0.194  51.852 -21.316  1.00  0.00     0.105 A 
HETATM   11  C20 UNL     1       0.635  52.872 -22.158  1.00  0.00     0.036 A 
HETATM   12  H5  UNL     1       2.067  55.679 -22.576  1.00  0.00     0.187 HD
ENDROOT
BRANCH   7  13
HETATM   13  N3  UNL     1       1.043  52.998 -18.049  1.00  0.00    -0.295 N 
HETATM   14  C9  UNL     1       0.802  51.938 -17.219  1.00  0.00     0.322 C 
HETATM   15  O1  UNL     1       0.445  50.815 -17.553  1.00  0.00    -0.247 OA
HETATM   16  N4  UNL     1       0.981  52.288 -15.902  1.00  0.00    -0.337 N 
HETATM   17  H8  UNL     1       1.692  52.982 -15.709  1.00  0.00     0.164 HD
HETATM   18  H7  UNL     1       1.187  53.904 -17.633  1.00  0.00     0.172 HD
BRANCH  16  19
HETATM   19  C10 UNL     1       0.838  51.289 -14.868  1.00  0.00     0.182 C 
BRANCH  19  20
HETATM   20  C11 UNL     1       0.169  51.936 -13.706  1.00  0.00     0.044 A 
HETATM   21  C12 UNL     1      -1.123  51.775 -13.248  1.00  0.00     0.124 A 
HETATM   22  N5  UNL     1      -1.248  52.630 -12.182  1.00  0.00    -0.317 N 
HETATM   23  C13 UNL     1      -2.350  52.870 -11.372  1.00  0.00     0.098 A 
HETATM   24  C18 UNL     1      -0.023  53.272 -12.029  1.00  0.00     0.117 A 
HETATM   25  C14 UNL     1      -2.243  53.763 -10.376  1.00  0.00     0.018 A 
HETATM   26  C15 UNL     1      -0.972  54.439 -10.171  1.00  0.00     0.012 A 
HETATM   27  C16 UNL     1       0.112  54.219 -10.954  1.00  0.00    -0.017 A 
HETATM   28  C17 UNL     1       1.400  54.946 -10.681  1.00  0.00     0.052 C 
HETATM   29  N6  UNL     1       0.841  52.882 -12.947  1.00  0.00    -0.343 N 
ATOM     30  H6  UNL     1       1.799  53.207 -13.071  1.00  0.00     0.167 HD
ENDBRANCH  19  20
ENDBRANCH  16  19
ENDBRANCH   7  13
BRANCH   1  31
HETATM   31  C4  UNL     1       0.146  52.296 -24.655  1.00  0.00    -0.004 A 
HETATM   32  C3  UNL     1       0.715  52.339 -25.931  1.00  0.00     0.038 A 
HETATM   33  C2  UNL     1       0.173  51.545 -26.938  1.00  0.00     0.005 A 
HETATM   34  C1  UNL     1       0.736  51.597 -28.328  1.00  0.00     0.068 C 
HETATM   35  N8  UNL     1      -0.876  50.718 -26.728  1.00  0.00    -0.369 N 
HETATM   36  C22 UNL     1      -1.397  50.674 -25.483  1.00  0.00     0.089 A 
ATOM     37  H8  UNL     1      -1.260  50.148 -27.482  1.00  0.00     0.165 HD
HETATM   38  C21 UNL     1      -0.928  51.434 -24.429  1.00  0.00     0.031 A 
ENDBRANCH   1  31
TORSDOF 4
ENDMDL
MODEL 2
REMARK minimizedAffinity -10.1576004
REMARK  4 active torsions:
REMARK  status: ('A' for Active; 'I' for Inactive)
REMARK    1  A    between atoms: C4_4  and  C5_5 
REMARK    2  A    between atoms: C8_11  and  N3_12 
REMARK       I    between atoms: N3_12  and  C9_13 
REMARK       I    between atoms: C9_13  and  N4_15 
REMARK    3  A    between atoms: N4_15  and  C10_16 
REMARK    4  A    between atoms: C10_16  and  C11_17 
ROOT
HETATM    1  C5  UNL     1      -0.195  51.967 -22.923  1.00  0.00     0.072 A 
HETATM    2  N1  UNL     1      -0.983  50.883 -22.798  1.00  0.00    -0.299 N 
ATOM      3  H1  UNL     1      -1.471  50.378 -23.537  1.00  0.00     0.187 HD
HETATM    4  N2  UNL     1      -0.983  50.616 -21.484  1.00  0.00    -0.299 N 
HETATM    5  C6  UNL     1      -0.257  51.496 -20.735  1.00  0.00     0.065 A 
HETATM    6  C7  UNL     1      -0.031  51.580 -19.362  1.00  0.00     0.080 A 
HETATM    7  C8  UNL     1       0.756  52.650 -18.956  1.00  0.00     0.111 A 
HETATM    8  N7  UNL     1       1.285  53.555 -19.813  1.00  0.00    -0.351 N 
ATOM      9  H7  UNL     1       1.866  54.315 -19.457  1.00  0.00     0.166 HD
HETATM   10  C19 UNL     1       1.044  53.452 -21.146  1.00  0.00     0.105 A 
HETATM   11  C20 UNL     1       0.269  52.404 -21.643  1.00  0.00     0.036 A 
HETATM   12  H5  UNL     1      -1.512  49.816 -21.155  1.00  0.00     0.187 HD
ENDROOT
BRANCH   7  13
HETATM   13  N3  UNL     1       1.079  52.907 -17.623  1.00  0.00    -0.295 N 
HETATM   14  C9  UNL     1       1.111  52.032 -16.572  1.00  0.00     0.322 C 
HETATM   15  O1  UNL     1       0.854  50.836 -16.611  1.00  0.00    -0.247 OA
HETATM   16  N4  UNL     1       1.449  52.672 -15.404  1.00  0.00    -0.337 N 
HETATM   17  H8  UNL     1       2.087  53.455 -15.483  1.00  0.00     0.164 HD
HETATM   18  H7  UNL     1       1.168  53.891 -17.425  1.00  0.00     0.172 HD
BRANCH  16  19
HETATM   19  C10 UNL     1       1.603  51.910 -14.186  1.00  0.00     0.182 C 
BRANCH  19  20
HETATM   20  C11 UNL     1       0.497  52.298 -13.269  1.00  0.00     0.044 A 
HETATM   21  C12 UNL     1      -0.820  51.885 -13.273  1.00  0.00     0.124 A 
HETATM   22  N5  UNL     1      -1.428  52.574 -12.253  1.00  0.00    -0.317 N 
HETATM   23  C13 UNL     1      -2.753  52.539 -11.837  1.00  0.00     0.098 A 
HETATM   24  C18 UNL     1      -0.454  53.374 -11.665  1.00  0.00     0.117 A 
HETATM   25  C14 UNL     1      -3.130  53.310 -10.806  1.00  0.00     0.018 A 
HETATM   26  C15 UNL     1      -2.136  54.144 -10.150  1.00  0.00     0.012 A 
HETATM   27  C16 UNL     1      -0.840  54.192 -10.546  1.00  0.00    -0.017 A 
HETATM   28  C17 UNL     1       0.139  55.071  -9.818  1.00  0.00     0.052 C 
HETATM   29  N6  UNL     1       0.709  53.237 -12.271  1.00  0.00    -0.343 N 
ATOM     30  H6  UNL     1       1.581  53.720 -12.052  1.00  0.00     0.167 HD
ENDBRANCH  19  20
ENDBRANCH  16  19
ENDBRANCH   7  13
BRANCH   1  31
HETATM   31  C4  UNL     1       0.060  52.551 -24.240  1.00  0.00    -0.004 A 
HETATM   32  C3  UNL     1       0.392  51.752 -25.337  1.00  0.00     0.038 A 
HETATM   33  C2  UNL     1       0.646  52.362 -26.563  1.00  0.00     0.005 A 
HETATM   34  C1  UNL     1       1.043  51.536 -27.751  1.00  0.00     0.068 C 
HETATM   35  N8  UNL     1       0.568  53.701 -26.740  1.00  0.00    -0.369 N 
HETATM   36  C22 UNL     1       0.224  54.452 -25.673  1.00  0.00     0.089 A 
ATOM     37  H8  UNL     1       0.762  54.127 -27.646  1.00  0.00     0.165 HD
HETATM   38  C21 UNL     1      -0.036  53.932 -24.419  1.00  0.00     0.031 A 
ENDBRANCH   1  31
TORSDOF 4
ENDMDL
MODEL 3
REMARK minimizedAffinity -9.54980278
REMARK  4 active torsions:
REMARK  status: ('A' for Active; 'I' for Inactive)
REMARK    1  A    between atoms: C4_4  and  C5_5 
REMARK    2  A    between atoms: C8_11  and  N3_12 
REMARK       I    between atoms: N3_12  and  C9_13 
REMARK       I    between atoms: C9_13  and  N4_15 
REMARK    3  A    between atoms: N4_15  and  C10_16 
REMARK    4  A    between atoms: C10_16  and  C11_17 
ROOT
HETATM    1  C5  UNL     1       0.445  52.446 -24.408  1.00  0.00     0.072 A 
HETATM    2  N1  UNL     1       1.418  52.748 -25.287  1.00  0.00    -0.299 N 
ATOM      3  H1  UNL     1       2.312  53.201 -25.097  1.00  0.00     0.187 HD
HETATM    4  N2  UNL     1       0.949  52.320 -26.468  1.00  0.00    -0.299 N 
HETATM    5  C6  UNL     1      -0.302  51.781 -26.411  1.00  0.00     0.065 A 
HETATM    6  C7  UNL     1      -1.133  51.256 -27.400  1.00  0.00     0.080 A 
HETATM    7  C8  UNL     1      -2.373  50.815 -26.959  1.00  0.00     0.111 A 
HETATM    8  N7  UNL     1      -2.769  50.870 -25.665  1.00  0.00    -0.351 N 
ATOM      9  H7  UNL     1      -3.689  50.521 -25.398  1.00  0.00     0.166 HD
HETATM   10  C19 UNL     1      -1.940  51.391 -24.723  1.00  0.00     0.105 A 
HETATM   11  C20 UNL     1      -0.672  51.853 -25.076  1.00  0.00     0.036 A 
HETATM   12  H5  UNL     1       1.535  52.436 -27.288  1.00  0.00     0.187 HD
ENDROOT
BRANCH   7  13
HETATM   13  N3  UNL     1      -3.344  50.274 -27.803  1.00  0.00    -0.295 N 
HETATM   14  C9  UNL     1      -4.009  49.085 -27.682  1.00  0.00     0.322 C 
HETATM   15  O1  UNL     1      -3.869  48.258 -26.790  1.00  0.00    -0.247 OA
HETATM   16  N4  UNL     1      -4.872  48.890 -28.733  1.00  0.00    -0.337 N 
HETATM   17  H8  UNL     1      -5.301  49.718 -29.128  1.00  0.00     0.164 HD
HETATM   18  H7  UNL     1      -3.447  50.790 -28.662  1.00  0.00     0.172 HD
BRANCH  16  19
HETATM   19  C10 UNL     1      -5.720  47.720 -28.758  1.00  0.00     0.182 C 
BRANCH  19  20
HETATM   20  C11 UNL     1      -6.258  47.583 -30.139  1.00  0.00     0.044 A 
HETATM   21  C12 UNL     1      -5.597  47.703 -31.344  1.00  0.00     0.124 A 
HETATM   22  N5  UNL     1      -6.555  47.533 -32.312  1.00  0.00    -0.317 N 
HETATM   23  C13 UNL     1      -6.425  47.573 -33.695  1.00  0.00     0.098 A 
HETATM   24  C18 UNL     1      -7.761  47.309 -31.656  1.00  0.00     0.117 A 
HETATM   25  C14 UNL     1      -7.513  47.379 -34.455  1.00  0.00     0.018 A 
HETATM   26  C15 UNL     1      -8.788  47.120 -33.807  1.00  0.00     0.012 A 
HETATM   27  C16 UNL     1      -8.933  47.081 -32.460  1.00  0.00    -0.017 A 
HETATM   28  C17 UNL     1     -10.280  46.799 -31.853  1.00  0.00     0.052 C 
HETATM   29  N6  UNL     1      -7.610  47.352 -30.346  1.00  0.00    -0.343 N 
ATOM     30  H6  UNL     1      -8.333  47.238 -29.636  1.00  0.00     0.167 HD
ENDBRANCH  19  20
ENDBRANCH  16  19
ENDBRANCH   7  13
BRANCH   1  31
HETATM   31  C4  UNL     1       0.606  52.755 -22.987  1.00  0.00    -0.004 A 
HETATM   32  C3  UNL     1       0.131  51.890 -21.997  1.00  0.00     0.038 A 
HETATM   33  C2  UNL     1       0.291  52.243 -20.660  1.00  0.00     0.005 A 
HETATM   34  C1  UNL     1      -0.242  51.355 -19.574  1.00  0.00     0.068 C 
HETATM   35  N8  UNL     1       0.904  53.386 -20.278  1.00  0.00    -0.369 N 
HETATM   36  C22 UNL     1       1.375  54.197 -21.249  1.00  0.00     0.089 A 
ATOM     37  H8  UNL     1       1.006  53.627 -19.292  1.00  0.00     0.165 HD
HETATM   38  C21 UNL     1       1.251  53.929 -22.599  1.00  0.00     0.031 A 
ENDBRANCH   1  31
TORSDOF 4
ENDMDL
MODEL 4
REMARK minimizedAffinity -9.47658443
REMARK  4 active torsions:
REMARK  status: ('A' for Active; 'I' for Inactive)
REMARK    1  A    between atoms: C4_4  and  C5_5 
REMARK    2  A    between atoms: C8_11  and  N3_12 
REMARK       I    between atoms: N3_12  and  C9_13 
REMARK       I    between atoms: C9_13  and  N4_15 
REMARK    3  A    between atoms: N4_15  and  C10_16 
REMARK    4  A    between atoms: C10_16  and  C11_17 
ROOT
HETATM    1  C5  UNL     1       0.180  52.817 -24.205  1.00  0.00     0.072 A 
HETATM    2  N1  UNL     1       0.992  53.454 -25.069  1.00  0.00    -0.299 N 
ATOM      3  H1  UNL     1       1.813  54.019 -24.854  1.00  0.00     0.187 HD
HETATM    4  N2  UNL     1       0.479  53.179 -26.278  1.00  0.00    -0.299 N 
HETATM    5  C6  UNL     1      -0.653  52.419 -26.245  1.00  0.00     0.065 A 
HETATM    6  C7  UNL     1      -1.485  51.948 -27.260  1.00  0.00     0.080 A 
HETATM    7  C8  UNL     1      -2.581  51.211 -26.832  1.00  0.00     0.111 A 
HETATM    8  N7  UNL     1      -2.842  50.947 -25.530  1.00  0.00    -0.351 N 
ATOM      9  H7  UNL     1      -3.658  50.390 -25.276  1.00  0.00     0.166 HD
HETATM   10  C19 UNL     1      -2.017  51.422 -24.561  1.00  0.00     0.105 A 
HETATM   11  C20 UNL     1      -0.887  52.167 -24.900  1.00  0.00     0.036 A 
HETATM   12  H5  UNL     1       0.947  53.553 -27.096  1.00  0.00     0.187 HD
ENDROOT
BRANCH   7  13
HETATM   13  N3  UNL     1      -3.532  50.671 -27.699  1.00  0.00    -0.295 N 
HETATM   14  C9  UNL     1      -3.798  49.354 -27.957  1.00  0.00     0.322 C 
HETATM   15  O1  UNL     1      -3.233  48.386 -27.463  1.00  0.00    -0.247 OA
HETATM   16  N4  UNL     1      -4.792  49.223 -28.897  1.00  0.00    -0.337 N 
HETATM   17  H8  UNL     1      -5.511  49.936 -28.900  1.00  0.00     0.164 HD
HETATM   18  H7  UNL     1      -3.969  51.366 -28.283  1.00  0.00     0.172 HD
BRANCH  16  19
HETATM   19  C10 UNL     1      -5.266  47.907 -29.260  1.00  0.00     0.182 C 
BRANCH  19  20
HETATM   20  C11 UNL     1      -6.716  47.845 -28.931  1.00  0.00     0.044 A 
HETATM   21  C12 UNL     1      -7.787  47.600 -29.768  1.00  0.00     0.124 A 
HETATM   22  N5  UNL     1      -8.905  47.700 -28.978  1.00  0.00    -0.317 N 
HETATM   23  C13 UNL     1     -10.242  47.558 -29.326  1.00  0.00     0.098 A 
HETATM   24  C18 UNL     1      -8.470  47.994 -27.690  1.00  0.00     0.117 A 
HETATM   25  C14 UNL     1     -11.179  47.702 -28.377  1.00  0.00     0.018 A 
HETATM   26  C15 UNL     1     -10.762  47.988 -27.014  1.00  0.00     0.012 A 
HETATM   27  C16 UNL     1      -9.462  48.133 -26.659  1.00  0.00    -0.017 A 
HETATM   28  C17 UNL     1      -9.099  48.420 -25.227  1.00  0.00     0.052 C 
HETATM   29  N6  UNL     1      -7.156  48.103 -27.641  1.00  0.00    -0.343 N 
ATOM     30  H6  UNL     1      -6.584  48.329 -26.828  1.00  0.00     0.167 HD
ENDBRANCH  19  20
ENDBRANCH  16  19
ENDBRANCH   7  13
BRANCH   1  31
HETATM   31  C4  UNL     1       0.437  52.875 -22.766  1.00  0.00    -0.004 A 
HETATM   32  C3  UNL     1      -0.040  51.885 -21.903  1.00  0.00     0.038 A 
HETATM   33  C2  UNL     1       0.215  52.001 -20.539  1.00  0.00     0.005 A 
HETATM   34  C1  UNL     1      -0.316  50.975 -19.581  1.00  0.00     0.068 C 
HETATM   35  N8  UNL     1       0.920  53.028 -20.015  1.00  0.00    -0.369 N 
HETATM   36  C22 UNL     1       1.390  53.963 -20.868  1.00  0.00     0.089 A 
ATOM     37  H8  UNL     1       1.090  53.096 -19.011  1.00  0.00     0.165 HD
HETATM   38  C21 UNL     1       1.177  53.931 -22.233  1.00  0.00     0.031 A 
ENDBRANCH   1  31
TORSDOF 4
ENDMDL
MODEL 5
REMARK minimizedAffinity -9.37935066
REMARK  4 active torsions:
REMARK  status: ('A' for Active; 'I' for Inactive)
REMARK    1  A    between atoms: C4_4  and  C5_5 
REMARK    2  A    between atoms: C8_11  and  N3_12 
REMARK       I    between atoms: N3_12  and  C9_13 
REMARK       I    between atoms: C9_13  and  N4_15 
REMARK    3  A    between atoms: N4_15  and  C10_16 
REMARK    4  A    between atoms: C10_16  and  C11_17 
ROOT
HETATM    1  C5  UNL     1       0.355  52.744 -21.640  1.00  0.00     0.072 A 
HETATM    2  N1  UNL     1       1.054  53.879 -21.455  1.00  0.00    -0.299 N 
ATOM      3  H1  UNL     1       1.368  54.541 -22.164  1.00  0.00     0.187 HD
HETATM    4  N2  UNL     1       1.245  53.944 -20.129  1.00  0.00    -0.299 N 
HETATM    5  C6  UNL     1       0.732  52.886 -19.438  1.00  0.00     0.065 A 
HETATM    6  C7  UNL     1       0.742  52.572 -18.079  1.00  0.00     0.080 A 
HETATM    7  C8  UNL     1       0.129  51.371 -17.745  1.00  0.00     0.111 A 
HETATM    8  N7  UNL     1      -0.451  50.551 -18.652  1.00  0.00    -0.351 N 
ATOM      9  H7  UNL     1      -0.896  49.685 -18.346  1.00  0.00     0.166 HD
HETATM   10  C19 UNL     1      -0.442  50.880 -19.971  1.00  0.00     0.105 A 
HETATM   11  C20 UNL     1       0.146  52.071 -20.396  1.00  0.00     0.036 A 
HETATM   12  H5  UNL     1       1.748  54.741 -19.754  1.00  0.00     0.187 HD
ENDROOT
BRANCH   7  13
HETATM   13  N3  UNL     1       0.053  50.883 -16.440  1.00  0.00    -0.295 N 
HETATM   14  C9  UNL     1       0.817  51.224 -15.358  1.00  0.00     0.322 C 
HETATM   15  O1  UNL     1       1.732  52.037 -15.339  1.00  0.00    -0.247 OA
HETATM   16  N4  UNL     1       0.456  50.500 -14.247  1.00  0.00    -0.337 N 
HETATM   17  H8  UNL     1      -0.521  50.248 -14.168  1.00  0.00     0.164 HD
HETATM   18  H7  UNL     1      -0.566  50.093 -16.354  1.00  0.00     0.172 HD
BRANCH  16  19
HETATM   19  C10 UNL     1       1.101  50.759 -12.981  1.00  0.00     0.182 C 
BRANCH  19  20
HETATM   20  C11 UNL     1       0.341  51.844 -12.302  1.00  0.00     0.044 A 
HETATM   21  C12 UNL     1       0.812  53.016 -11.745  1.00  0.00     0.124 A 
HETATM   22  N5  UNL     1      -0.288  53.640 -11.210  1.00  0.00    -0.317 N 
HETATM   23  C13 UNL     1      -0.367  54.844 -10.521  1.00  0.00     0.098 A 
HETATM   24  C18 UNL     1      -1.385  52.825 -11.469  1.00  0.00     0.117 A 
HETATM   25  C14 UNL     1      -1.563  55.263 -10.081  1.00  0.00     0.018 A 
HETATM   26  C15 UNL     1      -2.738  54.449 -10.352  1.00  0.00     0.012 A 
HETATM   27  C16 UNL     1      -2.677  53.271 -11.019  1.00  0.00    -0.017 A 
HETATM   28  C17 UNL     1      -3.932  52.482 -11.273  1.00  0.00     0.052 C 
HETATM   29  N6  UNL     1      -1.028  51.729 -12.111  1.00  0.00    -0.343 N 
ATOM     30  H6  UNL     1      -1.630  50.960 -12.405  1.00  0.00     0.167 HD
ENDBRANCH  19  20
ENDBRANCH  16  19
ENDBRANCH   7  13
BRANCH   1  31
HETATM   31  C4  UNL     1      -0.059  52.339 -22.983  1.00  0.00    -0.004 A 
HETATM   32  C3  UNL     1       0.356  53.045 -24.116  1.00  0.00     0.038 A 
HETATM   33  C2  UNL     1      -0.085  52.629 -25.369  1.00  0.00     0.005 A 
HETATM   34  C1  UNL     1       0.311  53.388 -26.601  1.00  0.00     0.068 C 
HETATM   35  N8  UNL     1      -0.890  51.556 -25.538  1.00  0.00    -0.369 N 
HETATM   36  C22 UNL     1      -1.262  50.874 -24.433  1.00  0.00     0.089 A 
ATOM     37  H8  UNL     1      -1.205  51.271 -26.466  1.00  0.00     0.165 HD
HETATM   38  C21 UNL     1      -0.879  51.222 -23.152  1.00  0.00     0.031 A 
ENDBRANCH   1  31
TORSDOF 4
ENDMDL
MODEL 6
REMARK minimizedAffinity -9.27131844
REMARK  4 active torsions:
REMARK  status: ('A' for Active; 'I' for Inactive)
REMARK    1  A    between atoms: C4_4  and  C5_5 
REMARK    2  A    between atoms: C8_11  and  N3_12 
REMARK       I    between atoms: N3_12  and  C9_13 
REMARK       I    between atoms: C9_13  and  N4_15 
REMARK    3  A    between atoms: N4_15  and  C10_16 
REMARK    4  A    between atoms: C10_16  and  C11_17 
ROOT
HETATM    1  C5  UNL     1      -0.060  51.988 -23.205  1.00  0.00     0.072 A 
HETATM    2  N1  UNL     1       0.787  52.181 -24.233  1.00  0.00    -0.299 N 
ATOM      3  H1  UNL     1       1.699  52.638 -24.213  1.00  0.00     0.187 HD
HETATM    4  N2  UNL     1       0.164  51.637 -25.289  1.00  0.00    -0.299 N 
HETATM    5  C6  UNL     1      -1.069  51.126 -25.008  1.00  0.00     0.065 A 
HETATM    6  C7  UNL     1      -2.026  50.512 -25.815  1.00  0.00     0.080 A 
HETATM    7  C8  UNL     1      -3.196  50.140 -25.168  1.00  0.00     0.111 A 
HETATM    8  N7  UNL     1      -3.414  50.338 -23.847  1.00  0.00    -0.351 N 
ATOM      9  H7  UNL     1      -4.291  50.032 -23.423  1.00  0.00     0.166 HD
HETATM   10  C19 UNL     1      -2.466  50.943 -23.084  1.00  0.00     0.105 A 
HETATM   11  C20 UNL     1      -1.256  51.345 -23.650  1.00  0.00     0.036 A 
HETATM   12  H5  UNL     1       0.634  51.656 -26.187  1.00  0.00     0.187 HD
ENDROOT
BRANCH   7  13
HETATM   13  N3  UNL     1      -4.271  49.527 -25.812  1.00  0.00    -0.295 N 
HETATM   14  C9  UNL     1      -5.169  48.630 -25.302  1.00  0.00     0.322 C 
HETATM   15  O1  UNL     1      -5.192  48.189 -24.160  1.00  0.00    -0.247 OA
HETATM   16  N4  UNL     1      -6.070  48.231 -26.260  1.00  0.00    -0.337 N 
HETATM   17  H8  UNL     1      -6.322  48.917 -26.961  1.00  0.00     0.164 HD
HETATM   18  H7  UNL     1      -4.277  49.692 -26.806  1.00  0.00     0.172 HD
BRANCH  16  19
HETATM   19  C10 UNL     1      -7.145  47.332 -25.905  1.00  0.00     0.182 C 
BRANCH  19  20
HETATM   20  C11 UNL     1      -8.048  47.222 -27.082  1.00  0.00     0.044 A 
HETATM   21  C12 UNL     1      -8.986  46.251 -27.369  1.00  0.00     0.124 A 
HETATM   22  N5  UNL     1      -9.509  46.590 -28.592  1.00  0.00    -0.317 N 
HETATM   23  C13 UNL     1     -10.478  45.939 -29.345  1.00  0.00     0.098 A 
HETATM   24  C18 UNL     1      -8.873  47.759 -28.997  1.00  0.00     0.117 A 
HETATM   25  C14 UNL     1     -10.838  46.457 -30.529  1.00  0.00     0.018 A 
HETATM   26  C15 UNL     1     -10.212  47.691 -30.977  1.00  0.00     0.012 A 
HETATM   27  C16 UNL     1      -9.263  48.336 -30.256  1.00  0.00    -0.017 A 
HETATM   28  C17 UNL     1      -8.661  49.614 -30.775  1.00  0.00     0.052 C 
HETATM   29  N6  UNL     1      -7.977  48.149 -28.111  1.00  0.00    -0.343 N 
ATOM     30  H6  UNL     1      -7.362  48.961 -28.170  1.00  0.00     0.167 HD
ENDBRANCH  19  20
ENDBRANCH  16  19
ENDBRANCH   7  13
BRANCH   1  31
HETATM   31  C4  UNL     1       0.291  52.444 -21.860  1.00  0.00    -0.004 A 
HETATM   32  C3  UNL     1      -0.075  51.712 -20.726  1.00  0.00     0.038 A 
HETATM   33  C2  UNL     1       0.265  52.202 -19.469  1.00  0.00     0.005 A 
HETATM   34  C1  UNL     1      -0.146  51.460 -18.231  1.00  0.00     0.068 C 
HETATM   35  N8  UNL     1       0.951  53.355 -19.298  1.00  0.00    -0.369 N 
HETATM   36  C22 UNL     1       1.314  54.035 -20.406  1.00  0.00     0.089 A 
ATOM     37  H8  UNL     1       1.186  53.698 -18.366  1.00  0.00     0.165 HD
HETATM   38  C21 UNL     1       1.011  53.627 -21.690  1.00  0.00     0.031 A 
ENDBRANCH   1  31
TORSDOF 4
ENDMDL
MODEL 7
REMARK minimizedAffinity -9.24796867
REMARK  4 active torsions:
REMARK  status: ('A' for Active; 'I' for Inactive)
REMARK    1  A    between atoms: C4_4  and  C5_5 
REMARK    2  A    between atoms: C8_11  and  N3_12 
REMARK       I    between atoms: N3_12  and  C9_13 
REMARK       I    between atoms: C9_13  and  N4_15 
REMARK    3  A    between atoms: N4_15  and  C10_16 
REMARK    4  A    between atoms: C10_16  and  C11_17 
ROOT
HETATM    1  C5  UNL     1       0.439  52.557 -22.745  1.00  0.00     0.072 A 
HETATM    2  N1  UNL     1       1.034  53.756 -22.603  1.00  0.00    -0.299 N 
ATOM      3  H1  UNL     1       1.368  54.378 -23.338  1.00  0.00     0.187 HD
HETATM    4  N2  UNL     1       1.089  53.949 -21.277  1.00  0.00    -0.299 N 
HETATM    5  C6  UNL     1       0.588  52.915 -20.540  1.00  0.00     0.065 A 
HETATM    6  C7  UNL     1       0.486  52.720 -19.164  1.00  0.00     0.080 A 
HETATM    7  C8  UNL     1      -0.068  51.507 -18.777  1.00  0.00     0.111 A 
HETATM    8  N7  UNL     1      -0.497  50.569 -19.654  1.00  0.00    -0.351 N 
ATOM      9  H7  UNL     1      -0.907  49.699 -19.311  1.00  0.00     0.166 HD
HETATM   10  C19 UNL     1      -0.381  50.784 -20.991  1.00  0.00     0.105 A 
HETATM   11  C20 UNL     1       0.159  51.977 -21.469  1.00  0.00     0.036 A 
HETATM   12  H5  UNL     1       1.494  54.812 -20.932  1.00  0.00     0.187 HD
ENDROOT
BRANCH   7  13
HETATM   13  N3  UNL     1      -0.237  51.127 -17.445  1.00  0.00    -0.295 N 
HETATM   14  C9  UNL     1       0.652  51.232 -16.412  1.00  0.00     0.322 C 
HETATM   15  O1  UNL     1       1.787  51.687 -16.469  1.00  0.00    -0.247 OA
HETATM   16  N4  UNL     1       0.125  50.720 -15.250  1.00  0.00    -0.337 N 
HETATM   17  H8  UNL     1      -0.874  50.818 -15.122  1.00  0.00     0.164 HD
HETATM   18  H7  UNL     1      -1.082  50.599 -17.294  1.00  0.00     0.172 HD
BRANCH  16  19
HETATM   19  C10 UNL     1       0.885  50.796 -14.023  1.00  0.00     0.182 C 
BRANCH  19  20
HETATM   20  C11 UNL     1       0.157  51.707 -13.099  1.00  0.00     0.044 A 
HETATM   21  C12 UNL     1      -1.194  51.766 -12.824  1.00  0.00     0.124 A 
HETATM   22  N5  UNL     1      -1.348  52.808 -11.943  1.00  0.00    -0.317 N 
HETATM   23  C13 UNL     1      -2.508  53.303 -11.361  1.00  0.00     0.098 A 
HETATM   24  C18 UNL     1      -0.082  53.336 -11.711  1.00  0.00     0.117 A 
HETATM   25  C14 UNL     1      -2.420  54.344 -10.520  1.00  0.00     0.018 A 
HETATM   26  C15 UNL     1      -1.111  54.911 -10.236  1.00  0.00     0.012 A 
HETATM   27  C16 UNL     1       0.030  54.441 -10.797  1.00  0.00    -0.017 A 
HETATM   28  C17 UNL     1       1.353  55.068 -10.453  1.00  0.00     0.052 C 
HETATM   29  N6  UNL     1       0.838  52.699 -12.410  1.00  0.00    -0.343 N 
ATOM     30  H6  UNL     1       1.839  52.896 -12.438  1.00  0.00     0.167 HD
ENDBRANCH  19  20
ENDBRANCH  16  19
ENDBRANCH   7  13
BRANCH   1  31
HETATM   31  C4  UNL     1       0.190  52.007 -24.078  1.00  0.00    -0.004 A 
HETATM   32  C3  UNL     1      -0.858  51.111 -24.309  1.00  0.00     0.038 A 
HETATM   33  C2  UNL     1      -1.038  50.601 -25.592  1.00  0.00     0.005 A 
HETATM   34  C1  UNL     1      -2.129  49.608 -25.865  1.00  0.00     0.068 C 
HETATM   35  N8  UNL     1      -0.247  50.950 -26.631  1.00  0.00    -0.369 N 
HETATM   36  C22 UNL     1       0.746  51.833 -26.391  1.00  0.00     0.089 A 
ATOM     37  H8  UNL     1      -0.394  50.560 -27.562  1.00  0.00     0.165 HD
HETATM   38  C21 UNL     1       1.001  52.381 -25.149  1.00  0.00     0.031 A 
ENDBRANCH   1  31
TORSDOF 4
ENDMDL
MODEL 8
REMARK minimizedAffinity -9.20733452
REMARK  4 active torsions:
REMARK  status: ('A' for Active; 'I' for Inactive)
REMARK    1  A    between atoms: C4_4  and  C5_5 
REMARK    2  A    between atoms: C8_11  and  N3_12 
REMARK       I    between atoms: N3_12  and  C9_13 
REMARK       I    between atoms: C9_13  and  N4_15 
REMARK    3  A    between atoms: N4_15  and  C10_16 
REMARK    4  A    between atoms: C10_16  and  C11_17 
ROOT
HETATM    1  C5  UNL     1      -0.755  50.224 -20.998  1.00  0.00     0.072 A 
HETATM    2  N1  UNL     1      -0.503  49.044 -20.403  1.00  0.00    -0.299 N 
ATOM      3  H1  UNL     1       0.111  48.863 -19.609  1.00  0.00     0.187 HD
HETATM    4  N2  UNL     1      -1.241  48.157 -21.088  1.00  0.00    -0.299 N 
HETATM    5  C6  UNL     1      -1.940  48.697 -22.128  1.00  0.00     0.065 A 
HETATM    6  C7  UNL     1      -2.785  48.122 -23.076  1.00  0.00     0.080 A 
HETATM    7  C8  UNL     1      -3.305  49.001 -24.016  1.00  0.00     0.111 A 
HETATM    8  N7  UNL     1      -3.034  50.327 -24.029  1.00  0.00    -0.351 N 
ATOM      9  H7  UNL     1      -3.455  50.927 -24.739  1.00  0.00     0.166 HD
HETATM   10  C19 UNL     1      -2.203  50.861 -23.095  1.00  0.00     0.105 A 
HETATM   11  C20 UNL     1      -1.640  50.052 -22.108  1.00  0.00     0.036 A 
HETATM   12  H5  UNL     1      -1.216  47.186 -20.799  1.00  0.00     0.187 HD
ENDROOT
BRANCH   7  13
HETATM   13  N3  UNL     1      -4.156  48.609 -25.050  1.00  0.00    -0.295 N 
HETATM   14  C9  UNL     1      -3.960  48.714 -26.400  1.00  0.00     0.322 C 
HETATM   15  O1  UNL     1      -2.979  49.186 -26.960  1.00  0.00    -0.247 OA
HETATM   16  N4  UNL     1      -5.045  48.240 -27.097  1.00  0.00    -0.337 N 
HETATM   17  H8  UNL     1      -5.554  47.472 -26.678  1.00  0.00     0.164 HD
HETATM   18  H7  UNL     1      -5.069  48.337 -24.723  1.00  0.00     0.172 HD
BRANCH  16  19
HETATM   19  C10 UNL     1      -5.009  48.202 -28.541  1.00  0.00     0.182 C 
BRANCH  19  20
HETATM   20  C11 UNL     1      -6.405  48.016 -29.022  1.00  0.00     0.044 A 
HETATM   21  C12 UNL     1      -6.861  47.811 -30.309  1.00  0.00     0.124 A 
HETATM   22  N5  UNL     1      -8.229  47.749 -30.213  1.00  0.00    -0.317 N 
HETATM   23  C13 UNL     1      -9.173  47.572 -31.216  1.00  0.00     0.098 A 
HETATM   24  C18 UNL     1      -8.551  47.912 -28.869  1.00  0.00     0.117 A 
HETATM   25  C14 UNL     1     -10.473  47.546 -30.887  1.00  0.00     0.018 A 
HETATM   26  C15 UNL     1     -10.849  47.691 -29.489  1.00  0.00     0.012 A 
HETATM   27  C16 UNL     1      -9.940  47.868 -28.500  1.00  0.00    -0.017 A 
HETATM   28  C17 UNL     1     -10.396  48.003 -27.072  1.00  0.00     0.052 C 
HETATM   29  N6  UNL     1      -7.469  48.092 -28.135  1.00  0.00    -0.343 N 
ATOM     30  H6  UNL     1      -7.424  48.252 -27.129  1.00  0.00     0.167 HD
ENDBRANCH  19  20
ENDBRANCH  16  19
ENDBRANCH   7  13
BRANCH   1  31
HETATM   31  C4  UNL     1      -0.127  51.451 -20.508  1.00  0.00    -0.004 A 
HETATM   32  C3  UNL     1       0.443  52.377 -21.386  1.00  0.00     0.038 A 
HETATM   33  C2  UNL     1       1.046  53.518 -20.864  1.00  0.00     0.005 A 
HETATM   34  C1  UNL     1       1.701  54.512 -21.777  1.00  0.00     0.068 C 
HETATM   35  N8  UNL     1       1.090  53.776 -19.537  1.00  0.00    -0.369 N 
HETATM   36  C22 UNL     1       0.515  52.880 -18.708  1.00  0.00     0.089 A 
ATOM     37  H8  UNL     1       1.542  54.616 -19.177  1.00  0.00     0.165 HD
HETATM   38  C21 UNL     1      -0.097  51.719 -19.139  1.00  0.00     0.031 A 
ENDBRANCH   1  31
TORSDOF 4
ENDMDL
MODEL 9
REMARK minimizedAffinity -9.19181824
REMARK  4 active torsions:
REMARK  status: ('A' for Active; 'I' for Inactive)
REMARK    1  A    between atoms: C4_4  and  C5_5 
REMARK    2  A    between atoms: C8_11  and  N3_12 
REMARK       I    between atoms: N3_12  and  C9_13 
REMARK       I    between atoms: C9_13  and  N4_15 
REMARK    3  A    between atoms: N4_15  and  C10_16 
REMARK    4  A    between atoms: C10_16  and  C11_17 
ROOT
HETATM    1  C5  UNL     1       0.916  53.411 -23.719  1.00  0.00     0.072 A 
HETATM    2  N1  UNL     1       1.612  54.516 -23.394  1.00  0.00    -0.299 N 
ATOM      3  H1  UNL     1       2.089  55.160 -24.024  1.00  0.00     0.187 HD
HETATM    4  N2  UNL     1       1.538  54.579 -22.057  1.00  0.00    -0.299 N 
HETATM    5  C6  UNL     1       0.853  53.547 -21.485  1.00  0.00     0.065 A 
HETATM    6  C7  UNL     1       0.579  53.240 -20.153  1.00  0.00     0.080 A 
HETATM    7  C8  UNL     1      -0.139  52.068 -19.952  1.00  0.00     0.111 A 
HETATM    8  N7  UNL     1      -0.561  51.269 -20.959  1.00  0.00    -0.351 N 
ATOM      9  H7  UNL     1      -1.095  50.424 -20.750  1.00  0.00     0.166 HD
HETATM   10  C19 UNL     1      -0.275  51.590 -22.248  1.00  0.00     0.105 A 
HETATM   11  C20 UNL     1       0.436  52.753 -22.544  1.00  0.00     0.036 A 
HETATM   12  H5  UNL     1       1.990  55.356 -21.586  1.00  0.00     0.187 HD
ENDROOT
BRANCH   7  13
HETATM   13  N3  UNL     1      -0.494  51.590 -18.690  1.00  0.00    -0.295 N 
HETATM   14  C9  UNL     1      -1.740  51.504 -18.133  1.00  0.00     0.322 C 
HETATM   15  O1  UNL     1      -2.797  51.841 -18.653  1.00  0.00    -0.247 OA
HETATM   16  N4  UNL     1      -1.679  51.002 -16.855  1.00  0.00    -0.337 N 
HETATM   17  H8  UNL     1      -0.949  50.327 -16.666  1.00  0.00     0.164 HD
HETATM   18  H7  UNL     1       0.303  51.416 -18.099  1.00  0.00     0.172 HD
BRANCH  16  19
HETATM   19  C10 UNL     1      -2.899  50.771 -16.116  1.00  0.00     0.182 C 
BRANCH  19  20
HETATM   20  C11 UNL     1      -2.573  50.864 -14.667  1.00  0.00     0.044 A 
HETATM   21  C12 UNL     1      -1.698  50.098 -13.923  1.00  0.00     0.124 A 
HETATM   22  N5  UNL     1      -1.802  50.561 -12.635  1.00  0.00    -0.317 N 
HETATM   23  C13 UNL     1      -1.149  50.126 -11.489  1.00  0.00     0.098 A 
HETATM   24  C18 UNL     1      -2.732  51.596 -12.648  1.00  0.00     0.117 A 
HETATM   25  C14 UNL     1      -1.412  50.732 -10.322  1.00  0.00     0.018 A 
HETATM   26  C15 UNL     1      -2.362  51.833 -10.298  1.00  0.00     0.012 A 
HETATM   27  C16 UNL     1      -3.010  52.267 -11.407  1.00  0.00    -0.017 A 
HETATM   28  C17 UNL     1      -3.974  53.418 -11.314  1.00  0.00     0.052 C 
HETATM   29  N6  UNL     1      -3.222  51.785 -13.859  1.00  0.00    -0.343 N 
ATOM     30  H6  UNL     1      -3.928  52.465 -14.140  1.00  0.00     0.167 HD
ENDBRANCH  19  20
ENDBRANCH  16  19
ENDBRANCH   7  13
BRANCH   1  31
HETATM   31  C4  UNL     1       0.761  53.016 -25.119  1.00  0.00    -0.004 A 
HETATM   32  C3  UNL     1      -0.007  53.775 -26.007  1.00  0.00     0.038 A 
HETATM   33  C2  UNL     1      -0.139  53.342 -27.324  1.00  0.00     0.005 A 
HETATM   34  C1  UNL     1      -0.987  54.113 -28.291  1.00  0.00     0.068 C 
HETATM   35  N8  UNL     1       0.461  52.221 -27.785  1.00  0.00    -0.369 N 
HETATM   36  C22 UNL     1       1.216  51.515 -26.917  1.00  0.00     0.089 A 
ATOM     37  H8  UNL     1       0.347  51.921 -28.753  1.00  0.00     0.165 HD
HETATM   38  C21 UNL     1       1.393  51.866 -25.593  1.00  0.00     0.031 A 
ENDBRANCH   1  31
TORSDOF 4
ENDMDL
