MODEL 1
REMARK minimizedAffinity -8.96196842
REMARK  9 active torsions:
REMARK  status: ('A' for Active; 'I' for Inactive)
REMARK    1  A    between atoms: O1_2  and  C2_3 
REMARK    2  A    between atoms: C2_3  and  C3_4 
REMARK    3  A    between atoms: C3_4  and  N1_5 
REMARK    4  A    between atoms: C3_4  and  C19_30 
REMARK       I    between atoms: N1_5  and  C4_6 
REMARK       I    between atoms: C4_6  and  N2_8 
REMARK    5  A    between atoms: N2_8  and  C5_9 
REMARK    6  A    between atoms: N5_16  and  C9_17 
REMARK    7  A    between atoms: C9_17  and  C10_18 
REMARK    8  A    between atoms: C12_20  and  C13_21 
REMARK    9  A    between atoms: C13_21  and  O3_24 
ROOT
HETATM    1  C5  UNL     1      -3.348  48.781 -23.784  1.00  0.00     0.111 A 
HETATM    2  C6  UNL     1      -2.901  48.901 -25.094  1.00  0.00     0.080 A 
HETATM    3  C7  UNL     1      -3.859  48.644 -26.075  1.00  0.00     0.067 A 
HETATM    4  N3  UNL     1      -3.798  48.661 -27.439  1.00  0.00    -0.298 N 
HETATM    5  N4  UNL     1      -4.954  48.351 -28.043  1.00  0.00    -0.284 N 
ATOM      6  H4  UNL     1      -5.144  48.302 -29.044  1.00  0.00     0.188 HD
HETATM    7  C8  UNL     1      -5.802  48.122 -27.038  1.00  0.00     0.129 A 
HETATM    8  N5  UNL     1      -7.103  47.771 -27.174  1.00  0.00    -0.374 N 
HETATM    9  C17 UNL     1      -5.165  48.289 -25.776  1.00  0.00     0.052 A 
HETATM   10  C18 UNL     1      -5.526  48.180 -24.433  1.00  0.00     0.107 A 
HETATM   11  N6  UNL     1      -4.614  48.428 -23.455  1.00  0.00    -0.351 N 
ATOM     12  H6  UNL     1      -4.884  48.349 -22.474  1.00  0.00     0.166 HD
HETATM   13  H10 UNL     1      -2.995  48.876 -28.020  1.00  0.00     0.187 HD
HETATM   14  H11 UNL     1      -7.720  47.913 -26.384  1.00  0.00     0.161 HD
ENDROOT
BRANCH   1  15
HETATM   15  N2  UNL     1      -2.536  48.998 -22.671  1.00  0.00    -0.295 N 
HETATM   16  C4  UNL     1      -2.580  50.029 -21.773  1.00  0.00     0.322 C 
HETATM   17  N1  UNL     1      -1.591  49.899 -20.822  1.00  0.00    -0.332 N 
HETATM   18  O2  UNL     1      -3.384  50.953 -21.760  1.00  0.00    -0.247 OA
HETATM   19  H7  UNL     1      -0.737  49.474 -21.150  1.00  0.00     0.165 HD
HETATM   20  H8  UNL     1      -1.920  48.225 -22.479  1.00  0.00     0.172 HD
BRANCH  17  21
HETATM   21  C3  UNL     1      -1.374  50.959 -19.844  1.00  0.00     0.143 C 
BRANCH  21  22
HETATM   22  C2  UNL     1      -2.714  51.537 -19.323  1.00  0.00     0.197 C 
BRANCH  22  23
HETATM   23  O1  UNL     1      -2.875  51.284 -17.917  1.00  0.00    -0.394 OA
HETATM   24  C1  UNL     1      -1.716  50.672 -17.365  1.00  0.00     0.201 C 
ENDBRANCH  22  23
ENDBRANCH  21  22
BRANCH  21  25
HETATM   25  C19 UNL     1      -0.422  51.994 -20.426  1.00  0.00    -0.033 A 
HETATM   26  C20 UNL     1       0.063  53.020 -19.596  1.00  0.00     0.009 A 
HETATM   27  C21 UNL     1       0.950  53.982 -20.085  1.00  0.00     0.001 A 
HETATM   28  C22 UNL     1       1.373  53.928 -21.410  1.00  0.00     0.000 A 
HETATM   29  C23 UNL     1       0.917  52.908 -22.243  1.00  0.00     0.001 A 
HETATM   30  C24 UNL     1       0.031  51.945 -21.754  1.00  0.00     0.009 A 
ENDBRANCH  21  25
ENDBRANCH  17  21
ENDBRANCH   1  15
BRANCH   8  31
HETATM   31  C9  UNL     1      -7.750  47.887 -28.474  1.00  0.00     0.126 C 
BRANCH  31  32
HETATM   32  C10 UNL     1      -6.766  47.806 -29.641  1.00  0.00     0.004 C 
HETATM   33  C11 UNL     1      -7.092  48.511 -30.980  1.00  0.00     0.014 C 
HETATM   34  C12 UNL     1      -6.464  47.304 -31.734  1.00  0.00     0.020 C 
HETATM   35  C16 UNL     1      -6.652  46.479 -30.427  1.00  0.00     0.014 C 
BRANCH  34  36
HETATM   36  C13 UNL     1      -5.051  47.459 -32.323  1.00  0.00     0.054 C 
HETATM   37  C14 UNL     1      -5.143  47.726 -33.826  1.00  0.00     0.045 C 
HETATM   38  C15 UNL     1      -4.231  46.191 -32.073  1.00  0.00     0.045 C 
BRANCH  36  39
HETATM   39  O3  UNL     1      -4.381  48.570 -31.731  1.00  0.00    -0.390 OA
HETATM   40  H24 UNL     1      -4.152  48.336 -30.816  1.00  0.00     0.210 HD
ENDBRANCH  36  39
ENDBRANCH  34  36
ENDBRANCH  31  32
ENDBRANCH   8  31
TORSDOF 9
ENDMDL
MODEL 2
REMARK minimizedAffinity -8.84187889
REMARK  9 active torsions:
REMARK  status: ('A' for Active; 'I' for Inactive)
REMARK    1  A    between atoms: O1_2  and  C2_3 
REMARK    2  A    between atoms: C2_3  and  C3_4 
REMARK    3  A    between atoms: C3_4  and  N1_5 
REMARK    4  A    between atoms: C3_4  and  C19_30 
REMARK       I    between atoms: N1_5  and  C4_6 
REMARK       I    between atoms: C4_6  and  N2_8 
REMARK    5  A    between atoms: N2_8  and  C5_9 
REMARK    6  A    between atoms: N5_16  and  C9_17 
REMARK    7  A    between atoms: C9_17  and  C10_18 
REMARK    8  A    between atoms: C12_20  and  C13_21 
REMARK    9  A    between atoms: C13_21  and  O3_24 
ROOT
HETATM    1  C5  UNL     1       0.636  52.107 -19.861  1.00  0.00     0.111 A 
HETATM    2  C6  UNL     1       1.374  52.907 -18.997  1.00  0.00     0.080 A 
HETATM    3  C7  UNL     1       1.227  52.610 -17.643  1.00  0.00     0.067 A 
HETATM    4  N3  UNL     1       1.777  53.162 -16.521  1.00  0.00    -0.298 N 
HETATM    5  N4  UNL     1       1.380  52.587 -15.376  1.00  0.00    -0.284 N 
ATOM      6  H4  UNL     1       1.658  52.829 -14.425  1.00  0.00     0.188 HD
HETATM    7  C8  UNL     1       0.539  51.625 -15.763  1.00  0.00     0.129 A 
HETATM    8  N5  UNL     1      -0.114  50.775 -14.935  1.00  0.00    -0.374 N 
HETATM    9  C17 UNL     1       0.403  51.595 -17.179  1.00  0.00     0.052 A 
HETATM   10  C18 UNL     1      -0.311  50.849 -18.116  1.00  0.00     0.107 A 
HETATM   11  N6  UNL     1      -0.184  51.113 -19.445  1.00  0.00    -0.351 N 
ATOM     12  H6  UNL     1      -0.707  50.562 -20.127  1.00  0.00     0.166 HD
HETATM   13  H10 UNL     1       2.429  53.935 -16.468  1.00  0.00     0.187 HD
HETATM   14  H11 UNL     1      -0.478  49.915 -15.326  1.00  0.00     0.161 HD
ENDROOT
BRANCH   1  15
HETATM   15  N2  UNL     1       0.654  52.253 -21.249  1.00  0.00    -0.295 N 
HETATM   16  C4  UNL     1      -0.351  52.014 -22.144  1.00  0.00     0.322 C 
HETATM   17  N1  UNL     1       0.066  52.256 -23.434  1.00  0.00    -0.332 N 
HETATM   18  O2  UNL     1      -1.492  51.651 -21.881  1.00  0.00    -0.247 OA
HETATM   19  H7  UNL     1       1.039  52.055 -23.613  1.00  0.00     0.165 HD
HETATM   20  H8  UNL     1       1.497  52.691 -21.585  1.00  0.00     0.172 HD
BRANCH  17  21
HETATM   21  C3  UNL     1      -0.808  51.938 -24.558  1.00  0.00     0.143 C 
BRANCH  21  22
HETATM   22  C2  UNL     1      -1.641  50.659 -24.287  1.00  0.00     0.197 C 
BRANCH  22  23
HETATM   23  O1  UNL     1      -3.043  50.965 -24.194  1.00  0.00    -0.394 OA
HETATM   24  C1  UNL     1      -3.393  52.048 -25.046  1.00  0.00     0.201 C 
ENDBRANCH  22  23
ENDBRANCH  21  22
BRANCH  21  25
HETATM   25  C19 UNL     1       0.013  51.899 -25.839  1.00  0.00    -0.033 A 
HETATM   26  C20 UNL     1       1.409  51.756 -25.753  1.00  0.00     0.009 A 
HETATM   27  C21 UNL     1       2.199  51.702 -26.903  1.00  0.00     0.001 A 
HETATM   28  C22 UNL     1       1.604  51.778 -28.159  1.00  0.00     0.000 A 
HETATM   29  C23 UNL     1       0.220  51.902 -28.265  1.00  0.00     0.001 A 
HETATM   30  C24 UNL     1      -0.570  51.956 -27.114  1.00  0.00     0.009 A 
ENDBRANCH  21  25
ENDBRANCH  17  21
ENDBRANCH   1  15
BRANCH   8  31
HETATM   31  C9  UNL     1       0.281  50.683 -13.535  1.00  0.00     0.126 C 
BRANCH  31  32
HETATM   32  C10 UNL     1      -0.520  51.617 -12.627  1.00  0.00     0.004 C 
HETATM   33  C11 UNL     1      -1.019  51.116 -11.250  1.00  0.00     0.014 C 
HETATM   34  C12 UNL     1      -2.338  51.913 -11.473  1.00  0.00     0.020 C 
HETATM   35  C16 UNL     1      -1.991  51.926 -12.991  1.00  0.00     0.014 C 
BRANCH  34  36
HETATM   36  C13 UNL     1      -2.522  53.251 -10.737  1.00  0.00     0.054 C 
HETATM   37  C14 UNL     1      -2.341  53.043  -9.232  1.00  0.00     0.045 C 
HETATM   38  C15 UNL     1      -3.915  53.822 -11.016  1.00  0.00     0.045 C 
BRANCH  36  39
HETATM   39  O3  UNL     1      -1.540  54.195 -11.160  1.00  0.00    -0.390 OA
HETATM   40  H24 UNL     1      -1.755  54.475 -12.065  1.00  0.00     0.210 HD
ENDBRANCH  36  39
ENDBRANCH  34  36
ENDBRANCH  31  32
ENDBRANCH   8  31
TORSDOF 9
ENDMDL
MODEL 3
REMARK minimizedAffinity -8.69640732
REMARK  9 active torsions:
REMARK  status: ('A' for Active; 'I' for Inactive)
REMARK    1  A    between atoms: O1_2  and  C2_3 
REMARK    2  A    between atoms: C2_3  and  C3_4 
REMARK    3  A    between atoms: C3_4  and  N1_5 
REMARK    4  A    between atoms: C3_4  and  C19_30 
REMARK       I    between atoms: N1_5  and  C4_6 
REMARK       I    between atoms: C4_6  and  N2_8 
REMARK    5  A    between atoms: N2_8  and  C5_9 
REMARK    6  A    between atoms: N5_16  and  C9_17 
REMARK    7  A    between atoms: C9_17  and  C10_18 
REMARK    8  A    between atoms: C12_20  and  C13_21 
REMARK    9  A    between atoms: C13_21  and  O3_24 
ROOT
HETATM    1  C5  UNL     1      -3.235  48.817 -24.451  1.00  0.00     0.111 A 
HETATM    2  C6  UNL     1      -4.562  48.404 -24.422  1.00  0.00     0.080 A 
HETATM    3  C7  UNL     1      -5.170  48.272 -25.670  1.00  0.00     0.067 A 
HETATM    4  N3  UNL     1      -6.431  47.897 -26.038  1.00  0.00    -0.298 N 
HETATM    5  N4  UNL     1      -6.638  47.893 -27.363  1.00  0.00    -0.284 N 
ATOM      6  H4  UNL     1      -7.493  47.649 -27.862  1.00  0.00     0.188 HD
HETATM    7  C8  UNL     1      -5.470  48.281 -27.881  1.00  0.00     0.129 A 
HETATM    8  N5  UNL     1      -5.208  48.424 -29.201  1.00  0.00    -0.374 N 
HETATM    9  C17 UNL     1      -4.510  48.536 -26.861  1.00  0.00     0.052 A 
HETATM   10  C18 UNL     1      -3.183  48.957 -26.797  1.00  0.00     0.107 A 
HETATM   11  N6  UNL     1      -2.561  49.091 -25.594  1.00  0.00    -0.351 N 
ATOM     12  H6  UNL     1      -1.589  49.398 -25.553  1.00  0.00     0.166 HD
HETATM   13  H10 UNL     1      -7.199  47.631 -25.431  1.00  0.00     0.187 HD
HETATM   14  H11 UNL     1      -4.240  48.427 -29.497  1.00  0.00     0.161 HD
ENDROOT
BRANCH   1  15
HETATM   15  N2  UNL     1      -2.463  49.004 -23.305  1.00  0.00    -0.295 N 
HETATM   16  C4  UNL     1      -2.627  49.926 -22.308  1.00  0.00     0.322 C 
HETATM   17  N1  UNL     1      -1.640  49.805 -21.355  1.00  0.00    -0.332 N 
HETATM   18  O2  UNL     1      -3.526  50.753 -22.219  1.00  0.00    -0.247 OA
HETATM   19  H7  UNL     1      -0.741  49.510 -21.707  1.00  0.00     0.165 HD
HETATM   20  H8  UNL     1      -1.768  48.285 -23.180  1.00  0.00     0.172 HD
BRANCH  17  21
HETATM   21  C3  UNL     1      -1.548  50.776 -20.271  1.00  0.00     0.143 C 
BRANCH  21  22
HETATM   22  C2  UNL     1      -2.947  51.293 -19.849  1.00  0.00     0.197 C 
BRANCH  22  23
HETATM   23  O1  UNL     1      -2.932  51.782 -18.496  1.00  0.00    -0.394 OA
HETATM   24  C1  UNL     1      -2.698  50.730 -17.569  1.00  0.00     0.201 C 
ENDBRANCH  22  23
ENDBRANCH  21  22
BRANCH  21  25
HETATM   25  C19 UNL     1      -0.560  51.868 -20.654  1.00  0.00    -0.033 A 
HETATM   26  C20 UNL     1      -0.160  51.988 -21.997  1.00  0.00     0.009 A 
HETATM   27  C21 UNL     1       0.734  52.984 -22.395  1.00  0.00     0.001 A 
HETATM   28  C22 UNL     1       1.235  53.884 -21.458  1.00  0.00     0.000 A 
HETATM   29  C23 UNL     1       0.837  53.792 -20.126  1.00  0.00     0.001 A 
HETATM   30  C24 UNL     1      -0.057  52.795 -19.728  1.00  0.00     0.009 A 
ENDBRANCH  21  25
ENDBRANCH  17  21
ENDBRANCH   1  15
BRANCH   8  31
HETATM   31  C9  UNL     1      -6.138  47.888 -30.186  1.00  0.00     0.126 C 
BRANCH  31  32
HETATM   32  C10 UNL     1      -7.574  47.805 -29.667  1.00  0.00     0.004 C 
HETATM   33  C11 UNL     1      -8.504  46.662 -30.142  1.00  0.00     0.014 C 
HETATM   34  C12 UNL     1      -9.684  47.676 -30.170  1.00  0.00     0.020 C 
HETATM   35  C16 UNL     1      -8.619  48.810 -30.207  1.00  0.00     0.014 C 
BRANCH  34  36
HETATM   36  C13 UNL     1     -10.706  47.648 -29.020  1.00  0.00     0.054 C 
HETATM   37  C14 UNL     1     -10.715  46.263 -28.369  1.00  0.00     0.045 C 
HETATM   38  C15 UNL     1     -12.105  47.980 -29.546  1.00  0.00     0.045 C 
BRANCH  36  39
HETATM   39  O3  UNL     1     -10.352  48.592 -28.012  1.00  0.00    -0.390 OA
HETATM   40  H24 UNL     1     -10.519  49.485 -28.358  1.00  0.00     0.210 HD
ENDBRANCH  36  39
ENDBRANCH  34  36
ENDBRANCH  31  32
ENDBRANCH   8  31
TORSDOF 9
ENDMDL
MODEL 4
REMARK minimizedAffinity -8.52568245
REMARK  9 active torsions:
REMARK  status: ('A' for Active; 'I' for Inactive)
REMARK    1  A    between atoms: O1_2  and  C2_3 
REMARK    2  A    between atoms: C2_3  and  C3_4 
REMARK    3  A    between atoms: C3_4  and  N1_5 
REMARK    4  A    between atoms: C3_4  and  C19_30 
REMARK       I    between atoms: N1_5  and  C4_6 
REMARK       I    between atoms: C4_6  and  N2_8 
REMARK    5  A    between atoms: N2_8  and  C5_9 
REMARK    6  A    between atoms: N5_16  and  C9_17 
REMARK    7  A    between atoms: C9_17  and  C10_18 
REMARK    8  A    between atoms: C12_20  and  C13_21 
REMARK    9  A    between atoms: C13_21  and  O3_24 
ROOT
HETATM    1  C5  UNL     1      -0.328  52.158 -20.658  1.00  0.00     0.111 A 
HETATM    2  C6  UNL     1      -0.597  50.906 -20.118  1.00  0.00     0.080 A 
HETATM    3  C7  UNL     1      -0.249  50.751 -18.777  1.00  0.00     0.067 A 
HETATM    4  N3  UNL     1      -0.357  49.693 -17.921  1.00  0.00    -0.298 N 
HETATM    5  N4  UNL     1       0.098  49.940 -16.683  1.00  0.00    -0.284 N 
ATOM      6  H4  UNL     1       0.117  49.305 -15.886  1.00  0.00     0.188 HD
HETATM    7  C8  UNL     1       0.521  51.205 -16.733  1.00  0.00     0.129 A 
HETATM    8  N5  UNL     1       1.067  51.889 -15.700  1.00  0.00    -0.374 N 
HETATM    9  C17 UNL     1       0.329  51.764 -18.027  1.00  0.00     0.052 A 
HETATM   10  C18 UNL     1       0.575  52.986 -18.653  1.00  0.00     0.107 A 
HETATM   11  N6  UNL     1       0.242  53.169 -19.959  1.00  0.00    -0.351 N 
ATOM     12  H6  UNL     1       0.422  54.065 -20.412  1.00  0.00     0.166 HD
HETATM   13  H10 UNL     1      -0.732  48.772 -18.119  1.00  0.00     0.187 HD
HETATM   14  H11 UNL     1       1.073  52.901 -15.749  1.00  0.00     0.161 HD
ENDROOT
BRANCH   1  15
HETATM   15  N2  UNL     1      -0.607  52.501 -21.982  1.00  0.00    -0.295 N 
HETATM   16  C4  UNL     1      -0.943  51.679 -23.022  1.00  0.00     0.322 C 
HETATM   17  N1  UNL     1      -1.118  52.398 -24.184  1.00  0.00    -0.332 N 
HETATM   18  O2  UNL     1      -1.099  50.465 -22.973  1.00  0.00    -0.247 OA
HETATM   19  H7  UNL     1      -0.526  53.210 -24.277  1.00  0.00     0.165 HD
HETATM   20  H8  UNL     1      -0.658  53.496 -22.125  1.00  0.00     0.172 HD
BRANCH  17  21
HETATM   21  C3  UNL     1      -1.351  51.703 -25.445  1.00  0.00     0.143 C 
BRANCH  21  22
HETATM   22  C2  UNL     1      -2.025  50.326 -25.221  1.00  0.00     0.197 C 
BRANCH  22  23
HETATM   23  O1  UNL     1      -1.995  49.534 -26.421  1.00  0.00    -0.394 OA
HETATM   24  C1  UNL     1      -3.182  49.706 -27.185  1.00  0.00     0.201 C 
ENDBRANCH  22  23
ENDBRANCH  21  22
BRANCH  21  25
HETATM   25  C19 UNL     1      -0.053  51.651 -26.239  1.00  0.00    -0.033 A 
HETATM   26  C20 UNL     1      -0.084  51.919 -27.619  1.00  0.00     0.009 A 
HETATM   27  C21 UNL     1       1.085  51.896 -28.382  1.00  0.00     0.001 A 
HETATM   28  C22 UNL     1       2.306  51.614 -27.776  1.00  0.00     0.000 A 
HETATM   29  C23 UNL     1       2.359  51.363 -26.406  1.00  0.00     0.001 A 
HETATM   30  C24 UNL     1       1.190  51.387 -25.643  1.00  0.00     0.009 A 
ENDBRANCH  21  25
ENDBRANCH  17  21
ENDBRANCH   1  15
BRANCH   8  31
HETATM   31  C9  UNL     1       0.979  51.351 -14.349  1.00  0.00     0.126 C 
BRANCH  31  32
HETATM   32  C10 UNL     1      -0.277  51.806 -13.606  1.00  0.00     0.004 C 
HETATM   33  C11 UNL     1      -0.152  52.717 -12.360  1.00  0.00     0.014 C 
HETATM   34  C12 UNL     1      -1.320  51.926 -11.703  1.00  0.00     0.020 C 
HETATM   35  C16 UNL     1      -1.027  50.784 -12.719  1.00  0.00     0.014 C 
BRANCH  34  36
HETATM   36  C13 UNL     1      -2.719  52.565 -11.679  1.00  0.00     0.054 C 
HETATM   37  C14 UNL     1      -3.586  51.874 -10.625  1.00  0.00     0.045 C 
HETATM   38  C15 UNL     1      -3.381  52.442 -13.054  1.00  0.00     0.045 C 
BRANCH  36  39
HETATM   39  O3  UNL     1      -2.634  53.944 -11.327  1.00  0.00    -0.390 OA
HETATM   40  H24 UNL     1      -2.246  54.428 -12.075  1.00  0.00     0.210 HD
ENDBRANCH  36  39
ENDBRANCH  34  36
ENDBRANCH  31  32
ENDBRANCH   8  31
TORSDOF 9
ENDMDL
MODEL 5
REMARK minimizedAffinity -8.52366638
REMARK  9 active torsions:
REMARK  status: ('A' for Active; 'I' for Inactive)
REMARK    1  A    between atoms: O1_2  and  C2_3 
REMARK    2  A    between atoms: C2_3  and  C3_4 
REMARK    3  A    between atoms: C3_4  and  N1_5 
REMARK    4  A    between atoms: C3_4  and  C19_30 
REMARK       I    between atoms: N1_5  and  C4_6 
REMARK       I    between atoms: C4_6  and  N2_8 
REMARK    5  A    between atoms: N2_8  and  C5_9 
REMARK    6  A    between atoms: N5_16  and  C9_17 
REMARK    7  A    between atoms: C9_17  and  C10_18 
REMARK    8  A    between atoms: C12_20  and  C13_21 
REMARK    9  A    between atoms: C13_21  and  O3_24 
ROOT
HETATM    1  C5  UNL     1      -0.355  50.803 -20.112  1.00  0.00     0.111 A 
HETATM    2  C6  UNL     1      -0.445  49.706 -19.265  1.00  0.00     0.080 A 
HETATM    3  C7  UNL     1      -0.129  49.958 -17.930  1.00  0.00     0.067 A 
HETATM    4  N3  UNL     1      -0.104  49.153 -16.828  1.00  0.00    -0.298 N 
HETATM    5  N4  UNL     1       0.259  49.779 -15.699  1.00  0.00    -0.284 N 
ATOM      6  H4  UNL     1       0.346  49.382 -14.764  1.00  0.00     0.188 HD
HETATM    7  C8  UNL     1       0.480  51.040 -16.077  1.00  0.00     0.129 A 
HETATM    8  N5  UNL     1       0.873  52.045 -15.259  1.00  0.00    -0.374 N 
HETATM    9  C17 UNL     1       0.254  51.210 -17.472  1.00  0.00     0.052 A 
HETATM   10  C18 UNL     1       0.330  52.253 -18.394  1.00  0.00     0.107 A 
HETATM   11  N6  UNL     1       0.024  52.038 -19.702  1.00  0.00    -0.351 N 
ATOM     12  H6  UNL     1       0.079  52.805 -20.372  1.00  0.00     0.166 HD
HETATM   13  H10 UNL     1      -0.323  48.164 -16.780  1.00  0.00     0.187 HD
HETATM   14  H11 UNL     1       0.723  52.997 -15.569  1.00  0.00     0.161 HD
ENDROOT
BRANCH   1  15
HETATM   15  N2  UNL     1      -0.632  50.745 -21.478  1.00  0.00    -0.295 N 
HETATM   16  C4  UNL     1      -0.644  51.764 -22.390  1.00  0.00     0.322 C 
HETATM   17  N1  UNL     1      -0.989  51.305 -23.642  1.00  0.00    -0.332 N 
HETATM   18  O2  UNL     1      -0.373  52.939 -22.174  1.00  0.00    -0.247 OA
HETATM   19  H7  UNL     1      -1.642  50.535 -23.649  1.00  0.00     0.165 HD
HETATM   20  H8  UNL     1      -0.729  49.801 -21.818  1.00  0.00     0.172 HD
BRANCH  17  21
HETATM   21  C3  UNL     1      -1.191  52.248 -24.736  1.00  0.00     0.143 C 
BRANCH  21  22
HETATM   22  C2  UNL     1      -2.647  52.201 -25.266  1.00  0.00     0.197 C 
BRANCH  22  23
HETATM   23  O1  UNL     1      -3.593  52.384 -24.198  1.00  0.00    -0.394 OA
HETATM   24  C1  UNL     1      -4.630  51.412 -24.254  1.00  0.00     0.201 C 
ENDBRANCH  22  23
ENDBRANCH  21  22
BRANCH  21  25
HETATM   25  C19 UNL     1      -0.125  52.023 -25.798  1.00  0.00    -0.033 A 
HETATM   26  C20 UNL     1       1.208  51.821 -25.397  1.00  0.00     0.009 A 
HETATM   27  C21 UNL     1       2.216  51.597 -26.336  1.00  0.00     0.001 A 
HETATM   28  C22 UNL     1       1.907  51.562 -27.693  1.00  0.00     0.000 A 
HETATM   29  C23 UNL     1       0.589  51.742 -28.109  1.00  0.00     0.001 A 
HETATM   30  C24 UNL     1      -0.419  51.965 -27.169  1.00  0.00     0.009 A 
ENDBRANCH  21  25
ENDBRANCH  17  21
ENDBRANCH   1  15
BRANCH   8  31
HETATM   31  C9  UNL     1       0.818  51.865 -13.814  1.00  0.00     0.126 C 
BRANCH  31  32
HETATM   32  C10 UNL     1      -0.539  52.238 -13.217  1.00  0.00     0.004 C 
HETATM   33  C11 UNL     1      -0.611  52.966 -11.853  1.00  0.00     0.014 C 
HETATM   34  C12 UNL     1      -1.866  52.115 -11.500  1.00  0.00     0.020 C 
HETATM   35  C16 UNL     1      -1.416  51.119 -12.608  1.00  0.00     0.014 C 
BRANCH  34  36
HETATM   36  C13 UNL     1      -3.253  52.772 -11.604  1.00  0.00     0.054 C 
HETATM   37  C14 UNL     1      -3.282  54.055 -10.771  1.00  0.00     0.045 C 
HETATM   38  C15 UNL     1      -4.334  51.809 -11.108  1.00  0.00     0.045 C 
BRANCH  36  39
HETATM   39  O3  UNL     1      -3.537  53.132 -12.955  1.00  0.00    -0.390 OA
HETATM   40  H24 UNL     1      -3.702  52.319 -13.459  1.00  0.00     0.210 HD
ENDBRANCH  36  39
ENDBRANCH  34  36
ENDBRANCH  31  32
ENDBRANCH   8  31
TORSDOF 9
ENDMDL
MODEL 6
REMARK minimizedAffinity -8.51275826
REMARK  9 active torsions:
REMARK  status: ('A' for Active; 'I' for Inactive)
REMARK    1  A    between atoms: O1_2  and  C2_3 
REMARK    2  A    between atoms: C2_3  and  C3_4 
REMARK    3  A    between atoms: C3_4  and  N1_5 
REMARK    4  A    between atoms: C3_4  and  C19_30 
REMARK       I    between atoms: N1_5  and  C4_6 
REMARK       I    between atoms: C4_6  and  N2_8 
REMARK    5  A    between atoms: N2_8  and  C5_9 
REMARK    6  A    between atoms: N5_16  and  C9_17 
REMARK    7  A    between atoms: C9_17  and  C10_18 
REMARK    8  A    between atoms: C12_20  and  C13_21 
REMARK    9  A    between atoms: C13_21  and  O3_24 
ROOT
HETATM    1  C5  UNL     1      -3.536  48.936 -26.329  1.00  0.00     0.111 A 
HETATM    2  C6  UNL     1      -4.579  48.488 -25.527  1.00  0.00     0.080 A 
HETATM    3  C7  UNL     1      -5.677  47.972 -26.214  1.00  0.00     0.067 A 
HETATM    4  N3  UNL     1      -6.862  47.448 -25.782  1.00  0.00    -0.298 N 
HETATM    5  N4  UNL     1      -7.678  47.051 -26.770  1.00  0.00    -0.284 N 
ATOM      6  H4  UNL     1      -8.605  46.633 -26.685  1.00  0.00     0.188 HD
HETATM    7  C8  UNL     1      -7.003  47.327 -27.888  1.00  0.00     0.129 A 
HETATM    8  N5  UNL     1      -7.444  47.095 -29.147  1.00  0.00    -0.374 N 
HETATM    9  C17 UNL     1      -5.738  47.911 -27.598  1.00  0.00     0.052 A 
HETATM   10  C18 UNL     1      -4.651  48.395 -28.326  1.00  0.00     0.107 A 
HETATM   11  N6  UNL     1      -3.564  48.900 -27.683  1.00  0.00    -0.351 N 
ATOM     12  H6  UNL     1      -2.771  49.251 -28.220  1.00  0.00     0.166 HD
HETATM   13  H10 UNL     1      -7.175  47.333 -24.825  1.00  0.00     0.187 HD
HETATM   14  H11 UNL     1      -6.760  47.057 -29.892  1.00  0.00     0.161 HD
ENDROOT
BRANCH   1  15
HETATM   15  N2  UNL     1      -2.357  49.484 -25.823  1.00  0.00    -0.295 N 
HETATM   16  C4  UNL     1      -2.117  50.770 -25.424  1.00  0.00     0.322 C 
HETATM   17  N1  UNL     1      -0.814  50.922 -25.005  1.00  0.00    -0.332 N 
HETATM   18  O2  UNL     1      -2.924  51.691 -25.405  1.00  0.00    -0.247 OA
HETATM   19  H7  UNL     1      -0.139  50.347 -25.488  1.00  0.00     0.165 HD
HETATM   20  H8  UNL     1      -1.648  48.790 -25.648  1.00  0.00     0.172 HD
BRANCH  17  21
HETATM   21  C3  UNL     1      -0.307  52.246 -24.661  1.00  0.00     0.143 C 
BRANCH  21  22
HETATM   22  C2  UNL     1       0.890  52.649 -25.560  1.00  0.00     0.197 C 
BRANCH  22  23
HETATM   23  O1  UNL     1       0.590  53.833 -26.320  1.00  0.00    -0.394 OA
HETATM   24  C1  UNL     1      -0.282  53.543 -27.405  1.00  0.00     0.201 C 
ENDBRANCH  22  23
ENDBRANCH  21  22
BRANCH  21  25
HETATM   25  C19 UNL     1      -0.023  52.304 -23.167  1.00  0.00    -0.033 A 
HETATM   26  C20 UNL     1       0.827  53.308 -22.671  1.00  0.00     0.009 A 
HETATM   27  C21 UNL     1       1.104  53.407 -21.306  1.00  0.00     0.001 A 
HETATM   28  C22 UNL     1       0.526  52.509 -20.412  1.00  0.00     0.000 A 
HETATM   29  C23 UNL     1      -0.332  51.518 -20.883  1.00  0.00     0.001 A 
HETATM   30  C24 UNL     1      -0.610  51.420 -22.248  1.00  0.00     0.009 A 
ENDBRANCH  21  25
ENDBRANCH  17  21
ENDBRANCH   1  15
BRANCH   8  31
HETATM   31  C9  UNL     1      -8.615  46.253 -29.359  1.00  0.00     0.126 C 
BRANCH  31  32
HETATM   32  C10 UNL     1      -9.829  46.703 -28.546  1.00  0.00     0.004 C 
HETATM   33  C11 UNL     1     -10.844  45.655 -28.027  1.00  0.00     0.014 C 
HETATM   34  C12 UNL     1     -11.991  46.661 -28.334  1.00  0.00     0.020 C 
HETATM   35  C16 UNL     1     -10.999  47.398 -29.280  1.00  0.00     0.014 C 
BRANCH  34  36
HETATM   36  C13 UNL     1     -12.622  47.436 -27.164  1.00  0.00     0.054 C 
HETATM   37  C14 UNL     1     -11.779  47.246 -25.902  1.00  0.00     0.045 C 
HETATM   38  C15 UNL     1     -14.049  46.944 -26.910  1.00  0.00     0.045 C 
BRANCH  36  39
HETATM   39  O3  UNL     1     -12.657  48.833 -27.449  1.00  0.00    -0.390 OA
HETATM   40  H24 UNL     1     -13.331  48.989 -28.131  1.00  0.00     0.210 HD
ENDBRANCH  36  39
ENDBRANCH  34  36
ENDBRANCH  31  32
ENDBRANCH   8  31
TORSDOF 9
ENDMDL
MODEL 7
REMARK minimizedAffinity -8.49753284
REMARK  9 active torsions:
REMARK  status: ('A' for Active; 'I' for Inactive)
REMARK    1  A    between atoms: O1_2  and  C2_3 
REMARK    2  A    between atoms: C2_3  and  C3_4 
REMARK    3  A    between atoms: C3_4  and  N1_5 
REMARK    4  A    between atoms: C3_4  and  C19_30 
REMARK       I    between atoms: N1_5  and  C4_6 
REMARK       I    between atoms: C4_6  and  N2_8 
REMARK    5  A    between atoms: N2_8  and  C5_9 
REMARK    6  A    between atoms: N5_16  and  C9_17 
REMARK    7  A    between atoms: C9_17  and  C10_18 
REMARK    8  A    between atoms: C12_20  and  C13_21 
REMARK    9  A    between atoms: C13_21  and  O3_24 
ROOT
HETATM    1  C5  UNL     1       1.318  51.970 -16.142  1.00  0.00     0.111 A 
HETATM    2  C6  UNL     1       0.756  50.708 -16.292  1.00  0.00     0.080 A 
HETATM    3  C7  UNL     1       0.137  50.475 -17.520  1.00  0.00     0.067 A 
HETATM    4  N3  UNL     1      -0.510  49.384 -18.026  1.00  0.00    -0.298 N 
HETATM    5  N4  UNL     1      -0.979  49.553 -19.271  1.00  0.00    -0.284 N 
ATOM      6  H4  UNL     1      -1.489  48.881 -19.844  1.00  0.00     0.188 HD
HETATM    7  C8  UNL     1      -0.629  50.801 -19.590  1.00  0.00     0.129 A 
HETATM    8  N5  UNL     1      -0.897  51.413 -20.767  1.00  0.00    -0.374 N 
HETATM    9  C17 UNL     1       0.074  51.430 -18.524  1.00  0.00     0.052 A 
HETATM   10  C18 UNL     1       0.653  52.676 -18.284  1.00  0.00     0.107 A 
HETATM   11  N6  UNL     1       1.269  52.930 -17.098  1.00  0.00    -0.351 N 
ATOM     12  H6  UNL     1       1.693  53.842 -16.928  1.00  0.00     0.166 HD
HETATM   13  H10 UNL     1      -0.665  48.492 -17.571  1.00  0.00     0.187 HD
HETATM   14  H11 UNL     1      -0.344  52.223 -21.020  1.00  0.00     0.161 HD
ENDROOT
BRANCH   1  15
HETATM   15  N2  UNL     1       1.979  52.385 -14.986  1.00  0.00    -0.295 N 
HETATM   16  C4  UNL     1       1.757  52.000 -13.693  1.00  0.00     0.322 C 
HETATM   17  N1  UNL     1       2.606  52.655 -12.829  1.00  0.00    -0.332 N 
HETATM   18  O2  UNL     1       0.941  51.172 -13.307  1.00  0.00    -0.247 OA
HETATM   19  H7  UNL     1       2.851  53.596 -13.102  1.00  0.00     0.165 HD
HETATM   20  H8  UNL     1       2.781  52.963 -15.181  1.00  0.00     0.172 HD
BRANCH  17  21
HETATM   21  C3  UNL     1       2.452  52.492 -11.388  1.00  0.00     0.143 C 
BRANCH  21  22
HETATM   22  C2  UNL     1       1.025  52.875 -10.920  1.00  0.00     0.197 C 
BRANCH  22  23
HETATM   23  O1  UNL     1       0.686  54.210 -11.333  1.00  0.00    -0.394 OA
HETATM   24  C1  UNL     1      -0.283  54.789 -10.468  1.00  0.00     0.201 C 
ENDBRANCH  22  23
ENDBRANCH  21  22
BRANCH  21  25
HETATM   25  C19 UNL     1       3.572  53.235 -10.674  1.00  0.00    -0.033 A 
HETATM   26  C20 UNL     1       4.411  52.526  -9.795  1.00  0.00     0.009 A 
HETATM   27  C21 UNL     1       5.460  53.165  -9.131  1.00  0.00     0.001 A 
HETATM   28  C22 UNL     1       5.693  54.521  -9.341  1.00  0.00     0.000 A 
HETATM   29  C23 UNL     1       4.884  55.236 -10.221  1.00  0.00     0.001 A 
HETATM   30  C24 UNL     1       3.835  54.597 -10.887  1.00  0.00     0.009 A 
ENDBRANCH  21  25
ENDBRANCH  17  21
ENDBRANCH   1  15
BRANCH   8  31
HETATM   31  C9  UNL     1      -1.370  50.628 -21.900  1.00  0.00     0.126 C 
BRANCH  31  32
HETATM   32  C10 UNL     1      -0.894  51.174 -23.245  1.00  0.00     0.004 C 
HETATM   33  C11 UNL     1       0.148  52.318 -23.292  1.00  0.00     0.014 C 
HETATM   34  C12 UNL     1      -0.618  52.926 -24.502  1.00  0.00     0.020 C 
HETATM   35  C16 UNL     1      -1.848  52.081 -24.059  1.00  0.00     0.014 C 
BRANCH  34  36
HETATM   36  C13 UNL     1      -0.043  52.726 -25.914  1.00  0.00     0.054 C 
HETATM   37  C14 UNL     1      -1.156  52.295 -26.871  1.00  0.00     0.045 C 
HETATM   38  C15 UNL     1       1.058  51.663 -25.891  1.00  0.00     0.045 C 
BRANCH  36  39
HETATM   39  O3  UNL     1       0.501  53.947 -26.412  1.00  0.00    -0.390 OA
HETATM   40  H24 UNL     1       1.320  54.137 -25.926  1.00  0.00     0.210 HD
ENDBRANCH  36  39
ENDBRANCH  34  36
ENDBRANCH  31  32
ENDBRANCH   8  31
TORSDOF 9
ENDMDL
MODEL 8
REMARK minimizedAffinity -8.39529228
REMARK  9 active torsions:
REMARK  status: ('A' for Active; 'I' for Inactive)
REMARK    1  A    between atoms: O1_2  and  C2_3 
REMARK    2  A    between atoms: C2_3  and  C3_4 
REMARK    3  A    between atoms: C3_4  and  N1_5 
REMARK    4  A    between atoms: C3_4  and  C19_30 
REMARK       I    between atoms: N1_5  and  C4_6 
REMARK       I    between atoms: C4_6  and  N2_8 
REMARK    5  A    between atoms: N2_8  and  C5_9 
REMARK    6  A    between atoms: N5_16  and  C9_17 
REMARK    7  A    between atoms: C9_17  and  C10_18 
REMARK    8  A    between atoms: C12_20  and  C13_21 
REMARK    9  A    between atoms: C13_21  and  O3_24 
ROOT
HETATM    1  C5  UNL     1      -3.351  48.719 -24.028  1.00  0.00     0.111 A 
HETATM    2  C6  UNL     1      -2.851  48.667 -25.324  1.00  0.00     0.080 A 
HETATM    3  C7  UNL     1      -3.801  48.429 -26.317  1.00  0.00     0.067 A 
HETATM    4  N3  UNL     1      -3.696  48.313 -27.674  1.00  0.00    -0.298 N 
HETATM    5  N4  UNL     1      -4.861  48.079 -28.296  1.00  0.00    -0.284 N 
ATOM      6  H4  UNL     1      -5.024  47.959 -29.295  1.00  0.00     0.188 HD
HETATM    7  C8  UNL     1      -5.761  48.039 -27.310  1.00  0.00     0.129 A 
HETATM    8  N5  UNL     1      -7.088  47.824 -27.469  1.00  0.00    -0.374 N 
HETATM    9  C17 UNL     1      -5.149  48.250 -26.042  1.00  0.00     0.052 A 
HETATM   10  C18 UNL     1      -5.561  48.306 -24.711  1.00  0.00     0.107 A 
HETATM   11  N6  UNL     1      -4.658  48.542 -23.721  1.00  0.00    -0.351 N 
ATOM     12  H6  UNL     1      -4.966  48.584 -22.749  1.00  0.00     0.166 HD
HETATM   13  H10 UNL     1      -2.857  48.382 -28.237  1.00  0.00     0.187 HD
HETATM   14  H11 UNL     1      -7.709  48.106 -26.720  1.00  0.00     0.161 HD
ENDROOT
BRANCH   1  15
HETATM   15  N2  UNL     1      -2.554  48.947 -22.906  1.00  0.00    -0.295 N 
HETATM   16  C4  UNL     1      -2.633  49.967 -21.998  1.00  0.00     0.322 C 
HETATM   17  N1  UNL     1      -1.649  49.854 -21.040  1.00  0.00    -0.332 N 
HETATM   18  O2  UNL     1      -3.461  50.870 -21.984  1.00  0.00    -0.247 OA
HETATM   19  H7  UNL     1      -0.781  49.456 -21.365  1.00  0.00     0.165 HD
HETATM   20  H8  UNL     1      -1.919  48.189 -22.716  1.00  0.00     0.172 HD
BRANCH  17  21
HETATM   21  C3  UNL     1      -1.468  50.910 -20.050  1.00  0.00     0.143 C 
BRANCH  21  22
HETATM   22  C2  UNL     1      -2.827  51.467 -19.556  1.00  0.00     0.197 C 
BRANCH  22  23
HETATM   23  O1  UNL     1      -2.839  51.609 -18.125  1.00  0.00    -0.394 OA
HETATM   24  C1  UNL     1      -1.995  50.649 -17.503  1.00  0.00     0.201 C 
ENDBRANCH  22  23
ENDBRANCH  21  22
BRANCH  21  25
HETATM   25  C19 UNL     1      -0.517  51.962 -20.603  1.00  0.00    -0.033 A 
HETATM   26  C20 UNL     1       0.040  52.909 -19.726  1.00  0.00     0.009 A 
HETATM   27  C21 UNL     1       0.928  53.882 -20.188  1.00  0.00     0.001 A 
HETATM   28  C22 UNL     1       1.282  53.918 -21.534  1.00  0.00     0.000 A 
HETATM   29  C23 UNL     1       0.755  52.976 -22.415  1.00  0.00     0.001 A 
HETATM   30  C24 UNL     1      -0.133  52.002 -21.953  1.00  0.00     0.009 A 
ENDBRANCH  21  25
ENDBRANCH  17  21
ENDBRANCH   1  15
BRANCH   8  31
HETATM   31  C9  UNL     1      -7.677  47.890 -28.799  1.00  0.00     0.126 C 
BRANCH  31  32
HETATM   32  C10 UNL     1      -9.203  47.810 -28.781  1.00  0.00     0.004 C 
HETATM   33  C11 UNL     1      -9.936  47.289 -27.521  1.00  0.00     0.014 C 
HETATM   34  C12 UNL     1     -10.955  46.567 -28.450  1.00  0.00     0.020 C 
HETATM   35  C16 UNL     1      -9.899  46.688 -29.587  1.00  0.00     0.014 C 
BRANCH  34  36
HETATM   36  C13 UNL     1     -12.344  47.198 -28.649  1.00  0.00     0.054 C 
HETATM   37  C14 UNL     1     -12.734  47.996 -27.404  1.00  0.00     0.045 C 
HETATM   38  C15 UNL     1     -13.387  46.110 -28.914  1.00  0.00     0.045 C 
BRANCH  36  39
HETATM   39  O3  UNL     1     -12.328  48.104 -29.751  1.00  0.00    -0.390 OA
HETATM   40  H24 UNL     1     -12.264  47.587 -30.571  1.00  0.00     0.210 HD
ENDBRANCH  36  39
ENDBRANCH  34  36
ENDBRANCH  31  32
ENDBRANCH   8  31
TORSDOF 9
ENDMDL
MODEL 9
REMARK minimizedAffinity -8.39478397
REMARK  9 active torsions:
REMARK  status: ('A' for Active; 'I' for Inactive)
REMARK    1  A    between atoms: O1_2  and  C2_3 
REMARK    2  A    between atoms: C2_3  and  C3_4 
REMARK    3  A    between atoms: C3_4  and  N1_5 
REMARK    4  A    between atoms: C3_4  and  C19_30 
REMARK       I    between atoms: N1_5  and  C4_6 
REMARK       I    between atoms: C4_6  and  N2_8 
REMARK    5  A    between atoms: N2_8  and  C5_9 
REMARK    6  A    between atoms: N5_16  and  C9_17 
REMARK    7  A    between atoms: C9_17  and  C10_18 
REMARK    8  A    between atoms: C12_20  and  C13_21 
REMARK    9  A    between atoms: C13_21  and  O3_24 
ROOT
HETATM    1  C5  UNL     1      -3.481  49.019 -25.857  1.00  0.00     0.111 A 
HETATM    2  C6  UNL     1      -4.634  48.573 -25.222  1.00  0.00     0.080 A 
HETATM    3  C7  UNL     1      -5.616  48.058 -26.068  1.00  0.00     0.067 A 
HETATM    4  N3  UNL     1      -6.854  47.536 -25.821  1.00  0.00    -0.298 N 
HETATM    5  N4  UNL     1      -7.511  47.139 -26.920  1.00  0.00    -0.284 N 
ATOM      6  H4  UNL     1      -8.440  46.723 -26.978  1.00  0.00     0.188 HD
HETATM    7  C8  UNL     1      -6.673  47.412 -27.923  1.00  0.00     0.129 A 
HETATM    8  N5  UNL     1      -6.918  47.178 -29.234  1.00  0.00    -0.374 N 
HETATM    9  C17 UNL     1      -5.466  47.995 -27.445  1.00  0.00     0.052 A 
HETATM   10  C18 UNL     1      -4.280  48.475 -28.000  1.00  0.00     0.107 A 
HETATM   11  N6  UNL     1      -3.302  48.979 -27.199  1.00  0.00    -0.351 N 
ATOM     12  H6  UNL     1      -2.436  49.328 -27.610  1.00  0.00     0.166 HD
HETATM   13  H10 UNL     1      -7.310  47.424 -24.923  1.00  0.00     0.187 HD
HETATM   14  H11 UNL     1      -6.128  47.138 -29.866  1.00  0.00     0.161 HD
ENDROOT
BRANCH   1  15
HETATM   15  N2  UNL     1      -2.392  49.565 -25.178  1.00  0.00    -0.295 N 
HETATM   16  C4  UNL     1      -2.045  50.881 -25.042  1.00  0.00     0.322 C 
HETATM   17  N1  UNL     1      -0.882  51.013 -24.315  1.00  0.00    -0.332 N 
HETATM   18  O2  UNL     1      -2.662  51.847 -25.474  1.00  0.00    -0.247 OA
HETATM   19  H7  UNL     1      -0.216  50.265 -24.434  1.00  0.00     0.165 HD
HETATM   20  H8  UNL     1      -1.878  48.879 -24.648  1.00  0.00     0.172 HD
BRANCH  17  21
HETATM   21  C3  UNL     1      -0.261  52.324 -24.163  1.00  0.00     0.143 C 
BRANCH  21  22
HETATM   22  C2  UNL     1       0.919  52.513 -25.150  1.00  0.00     0.197 C 
BRANCH  22  23
HETATM   23  O1  UNL     1       0.714  53.666 -25.986  1.00  0.00    -0.394 OA
HETATM   24  C1  UNL     1       0.058  53.315 -27.198  1.00  0.00     0.201 C 
ENDBRANCH  22  23
ENDBRANCH  21  22
BRANCH  21  25
HETATM   25  C19 UNL     1       0.097  52.545 -22.700  1.00  0.00    -0.033 A 
HETATM   26  C20 UNL     1      -0.433  51.679 -21.728  1.00  0.00     0.009 A 
HETATM   27  C21 UNL     1      -0.120  51.836 -20.376  1.00  0.00     0.001 A 
HETATM   28  C22 UNL     1       0.737  52.858 -19.976  1.00  0.00     0.000 A 
HETATM   29  C23 UNL     1       1.286  53.716 -20.926  1.00  0.00     0.001 A 
HETATM   30  C24 UNL     1       0.973  53.557 -22.279  1.00  0.00     0.009 A 
ENDBRANCH  21  25
ENDBRANCH  17  21
ENDBRANCH   1  15
BRANCH   8  31
HETATM   31  C9  UNL     1      -8.044  46.338 -29.621  1.00  0.00     0.126 C 
BRANCH  31  32
HETATM   32  C10 UNL     1      -8.218  46.234 -31.136  1.00  0.00     0.004 C 
HETATM   33  C11 UNL     1      -7.431  47.182 -32.073  1.00  0.00     0.014 C 
HETATM   34  C12 UNL     1      -8.687  47.271 -32.987  1.00  0.00     0.020 C 
HETATM   35  C16 UNL     1      -9.522  46.771 -31.773  1.00  0.00     0.014 C 
BRANCH  34  36
HETATM   36  C13 UNL     1      -8.705  46.458 -34.293  1.00  0.00     0.054 C 
HETATM   37  C14 UNL     1      -8.143  47.302 -35.438  1.00  0.00     0.045 C 
HETATM   38  C15 UNL     1     -10.134  46.022 -34.626  1.00  0.00     0.045 C 
BRANCH  36  39
HETATM   39  O3  UNL     1      -7.883  45.298 -34.172  1.00  0.00    -0.390 OA
HETATM   40  H24 UNL     1      -8.327  44.669 -33.580  1.00  0.00     0.210 HD
ENDBRANCH  36  39
ENDBRANCH  34  36
ENDBRANCH  31  32
ENDBRANCH   8  31
TORSDOF 9
ENDMDL
