MODEL 1
REMARK minimizedAffinity -8.43912888
REMARK  7 active torsions:
REMARK  status: ('A' for Active; 'I' for Inactive)
REMARK    1  A    between atoms: O1_2  and  C2_3 
REMARK    2  A    between atoms: C2_3  and  C3_4 
REMARK    3  A    between atoms: C3_4  and  N1_5 
REMARK    4  A    between atoms: C3_4  and  C16_26 
REMARK       I    between atoms: N1_5  and  C4_6 
REMARK       I    between atoms: C4_6  and  N2_8 
REMARK    5  A    between atoms: N2_8  and  C5_9 
REMARK    6  A    between atoms: N5_16  and  C9_17 
REMARK    7  A    between atoms: C9_17  and  C10_18 
ROOT
HETATM    1  C5  UNL     1       0.986  53.169 -19.608  1.00  0.00     0.111 A 
HETATM    2  C6  UNL     1       1.439  54.137 -20.497  1.00  0.00     0.080 A 
HETATM    3  C7  UNL     1       1.177  53.876 -21.841  1.00  0.00     0.067 A 
HETATM    4  N3  UNL     1       1.457  54.573 -22.981  1.00  0.00    -0.298 N 
HETATM    5  N4  UNL     1       1.033  53.980 -24.107  1.00  0.00    -0.284 N 
ATOM      6  H4  UNL     1       1.129  54.315 -25.066  1.00  0.00     0.188 HD
HETATM    7  C8  UNL     1       0.456  52.852 -23.689  1.00  0.00     0.129 A 
HETATM    8  N5  UNL     1      -0.119  51.924 -24.488  1.00  0.00    -0.374 N 
HETATM    9  C14 UNL     1       0.518  52.732 -22.271  1.00  0.00     0.052 A 
HETATM   10  C15 UNL     1       0.109  51.808 -21.310  1.00  0.00     0.107 A 
HETATM   11  N6  UNL     1       0.346  52.039 -19.990  1.00  0.00    -0.351 N 
ATOM     12  H6  UNL     1       0.041  51.363 -19.291  1.00  0.00     0.166 HD
HETATM   13  H10 UNL     1       1.938  55.462 -23.060  1.00  0.00     0.187 HD
HETATM   14  H11 UNL     1      -0.767  51.259 -24.081  1.00  0.00     0.161 HD
ENDROOT
BRANCH   1  15
HETATM   15  N2  UNL     1       1.160  53.252 -18.226  1.00  0.00    -0.295 N 
HETATM   16  C4  UNL     1       0.908  52.301 -17.277  1.00  0.00     0.322 C 
HETATM   17  N1  UNL     1       1.173  52.782 -16.011  1.00  0.00    -0.332 N 
HETATM   18  O2  UNL     1       0.510  51.160 -17.475  1.00  0.00    -0.247 OA
HETATM   19  H7  UNL     1       0.979  53.766 -15.895  1.00  0.00     0.165 HD
HETATM   20  H8  UNL     1       1.637  54.096 -17.948  1.00  0.00     0.172 HD
BRANCH  17  21
HETATM   21  C3  UNL     1       0.878  51.955 -14.840  1.00  0.00     0.143 C 
BRANCH  21  22
HETATM   22  C2  UNL     1      -0.402  51.096 -15.019  1.00  0.00     0.197 C 
BRANCH  22  23
HETATM   23  O1  UNL     1      -1.196  51.044 -13.824  1.00  0.00    -0.394 OA
HETATM   24  C1  UNL     1      -1.106  52.242 -13.059  1.00  0.00     0.201 C 
ENDBRANCH  22  23
ENDBRANCH  21  22
BRANCH  21  25
HETATM   25  C16 UNL     1       2.090  51.090 -14.514  1.00  0.00    -0.033 A 
HETATM   26  C17 UNL     1       1.914  49.830 -13.921  1.00  0.00     0.009 A 
HETATM   27  C18 UNL     1       3.017  49.032 -13.610  1.00  0.00     0.001 A 
HETATM   28  C19 UNL     1       4.306  49.482 -13.886  1.00  0.00     0.000 A 
HETATM   29  C20 UNL     1       4.496  50.728 -14.477  1.00  0.00     0.001 A 
HETATM   30  C21 UNL     1       3.396  51.528 -14.789  1.00  0.00     0.009 A 
ENDBRANCH  21  25
ENDBRANCH  17  21
ENDBRANCH   1  15
BRANCH   8  31
HETATM   31  C9  UNL     1      -0.371  52.231 -25.889  1.00  0.00     0.126 C 
BRANCH  31  32
HETATM   32  C10 UNL     1       0.586  51.453 -26.782  1.00  0.00     0.003 C 
HETATM   33  C11 UNL     1       0.939  52.113 -28.141  1.00  0.00     0.006 C 
HETATM   34  C12 UNL     1       2.361  51.540 -27.967  1.00  0.00     0.001 C 
HETATM   35  C13 UNL     1       2.099  51.547 -26.447  1.00  0.00     0.006 C 
ENDBRANCH  31  32
ENDBRANCH   8  31
TORSDOF 7
ENDMDL
MODEL 2
REMARK minimizedAffinity -8.28719711
REMARK  7 active torsions:
REMARK  status: ('A' for Active; 'I' for Inactive)
REMARK    1  A    between atoms: O1_2  and  C2_3 
REMARK    2  A    between atoms: C2_3  and  C3_4 
REMARK    3  A    between atoms: C3_4  and  N1_5 
REMARK    4  A    between atoms: C3_4  and  C16_26 
REMARK       I    between atoms: N1_5  and  C4_6 
REMARK       I    between atoms: C4_6  and  N2_8 
REMARK    5  A    between atoms: N2_8  and  C5_9 
REMARK    6  A    between atoms: N5_16  and  C9_17 
REMARK    7  A    between atoms: C9_17  and  C10_18 
ROOT
HETATM    1  C5  UNL     1      -3.330  48.891 -24.419  1.00  0.00     0.111 A 
HETATM    2  C6  UNL     1      -4.686  48.584 -24.429  1.00  0.00     0.080 A 
HETATM    3  C7  UNL     1      -5.223  48.313 -25.688  1.00  0.00     0.067 A 
HETATM    4  N3  UNL     1      -6.483  47.980 -26.093  1.00  0.00    -0.298 N 
HETATM    5  N4  UNL     1      -6.605  47.795 -27.416  1.00  0.00    -0.284 N 
ATOM      6  H4  UNL     1      -7.444  47.541 -27.938  1.00  0.00     0.188 HD
HETATM    7  C8  UNL     1      -5.379  48.019 -27.894  1.00  0.00     0.129 A 
HETATM    8  N5  UNL     1      -5.024  47.948 -29.198  1.00  0.00    -0.374 N 
HETATM    9  C14 UNL     1      -4.468  48.351 -26.852  1.00  0.00     0.052 A 
HETATM   10  C15 UNL     1      -3.117  48.679 -26.749  1.00  0.00     0.107 A 
HETATM   11  N6  UNL     1      -2.564  48.942 -25.535  1.00  0.00    -0.351 N 
ATOM     12  H6  UNL     1      -1.574  49.178 -25.464  1.00  0.00     0.166 HD
HETATM   13  H10 UNL     1      -7.308  47.863 -25.516  1.00  0.00     0.187 HD
HETATM   14  H11 UNL     1      -4.042  47.854 -29.434  1.00  0.00     0.161 HD
ENDROOT
BRANCH   1  15
HETATM   15  N2  UNL     1      -2.619  49.195 -23.258  1.00  0.00    -0.295 N 
HETATM   16  C4  UNL     1      -2.774  50.263 -22.419  1.00  0.00     0.322 C 
HETATM   17  N1  UNL     1      -1.848  50.228 -21.397  1.00  0.00    -0.332 N 
HETATM   18  O2  UNL     1      -3.613  51.150 -22.515  1.00  0.00    -0.247 OA
HETATM   19  H7  UNL     1      -0.955  49.839 -21.663  1.00  0.00     0.165 HD
HETATM   20  H8  UNL     1      -1.998  48.450 -22.981  1.00  0.00     0.172 HD
BRANCH  17  21
HETATM   21  C3  UNL     1      -1.777  51.333 -20.440  1.00  0.00     0.143 C 
BRANCH  21  22
HETATM   22  C2  UNL     1      -1.670  50.848 -18.970  1.00  0.00     0.197 C 
BRANCH  22  23
HETATM   23  O1  UNL     1      -2.598  51.519 -18.105  1.00  0.00    -0.394 OA
HETATM   24  C1  UNL     1      -2.882  50.772 -16.927  1.00  0.00     0.201 C 
ENDBRANCH  22  23
ENDBRANCH  21  22
BRANCH  21  25
HETATM   25  C16 UNL     1      -0.617  52.249 -20.812  1.00  0.00    -0.033 A 
HETATM   26  C17 UNL     1       0.027  53.005 -19.820  1.00  0.00     0.009 A 
HETATM   27  C18 UNL     1       1.085  53.854 -20.149  1.00  0.00     0.001 A 
HETATM   28  C19 UNL     1       1.512  53.959 -21.471  1.00  0.00     0.000 A 
HETATM   29  C20 UNL     1       0.885  53.213 -22.466  1.00  0.00     0.001 A 
HETATM   30  C21 UNL     1      -0.173  52.364 -22.140  1.00  0.00     0.009 A 
ENDBRANCH  21  25
ENDBRANCH  17  21
ENDBRANCH   1  15
BRANCH   8  31
HETATM   31  C9  UNL     1      -5.937  47.359 -30.167  1.00  0.00     0.126 C 
BRANCH  31  32
HETATM   32  C10 UNL     1      -5.746  48.004 -31.534  1.00  0.00     0.003 C 
HETATM   33  C11 UNL     1      -4.739  47.304 -32.483  1.00  0.00     0.006 C 
HETATM   34  C12 UNL     1      -5.681  47.684 -33.644  1.00  0.00     0.001 C 
HETATM   35  C13 UNL     1      -6.826  47.710 -32.611  1.00  0.00     0.006 C 
ENDBRANCH  31  32
ENDBRANCH   8  31
TORSDOF 7
ENDMDL
MODEL 3
REMARK minimizedAffinity -8.28615284
REMARK  7 active torsions:
REMARK  status: ('A' for Active; 'I' for Inactive)
REMARK    1  A    between atoms: O1_2  and  C2_3 
REMARK    2  A    between atoms: C2_3  and  C3_4 
REMARK    3  A    between atoms: C3_4  and  N1_5 
REMARK    4  A    between atoms: C3_4  and  C16_26 
REMARK       I    between atoms: N1_5  and  C4_6 
REMARK       I    between atoms: C4_6  and  N2_8 
REMARK    5  A    between atoms: N2_8  and  C5_9 
REMARK    6  A    between atoms: N5_16  and  C9_17 
REMARK    7  A    between atoms: C9_17  and  C10_18 
ROOT
HETATM    1  C5  UNL     1       0.735  52.754 -18.918  1.00  0.00     0.111 A 
HETATM    2  C6  UNL     1      -0.163  51.795 -19.372  1.00  0.00     0.080 A 
HETATM    3  C7  UNL     1      -0.347  51.764 -20.754  1.00  0.00     0.067 A 
HETATM    4  N3  UNL     1      -1.128  50.982 -21.556  1.00  0.00    -0.298 N 
HETATM    5  N4  UNL     1      -1.028  51.263 -22.864  1.00  0.00    -0.284 N 
ATOM      6  H4  UNL     1      -1.512  50.811 -23.640  1.00  0.00     0.188 HD
HETATM    7  C8  UNL     1      -0.153  52.269 -22.919  1.00  0.00     0.129 A 
HETATM    8  N5  UNL     1       0.259  52.886 -24.050  1.00  0.00    -0.374 N 
HETATM    9  C14 UNL     1       0.308  52.627 -21.621  1.00  0.00     0.052 A 
HETATM   10  C15 UNL     1       1.183  53.566 -21.076  1.00  0.00     0.107 A 
HETATM   11  N6  UNL     1       1.389  53.617 -19.732  1.00  0.00    -0.351 N 
ATOM     12  H6  UNL     1       2.033  54.302 -19.338  1.00  0.00     0.166 HD
HETATM   13  H10 UNL     1      -1.753  50.236 -21.273  1.00  0.00     0.187 HD
HETATM   14  H11 UNL     1       1.114  53.430 -24.029  1.00  0.00     0.161 HD
ENDROOT
BRANCH   1  15
HETATM   15  N2  UNL     1       1.046  52.940 -17.570  1.00  0.00    -0.295 N 
HETATM   16  C4  UNL     1       1.120  52.004 -16.576  1.00  0.00     0.322 C 
HETATM   17  N1  UNL     1       1.418  52.592 -15.364  1.00  0.00    -0.332 N 
HETATM   18  O2  UNL     1       0.962  50.796 -16.698  1.00  0.00    -0.247 OA
HETATM   19  H7  UNL     1       1.027  53.516 -15.247  1.00  0.00     0.165 HD
HETATM   20  H8  UNL     1       1.355  53.879 -17.372  1.00  0.00     0.172 HD
BRANCH  17  21
HETATM   21  C3  UNL     1       1.449  51.780 -14.148  1.00  0.00     0.143 C 
BRANCH  21  22
HETATM   22  C2  UNL     1       2.788  51.907 -13.374  1.00  0.00     0.197 C 
BRANCH  22  23
HETATM   23  O1  UNL     1       3.270  50.639 -12.905  1.00  0.00    -0.394 OA
HETATM   24  C1  UNL     1       4.134  50.005 -13.842  1.00  0.00     0.201 C 
ENDBRANCH  22  23
ENDBRANCH  21  22
BRANCH  21  25
HETATM   25  C16 UNL     1       0.259  52.143 -13.267  1.00  0.00    -0.033 A 
HETATM   26  C17 UNL     1       0.444  52.952 -12.135  1.00  0.00     0.009 A 
HETATM   27  C18 UNL     1      -0.636  53.285 -11.315  1.00  0.00     0.001 A 
HETATM   28  C19 UNL     1      -1.913  52.814 -11.616  1.00  0.00     0.000 A 
HETATM   29  C20 UNL     1      -2.113  52.013 -12.737  1.00  0.00     0.001 A 
HETATM   30  C21 UNL     1      -1.034  51.678 -13.558  1.00  0.00     0.009 A 
ENDBRANCH  21  25
ENDBRANCH  17  21
ENDBRANCH   1  15
BRANCH   8  31
HETATM   31  C9  UNL     1      -0.055  52.305 -25.348  1.00  0.00     0.126 C 
BRANCH  31  32
HETATM   32  C10 UNL     1       1.102  52.516 -26.316  1.00  0.00     0.003 C 
HETATM   33  C11 UNL     1       2.237  51.460 -26.262  1.00  0.00     0.006 C 
HETATM   34  C12 UNL     1       2.356  51.617 -27.792  1.00  0.00     0.001 C 
HETATM   35  C13 UNL     1       0.883  52.071 -27.787  1.00  0.00     0.006 C 
ENDBRANCH  31  32
ENDBRANCH   8  31
TORSDOF 7
ENDMDL
MODEL 4
REMARK minimizedAffinity -8.28148937
REMARK  7 active torsions:
REMARK  status: ('A' for Active; 'I' for Inactive)
REMARK    1  A    between atoms: O1_2  and  C2_3 
REMARK    2  A    between atoms: C2_3  and  C3_4 
REMARK    3  A    between atoms: C3_4  and  N1_5 
REMARK    4  A    between atoms: C3_4  and  C16_26 
REMARK       I    between atoms: N1_5  and  C4_6 
REMARK       I    between atoms: C4_6  and  N2_8 
REMARK    5  A    between atoms: N2_8  and  C5_9 
REMARK    6  A    between atoms: N5_16  and  C9_17 
REMARK    7  A    between atoms: C9_17  and  C10_18 
ROOT
HETATM    1  C5  UNL     1      -0.224  51.630 -21.734  1.00  0.00     0.111 A 
HETATM    2  C6  UNL     1       0.585  52.636 -21.217  1.00  0.00     0.080 A 
HETATM    3  C7  UNL     1       0.712  52.639 -19.828  1.00  0.00     0.067 A 
HETATM    4  N3  UNL     1       1.404  53.448 -18.973  1.00  0.00    -0.298 N 
HETATM    5  N4  UNL     1       1.273  53.122 -17.679  1.00  0.00    -0.284 N 
ATOM      6  H4  UNL     1       1.696  53.580 -16.872  1.00  0.00     0.188 HD
HETATM    7  C8  UNL     1       0.462  52.062 -17.687  1.00  0.00     0.129 A 
HETATM    8  N5  UNL     1       0.045  51.388 -16.590  1.00  0.00    -0.374 N 
HETATM    9  C14 UNL     1       0.076  51.713 -19.012  1.00  0.00     0.052 A 
HETATM   10  C15 UNL     1      -0.726  50.746 -19.616  1.00  0.00     0.107 A 
HETATM   11  N6  UNL     1      -0.864  50.714 -20.969  1.00  0.00    -0.351 N 
ATOM     12  H6  UNL     1      -1.448  50.002 -21.407  1.00  0.00     0.166 HD
HETATM   13  H10 UNL     1       1.986  54.243 -19.210  1.00  0.00     0.187 HD
HETATM   14  H11 UNL     1      -0.325  50.451 -16.701  1.00  0.00     0.161 HD
ENDROOT
BRANCH   1  15
HETATM   15  N2  UNL     1      -0.475  51.470 -23.097  1.00  0.00    -0.295 N 
HETATM   16  C4  UNL     1      -1.565  51.875 -23.816  1.00  0.00     0.322 C 
HETATM   17  N1  UNL     1      -1.456  51.493 -25.137  1.00  0.00    -0.332 N 
HETATM   18  O2  UNL     1      -2.526  52.504 -23.392  1.00  0.00    -0.247 OA
HETATM   19  H7  UNL     1      -0.980  50.613 -25.274  1.00  0.00     0.165 HD
HETATM   20  H8  UNL     1       0.322  51.103 -23.594  1.00  0.00     0.172 HD
BRANCH  17  21
HETATM   21  C3  UNL     1      -2.562  51.744 -26.062  1.00  0.00     0.143 C 
BRANCH  21  22
HETATM   22  C2  UNL     1      -2.095  52.379 -27.398  1.00  0.00     0.197 C 
BRANCH  22  23
HETATM   23  O1  UNL     1      -1.491  53.668 -27.209  1.00  0.00    -0.394 OA
HETATM   24  C1  UNL     1      -0.200  53.755 -27.801  1.00  0.00     0.201 C 
ENDBRANCH  22  23
ENDBRANCH  21  22
BRANCH  21  25
HETATM   25  C16 UNL     1      -3.327  50.447 -26.297  1.00  0.00    -0.033 A 
HETATM   26  C17 UNL     1      -3.414  49.907 -27.590  1.00  0.00     0.009 A 
HETATM   27  C18 UNL     1      -4.120  48.725 -27.820  1.00  0.00     0.001 A 
HETATM   28  C19 UNL     1      -4.747  48.068 -26.763  1.00  0.00     0.000 A 
HETATM   29  C20 UNL     1      -4.667  48.589 -25.475  1.00  0.00     0.001 A 
HETATM   30  C21 UNL     1      -3.963  49.772 -25.242  1.00  0.00     0.009 A 
ENDBRANCH  21  25
ENDBRANCH  17  21
ENDBRANCH   1  15
BRANCH   8  31
HETATM   31  C9  UNL     1       0.677  51.639 -15.302  1.00  0.00     0.126 C 
BRANCH  31  32
HETATM   32  C10 UNL     1       1.970  50.842 -15.183  1.00  0.00     0.003 C 
HETATM   33  C11 UNL     1       3.262  51.670 -14.954  1.00  0.00     0.006 C 
HETATM   34  C12 UNL     1       3.749  50.523 -14.045  1.00  0.00     0.001 C 
HETATM   35  C13 UNL     1       2.265  50.174 -13.813  1.00  0.00     0.006 C 
ENDBRANCH  31  32
ENDBRANCH   8  31
TORSDOF 7
ENDMDL
MODEL 5
REMARK minimizedAffinity -8.25872707
REMARK  7 active torsions:
REMARK  status: ('A' for Active; 'I' for Inactive)
REMARK    1  A    between atoms: O1_2  and  C2_3 
REMARK    2  A    between atoms: C2_3  and  C3_4 
REMARK    3  A    between atoms: C3_4  and  N1_5 
REMARK    4  A    between atoms: C3_4  and  C16_26 
REMARK       I    between atoms: N1_5  and  C4_6 
REMARK       I    between atoms: C4_6  and  N2_8 
REMARK    5  A    between atoms: N2_8  and  C5_9 
REMARK    6  A    between atoms: N5_16  and  C9_17 
REMARK    7  A    between atoms: C9_17  and  C10_18 
ROOT
HETATM    1  C5  UNL     1      -0.062  52.437 -20.480  1.00  0.00     0.111 A 
HETATM    2  C6  UNL     1       0.902  53.165 -19.792  1.00  0.00     0.080 A 
HETATM    3  C7  UNL     1       1.035  52.843 -18.442  1.00  0.00     0.067 A 
HETATM    4  N3  UNL     1       1.853  53.327 -17.462  1.00  0.00    -0.298 N 
HETATM    5  N4  UNL     1       1.678  52.750 -16.263  1.00  0.00    -0.284 N 
ATOM      6  H4  UNL     1       2.174  52.947 -15.394  1.00  0.00     0.188 HD
HETATM    7  C8  UNL     1       0.705  51.858 -16.466  1.00  0.00     0.129 A 
HETATM    8  N5  UNL     1       0.190  51.036 -15.524  1.00  0.00    -0.374 N 
HETATM    9  C14 UNL     1       0.261  51.874 -17.819  1.00  0.00     0.052 A 
HETATM   10  C15 UNL     1      -0.691  51.201 -18.584  1.00  0.00     0.107 A 
HETATM   11  N6  UNL     1      -0.839  51.489 -19.905  1.00  0.00    -0.351 N 
ATOM     12  H6  UNL     1      -1.534  50.991 -20.462  1.00  0.00     0.166 HD
HETATM   13  H10 UNL     1       2.556  54.052 -17.545  1.00  0.00     0.187 HD
HETATM   14  H11 UNL     1      -0.329  50.216 -15.819  1.00  0.00     0.161 HD
ENDROOT
BRANCH   1  15
HETATM   15  N2  UNL     1      -0.343  52.620 -21.834  1.00  0.00    -0.295 N 
HETATM   16  C4  UNL     1      -0.670  51.680 -22.772  1.00  0.00     0.322 C 
HETATM   17  N1  UNL     1      -0.835  52.256 -24.014  1.00  0.00    -0.332 N 
HETATM   18  O2  UNL     1      -0.818  50.480 -22.580  1.00  0.00    -0.247 OA
HETATM   19  H7  UNL     1      -0.227  53.044 -24.187  1.00  0.00     0.165 HD
HETATM   20  H8  UNL     1      -0.410  53.595 -22.086  1.00  0.00     0.172 HD
BRANCH  17  21
HETATM   21  C3  UNL     1      -1.094  51.411 -25.181  1.00  0.00     0.143 C 
BRANCH  21  22
HETATM   22  C2  UNL     1      -2.437  51.748 -25.880  1.00  0.00     0.197 C 
BRANCH  22  23
HETATM   23  O1  UNL     1      -3.259  52.622 -25.090  1.00  0.00    -0.394 OA
HETATM   24  C1  UNL     1      -4.348  51.938 -24.478  1.00  0.00     0.201 C 
ENDBRANCH  22  23
ENDBRANCH  21  22
BRANCH  21  25
HETATM   25  C16 UNL     1       0.080  51.514 -26.149  1.00  0.00    -0.033 A 
HETATM   26  C17 UNL     1      -0.155  51.651 -27.526  1.00  0.00     0.009 A 
HETATM   27  C18 UNL     1       0.911  51.737 -28.423  1.00  0.00     0.001 A 
HETATM   28  C19 UNL     1       2.223  51.686 -27.957  1.00  0.00     0.000 A 
HETATM   29  C20 UNL     1       2.472  51.552 -26.593  1.00  0.00     0.001 A 
HETATM   30  C21 UNL     1       1.408  51.466 -25.694  1.00  0.00     0.009 A 
ENDBRANCH  21  25
ENDBRANCH  17  21
ENDBRANCH   1  15
BRANCH   8  31
HETATM   31  C9  UNL     1       0.860  50.895 -14.239  1.00  0.00     0.126 C 
BRANCH  31  32
HETATM   32  C10 UNL     1       2.089  50.007 -14.378  1.00  0.00     0.003 C 
HETATM   33  C11 UNL     1       3.455  50.681 -14.081  1.00  0.00     0.006 C 
HETATM   34  C12 UNL     1       3.900  49.341 -13.461  1.00  0.00     0.001 C 
HETATM   35  C13 UNL     1       2.408  49.052 -13.196  1.00  0.00     0.006 C 
ENDBRANCH  31  32
ENDBRANCH   8  31
TORSDOF 7
ENDMDL
MODEL 6
REMARK minimizedAffinity -8.16849327
REMARK  7 active torsions:
REMARK  status: ('A' for Active; 'I' for Inactive)
REMARK    1  A    between atoms: O1_2  and  C2_3 
REMARK    2  A    between atoms: C2_3  and  C3_4 
REMARK    3  A    between atoms: C3_4  and  N1_5 
REMARK    4  A    between atoms: C3_4  and  C16_26 
REMARK       I    between atoms: N1_5  and  C4_6 
REMARK       I    between atoms: C4_6  and  N2_8 
REMARK    5  A    between atoms: N2_8  and  C5_9 
REMARK    6  A    between atoms: N5_16  and  C9_17 
REMARK    7  A    between atoms: C9_17  and  C10_18 
ROOT
HETATM    1  C5  UNL     1      -0.165  52.359 -20.513  1.00  0.00     0.111 A 
HETATM    2  C6  UNL     1       0.757  53.068 -19.752  1.00  0.00     0.080 A 
HETATM    3  C7  UNL     1       0.876  52.652 -18.427  1.00  0.00     0.067 A 
HETATM    4  N3  UNL     1       1.656  53.091 -17.395  1.00  0.00    -0.298 N 
HETATM    5  N4  UNL     1       1.479  52.420 -16.247  1.00  0.00    -0.284 N 
ATOM      6  H4  UNL     1       1.951  52.571 -15.355  1.00  0.00     0.188 HD
HETATM    7  C8  UNL     1       0.547  51.511 -16.537  1.00  0.00     0.129 A 
HETATM    8  N5  UNL     1       0.045  50.601 -15.670  1.00  0.00    -0.374 N 
HETATM    9  C14 UNL     1       0.128  51.611 -17.894  1.00  0.00     0.052 A 
HETATM   10  C15 UNL     1      -0.782  50.962 -18.728  1.00  0.00     0.107 A 
HETATM   11  N6  UNL     1      -0.916  51.342 -20.027  1.00  0.00    -0.351 N 
ATOM     12  H6  UNL     1      -1.580  50.862 -20.634  1.00  0.00     0.166 HD
HETATM   13  H10 UNL     1       2.331  53.847 -17.409  1.00  0.00     0.187 HD
HETATM   14  H11 UNL     1      -0.435  49.787 -16.036  1.00  0.00     0.161 HD
ENDROOT
BRANCH   1  15
HETATM   15  N2  UNL     1      -0.426  52.632 -21.856  1.00  0.00    -0.295 N 
HETATM   16  C4  UNL     1      -0.801  51.765 -22.845  1.00  0.00     0.322 C 
HETATM   17  N1  UNL     1      -0.926  52.417 -24.054  1.00  0.00    -0.332 N 
HETATM   18  O2  UNL     1      -1.020  50.567 -22.720  1.00  0.00    -0.247 OA
HETATM   19  H7  UNL     1      -0.272  53.176 -24.182  1.00  0.00     0.165 HD
HETATM   20  H8  UNL     1      -0.436  53.621 -22.053  1.00  0.00     0.172 HD
BRANCH  17  21
HETATM   21  C3  UNL     1      -1.225  51.654 -25.266  1.00  0.00     0.143 C 
BRANCH  21  22
HETATM   22  C2  UNL     1      -2.494  52.165 -25.999  1.00  0.00     0.197 C 
BRANCH  22  23
HETATM   23  O1  UNL     1      -3.644  52.197 -25.139  1.00  0.00    -0.394 OA
HETATM   24  C1  UNL     1      -4.091  50.894 -24.780  1.00  0.00     0.201 C 
ENDBRANCH  22  23
ENDBRANCH  21  22
BRANCH  21  25
HETATM   25  C16 UNL     1      -0.008  51.665 -26.184  1.00  0.00    -0.033 A 
HETATM   26  C17 UNL     1      -0.177  51.779 -27.573  1.00  0.00     0.009 A 
HETATM   27  C18 UNL     1       0.929  51.782 -28.424  1.00  0.00     0.001 A 
HETATM   28  C19 UNL     1       2.216  51.671 -27.901  1.00  0.00     0.000 A 
HETATM   29  C20 UNL     1       2.399  51.560 -26.525  1.00  0.00     0.001 A 
HETATM   30  C21 UNL     1       1.295  51.557 -25.671  1.00  0.00     0.009 A 
ENDBRANCH  21  25
ENDBRANCH  17  21
ENDBRANCH   1  15
BRANCH   8  31
HETATM   31  C9  UNL     1       0.696  50.391 -14.384  1.00  0.00     0.126 C 
BRANCH  31  32
HETATM   32  C10 UNL     1      -0.215  50.839 -13.250  1.00  0.00     0.003 C 
HETATM   33  C11 UNL     1      -0.305  52.370 -13.012  1.00  0.00     0.006 C 
HETATM   34  C12 UNL     1      -1.793  52.156 -12.667  1.00  0.00     0.001 C 
HETATM   35  C13 UNL     1      -1.739  50.889 -13.544  1.00  0.00     0.006 C 
ENDBRANCH  31  32
ENDBRANCH   8  31
TORSDOF 7
ENDMDL
MODEL 7
REMARK minimizedAffinity -8.12314224
REMARK  7 active torsions:
REMARK  status: ('A' for Active; 'I' for Inactive)
REMARK    1  A    between atoms: O1_2  and  C2_3 
REMARK    2  A    between atoms: C2_3  and  C3_4 
REMARK    3  A    between atoms: C3_4  and  N1_5 
REMARK    4  A    between atoms: C3_4  and  C16_26 
REMARK       I    between atoms: N1_5  and  C4_6 
REMARK       I    between atoms: C4_6  and  N2_8 
REMARK    5  A    between atoms: N2_8  and  C5_9 
REMARK    6  A    between atoms: N5_16  and  C9_17 
REMARK    7  A    between atoms: C9_17  and  C10_18 
ROOT
HETATM    1  C5  UNL     1      -0.205  51.758 -20.369  1.00  0.00     0.111 A 
HETATM    2  C6  UNL     1      -0.517  50.527 -19.804  1.00  0.00     0.080 A 
HETATM    3  C7  UNL     1      -0.212  50.403 -18.449  1.00  0.00     0.067 A 
HETATM    4  N3  UNL     1      -0.368  49.373 -17.566  1.00  0.00    -0.298 N 
HETATM    5  N4  UNL     1       0.056  49.645 -16.322  1.00  0.00    -0.284 N 
ATOM      6  H4  UNL     1       0.036  49.034 -15.506  1.00  0.00     0.188 HD
HETATM    7  C8  UNL     1       0.508  50.899 -16.396  1.00  0.00     0.129 A 
HETATM    8  N5  UNL     1       1.040  51.599 -15.368  1.00  0.00    -0.374 N 
HETATM    9  C14 UNL     1       0.366  51.426 -17.710  1.00  0.00     0.052 A 
HETATM   10  C15 UNL     1       0.656  52.624 -18.363  1.00  0.00     0.107 A 
HETATM   11  N6  UNL     1       0.365  52.777 -19.682  1.00  0.00    -0.351 N 
ATOM     12  H6  UNL     1       0.574  53.656 -20.154  1.00  0.00     0.166 HD
HETATM   13  H10 UNL     1      -0.757  48.455 -17.749  1.00  0.00     0.187 HD
HETATM   14  H11 UNL     1       1.092  52.609 -15.437  1.00  0.00     0.161 HD
ENDROOT
BRANCH   1  15
HETATM   15  N2  UNL     1      -0.431  52.068 -21.710  1.00  0.00    -0.295 N 
HETATM   16  C4  UNL     1      -0.824  51.237 -22.722  1.00  0.00     0.322 C 
HETATM   17  N1  UNL     1      -0.900  51.917 -23.920  1.00  0.00    -0.332 N 
HETATM   18  O2  UNL     1      -1.095  50.047 -22.626  1.00  0.00    -0.247 OA
HETATM   19  H7  UNL     1      -0.214  52.651 -24.022  1.00  0.00     0.165 HD
HETATM   20  H8  UNL     1      -0.397  53.060 -21.888  1.00  0.00     0.172 HD
BRANCH  17  21
HETATM   21  C3  UNL     1      -1.210  51.191 -25.152  1.00  0.00     0.143 C 
BRANCH  21  22
HETATM   22  C2  UNL     1      -2.579  51.595 -25.760  1.00  0.00     0.197 C 
BRANCH  22  23
HETATM   23  O1  UNL     1      -3.334  52.446 -24.883  1.00  0.00    -0.394 OA
HETATM   24  C1  UNL     1      -4.532  51.829 -24.425  1.00  0.00     0.201 C 
ENDBRANCH  22  23
ENDBRANCH  21  22
BRANCH  21  25
HETATM   25  C16 UNL     1      -0.076  51.387 -26.153  1.00  0.00    -0.033 A 
HETATM   26  C17 UNL     1       1.257  51.386 -25.713  1.00  0.00     0.009 A 
HETATM   27  C18 UNL     1       2.303  51.574 -26.618  1.00  0.00     0.001 A 
HETATM   28  C19 UNL     1       2.032  51.765 -27.971  1.00  0.00     0.000 A 
HETATM   29  C20 UNL     1       0.714  51.766 -28.423  1.00  0.00     0.001 A 
HETATM   30  C21 UNL     1      -0.334  51.579 -27.520  1.00  0.00     0.009 A 
ENDBRANCH  21  25
ENDBRANCH  17  21
ENDBRANCH   1  15
BRANCH   8  31
HETATM   31  C9  UNL     1       0.919  51.094 -14.007  1.00  0.00     0.126 C 
BRANCH  31  32
HETATM   32  C10 UNL     1       2.294  50.760 -13.443  1.00  0.00     0.003 C 
HETATM   33  C11 UNL     1       2.769  49.295 -13.626  1.00  0.00     0.006 C 
HETATM   34  C12 UNL     1       4.190  49.858 -13.829  1.00  0.00     0.001 C 
HETATM   35  C13 UNL     1       3.526  51.169 -14.294  1.00  0.00     0.006 C 
ENDBRANCH  31  32
ENDBRANCH   8  31
TORSDOF 7
ENDMDL
MODEL 8
REMARK minimizedAffinity -8.01391315
REMARK  7 active torsions:
REMARK  status: ('A' for Active; 'I' for Inactive)
REMARK    1  A    between atoms: O1_2  and  C2_3 
REMARK    2  A    between atoms: C2_3  and  C3_4 
REMARK    3  A    between atoms: C3_4  and  N1_5 
REMARK    4  A    between atoms: C3_4  and  C16_26 
REMARK       I    between atoms: N1_5  and  C4_6 
REMARK       I    between atoms: C4_6  and  N2_8 
REMARK    5  A    between atoms: N2_8  and  C5_9 
REMARK    6  A    between atoms: N5_16  and  C9_17 
REMARK    7  A    between atoms: C9_17  and  C10_18 
ROOT
HETATM    1  C5  UNL     1       0.828  53.041 -19.390  1.00  0.00     0.111 A 
HETATM    2  C6  UNL     1       1.386  54.020 -20.203  1.00  0.00     0.080 A 
HETATM    3  C7  UNL     1       1.171  53.848 -21.570  1.00  0.00     0.067 A 
HETATM    4  N3  UNL     1       1.552  54.582 -22.657  1.00  0.00    -0.298 N 
HETATM    5  N4  UNL     1       1.142  54.081 -23.831  1.00  0.00    -0.284 N 
ATOM      6  H4  UNL     1       1.306  54.458 -24.765  1.00  0.00     0.188 HD
HETATM    7  C8  UNL     1       0.471  52.975 -23.501  1.00  0.00     0.129 A 
HETATM    8  N5  UNL     1      -0.126  52.133 -24.375  1.00  0.00    -0.374 N 
HETATM    9  C14 UNL     1       0.458  52.778 -22.091  1.00  0.00     0.052 A 
HETATM   10  C15 UNL     1      -0.057  51.835 -21.201  1.00  0.00     0.107 A 
HETATM   11  N6  UNL     1       0.132  51.980 -19.862  1.00  0.00    -0.351 N 
ATOM     12  H6  UNL     1      -0.251  51.291 -19.215  1.00  0.00     0.166 HD
HETATM   13  H10 UNL     1       2.094  55.439 -22.665  1.00  0.00     0.187 HD
HETATM   14  H11 UNL     1      -0.836  51.494 -24.034  1.00  0.00     0.161 HD
ENDROOT
BRANCH   1  15
HETATM   15  N2  UNL     1       0.941  53.040 -17.999  1.00  0.00    -0.295 N 
HETATM   16  C4  UNL     1       0.957  51.970 -17.147  1.00  0.00     0.322 C 
HETATM   17  N1  UNL     1       1.045  52.385 -15.834  1.00  0.00    -0.332 N 
HETATM   18  O2  UNL     1       0.913  50.788 -17.459  1.00  0.00    -0.247 OA
HETATM   19  H7  UNL     1       0.570  53.257 -15.645  1.00  0.00     0.165 HD
HETATM   20  H8  UNL     1       1.146  53.955 -17.628  1.00  0.00     0.172 HD
BRANCH  17  21
HETATM   21  C3  UNL     1       0.979  51.402 -14.753  1.00  0.00     0.143 C 
BRANCH  21  22
HETATM   22  C2  UNL     1       2.349  51.179 -14.059  1.00  0.00     0.197 C 
BRANCH  22  23
HETATM   23  O1  UNL     1       2.633  49.788 -13.847  1.00  0.00    -0.394 OA
HETATM   24  C1  UNL     1       3.107  49.524 -12.531  1.00  0.00     0.201 C 
ENDBRANCH  22  23
ENDBRANCH  21  22
BRANCH  21  25
HETATM   25  C16 UNL     1      -0.091  51.823 -13.752  1.00  0.00    -0.033 A 
HETATM   26  C17 UNL     1      -1.430  51.455 -13.958  1.00  0.00     0.009 A 
HETATM   27  C18 UNL     1      -2.421  51.843 -13.054  1.00  0.00     0.001 A 
HETATM   28  C19 UNL     1      -2.087  52.601 -11.934  1.00  0.00     0.000 A 
HETATM   29  C20 UNL     1      -0.763  52.971 -11.714  1.00  0.00     0.001 A 
HETATM   30  C21 UNL     1       0.229  52.586 -12.617  1.00  0.00     0.009 A 
ENDBRANCH  21  25
ENDBRANCH  17  21
ENDBRANCH   1  15
BRANCH   8  31
HETATM   31  C9  UNL     1      -0.290  52.529 -25.767  1.00  0.00     0.126 C 
BRANCH  31  32
HETATM   32  C10 UNL     1       0.540  51.632 -26.674  1.00  0.00     0.003 C 
HETATM   33  C11 UNL     1       0.755  52.141 -28.124  1.00  0.00     0.006 C 
HETATM   34  C12 UNL     1       2.172  51.535 -28.049  1.00  0.00     0.001 C 
HETATM   35  C13 UNL     1       2.084  51.703 -26.519  1.00  0.00     0.006 C 
ENDBRANCH  31  32
ENDBRANCH   8  31
TORSDOF 7
ENDMDL
MODEL 9
REMARK minimizedAffinity -8.01038361
REMARK  7 active torsions:
REMARK  status: ('A' for Active; 'I' for Inactive)
REMARK    1  A    between atoms: O1_2  and  C2_3 
REMARK    2  A    between atoms: C2_3  and  C3_4 
REMARK    3  A    between atoms: C3_4  and  N1_5 
REMARK    4  A    between atoms: C3_4  and  C16_26 
REMARK       I    between atoms: N1_5  and  C4_6 
REMARK       I    between atoms: C4_6  and  N2_8 
REMARK    5  A    between atoms: N2_8  and  C5_9 
REMARK    6  A    between atoms: N5_16  and  C9_17 
REMARK    7  A    between atoms: C9_17  and  C10_18 
ROOT
HETATM    1  C5  UNL     1      -3.748  49.273 -25.714  1.00  0.00     0.111 A 
HETATM    2  C6  UNL     1      -4.953  48.658 -25.390  1.00  0.00     0.080 A 
HETATM    3  C7  UNL     1      -5.615  48.053 -26.456  1.00  0.00     0.067 A 
HETATM    4  N3  UNL     1      -6.793  47.366 -26.532  1.00  0.00    -0.298 N 
HETATM    5  N4  UNL     1      -7.097  46.929 -27.763  1.00  0.00    -0.284 N 
ATOM      6  H4  UNL     1      -7.918  46.396 -28.054  1.00  0.00     0.188 HD
HETATM    7  C8  UNL     1      -6.082  47.347 -28.522  1.00  0.00     0.129 A 
HETATM    8  N5  UNL     1      -5.961  47.135 -29.852  1.00  0.00    -0.374 N 
HETATM    9  C14 UNL     1      -5.120  48.062 -27.753  1.00  0.00     0.052 A 
HETATM   10  C15 UNL     1      -3.910  48.712 -27.990  1.00  0.00     0.107 A 
HETATM   11  N6  UNL     1      -3.237  49.307 -26.968  1.00  0.00    -0.351 N 
ATOM     12  H6  UNL     1      -2.350  49.778 -27.145  1.00  0.00     0.166 HD
HETATM   13  H10 UNL     1      -7.438  47.161 -25.778  1.00  0.00     0.187 HD
HETATM   14  H11 UNL     1      -5.049  47.234 -30.284  1.00  0.00     0.161 HD
ENDROOT
BRANCH   1  15
HETATM   15  N2  UNL     1      -2.947  49.934 -24.784  1.00  0.00    -0.295 N 
HETATM   16  C4  UNL     1      -1.842  50.709 -25.008  1.00  0.00     0.322 C 
HETATM   17  N1  UNL     1      -1.302  51.156 -23.821  1.00  0.00    -0.332 N 
HETATM   18  O2  UNL     1      -1.366  51.002 -26.097  1.00  0.00    -0.247 OA
HETATM   19  H7  UNL     1      -1.393  50.504 -23.055  1.00  0.00     0.165 HD
HETATM   20  H8  UNL     1      -3.331  49.901 -23.852  1.00  0.00     0.172 HD
BRANCH  17  21
HETATM   21  C3  UNL     1      -0.056  51.923 -23.830  1.00  0.00     0.143 C 
BRANCH  21  22
HETATM   22  C2  UNL     1      -0.101  53.130 -24.804  1.00  0.00     0.197 C 
BRANCH  22  23
HETATM   23  O1  UNL     1       1.085  53.227 -25.608  1.00  0.00    -0.394 OA
HETATM   24  C1  UNL     1       1.694  51.961 -25.832  1.00  0.00     0.201 C 
ENDBRANCH  22  23
ENDBRANCH  21  22
BRANCH  21  25
HETATM   25  C16 UNL     1       0.276  52.364 -22.409  1.00  0.00    -0.033 A 
HETATM   26  C17 UNL     1      -0.154  51.596 -21.316  1.00  0.00     0.009 A 
HETATM   27  C18 UNL     1       0.135  51.995 -20.010  1.00  0.00     0.001 A 
HETATM   28  C19 UNL     1       0.857  53.164 -19.779  1.00  0.00     0.000 A 
HETATM   29  C20 UNL     1       1.293  53.935 -20.853  1.00  0.00     0.001 A 
HETATM   30  C21 UNL     1       1.005  53.540 -22.160  1.00  0.00     0.009 A 
ENDBRANCH  21  25
ENDBRANCH  17  21
ENDBRANCH   1  15
BRANCH   8  31
HETATM   31  C9  UNL     1      -6.844  46.187 -30.518  1.00  0.00     0.126 C 
BRANCH  31  32
HETATM   32  C10 UNL     1      -6.181  45.639 -31.775  1.00  0.00     0.003 C 
HETATM   33  C11 UNL     1      -4.650  45.860 -31.890  1.00  0.00     0.006 C 
HETATM   34  C12 UNL     1      -4.573  44.472 -32.559  1.00  0.00     0.001 C 
HETATM   35  C13 UNL     1      -5.871  44.118 -31.806  1.00  0.00     0.006 C 
ENDBRANCH  31  32
ENDBRANCH   8  31
TORSDOF 7
ENDMDL
