MODEL 1
REMARK minimizedAffinity -8.71366215
REMARK CNNscore 0.56009841
REMARK CNNaffinity 6.35778379
REMARK  7 active torsions:
REMARK  status: ('A' for Active; 'I' for Inactive)
REMARK       I    between atoms: C1_2  and  N1_3 
REMARK    1  A    between atoms: C1_2  and  C8_12 
REMARK    2  A    between atoms: N1_3  and  C2_4 
REMARK    3  A    between atoms: C5_7  and  O2_8 
REMARK    4  A    between atoms: N2_15  and  C11_16 
REMARK    5  A    between atoms: C11_16  and  C12_17 
REMARK       I    between atoms: C12_17  and  N3_19 
REMARK    6  A    between atoms: N4_22  and  C15_23 
REMARK    7  A    between atoms: C18_26  and  C19_27 
ROOT
HETATM    1  C12 UNL     1      -6.810  47.749 -25.834  1.00  0.00     0.248 C 
HETATM    2  O3  UNL     1      -6.144  47.838 -26.869  1.00  0.00    -0.271 OA
HETATM    3  N3  UNL     1      -8.188  47.502 -25.881  1.00  0.00    -0.348 N 
HETATM    4  C13 UNL     1      -8.830  47.583 -27.200  1.00  0.00     0.140 C 
HETATM    5  C14 UNL     1     -10.159  46.813 -27.277  1.00  0.00     0.115 C 
HETATM    6  N4  UNL     1     -11.052  47.202 -26.165  1.00  0.00    -0.280 NA
HETATM    7  C25 UNL     1     -10.420  46.993 -24.842  1.00  0.00     0.115 C 
HETATM    8  C26 UNL     1      -9.087  47.761 -24.749  1.00  0.00     0.140 C 
ENDROOT
BRANCH   1   9
HETATM    9  C11 UNL     1      -6.183  47.866 -24.426  1.00  0.00     0.374 C 
BRANCH   9  10
HETATM   10  N2  UNL     1      -5.396  49.109 -24.246  1.00  0.00     0.098 N 
HETATM   11  C10 UNL     1      -4.417  49.312 -25.324  1.00  0.00     0.274 C 
HETATM   12  C9  UNL     1      -3.170  48.552 -24.900  1.00  0.00     0.046 C 
HETATM   13  C8  UNL     1      -3.233  48.519 -23.374  1.00  0.00     0.108 C 
HETATM   14  C27 UNL     1      -4.606  49.074 -23.006  1.00  0.00     0.287 C 
BRANCH  13  15
HETATM   15  C1  UNL     1      -2.102  49.286 -22.699  1.00  0.00     0.228 C 
HETATM   16  O1  UNL     1      -1.427  48.733 -21.834  1.00  0.00    -0.273 OA
HETATM   17  N1  UNL     1      -1.946  50.587 -23.146  1.00  0.00    -0.327 N 
HETATM   18  H1  UNL     1      -2.583  50.898 -23.871  1.00  0.00     0.169 HD
BRANCH  17  19
HETATM   19  C2  UNL     1      -1.013  51.547 -22.700  1.00  0.00     0.036 A 
HETATM   20  C3  UNL     1      -0.125  52.225 -23.541  1.00  0.00     0.032 A 
HETATM   21  C4  UNL     1       0.778  53.161 -23.021  1.00  0.00     0.040 A 
HETATM   22  C5  UNL     1       0.794  53.419 -21.657  1.00  0.00     0.087 A 
HETATM   23  C6  UNL     1      -0.086  52.749 -20.807  1.00  0.00     0.069 A 
HETATM   24 CL1  UNL     1      -0.070  53.061 -19.111  1.00  0.00    -0.081 Cl
HETATM   25  C7  UNL     1      -0.984  51.815 -21.326  1.00  0.00     0.056 A 
BRANCH  22  26
HETATM   26  O2  UNL     1       1.693  54.340 -21.196  1.00  0.00    -0.359 OA
HETATM   27  H4  UNL     1       1.582  54.394 -20.229  1.00  0.00     0.217 HD
ENDBRANCH  22  26
ENDBRANCH  17  19
ENDBRANCH  13  15
ENDBRANCH   9  10
ENDBRANCH   1   9
BRANCH   6  28
HETATM   28  C15 UNL     1     -12.394  46.792 -26.222  1.00  0.00     0.010 A 
HETATM   29  C16 UNL     1     -13.206  46.910 -25.086  1.00  0.00     0.024 A 
HETATM   30  C17 UNL     1     -14.555  46.527 -25.093  1.00  0.00     0.017 A 
HETATM   31  C18 UNL     1     -15.166  46.016 -26.248  1.00  0.00     0.008 A 
HETATM   32  C23 UNL     1     -14.358  45.913 -27.393  1.00  0.00     0.017 A 
HETATM   33  C24 UNL     1     -13.006  46.294 -27.380  1.00  0.00     0.024 A 
BRANCH  31  34
HETATM   34  C19 UNL     1     -16.589  45.623 -26.263  1.00  0.00     0.115 A 
HETATM   35  N5  UNL     1     -17.083  45.077 -27.396  1.00  0.00    -0.352 N 
HETATM   36  C20 UNL     1     -18.388  44.744 -27.386  1.00  0.00     0.091 A 
ATOM     37  H5  UNL     1     -16.498  44.924 -28.217  1.00  0.00     0.166 HD
HETATM   38  C21 UNL     1     -19.211  44.927 -26.301  1.00  0.00     0.034 A 
HETATM   39  C22 UNL     1     -18.614  45.483 -25.195  1.00  0.00     0.091 A 
HETATM   40  N6  UNL     1     -17.317  45.840 -25.148  1.00  0.00    -0.352 N 
ATOM     41  H6  UNL     1     -16.905  46.253 -24.312  1.00  0.00     0.166 HD
ENDBRANCH  31  34
ENDBRANCH   6  28
TORSDOF 7
ENDMDL
MODEL 2
REMARK minimizedAffinity -8.68629646
REMARK CNNscore 0.420409739
REMARK CNNaffinity 6.5725131
REMARK  7 active torsions:
REMARK  status: ('A' for Active; 'I' for Inactive)
REMARK       I    between atoms: C1_2  and  N1_3 
REMARK    1  A    between atoms: C1_2  and  C8_12 
REMARK    2  A    between atoms: N1_3  and  C2_4 
REMARK    3  A    between atoms: C5_7  and  O2_8 
REMARK    4  A    between atoms: N2_15  and  C11_16 
REMARK    5  A    between atoms: C11_16  and  C12_17 
REMARK       I    between atoms: C12_17  and  N3_19 
REMARK    6  A    between atoms: N4_22  and  C15_23 
REMARK    7  A    between atoms: C18_26  and  C19_27 
ROOT
HETATM    1  C12 UNL     1      -4.189  48.974 -28.161  1.00  0.00     0.248 C 
HETATM    2  O3  UNL     1      -3.426  49.886 -28.491  1.00  0.00    -0.271 OA
HETATM    3  N3  UNL     1      -5.002  48.335 -29.105  1.00  0.00    -0.348 N 
HETATM    4  C13 UNL     1      -5.072  48.945 -30.439  1.00  0.00     0.140 C 
HETATM    5  C14 UNL     1      -5.517  47.962 -31.535  1.00  0.00     0.115 C 
HETATM    6  N4  UNL     1      -6.763  47.270 -31.140  1.00  0.00    -0.280 NA
HETATM    7  C25 UNL     1      -6.622  46.561 -29.848  1.00  0.00     0.115 C 
HETATM    8  C26 UNL     1      -6.178  47.534 -28.739  1.00  0.00     0.140 C 
ENDROOT
BRANCH   1   9
HETATM    9  C11 UNL     1      -4.282  48.448 -26.710  1.00  0.00     0.374 C 
BRANCH   9  10
HETATM   10  N2  UNL     1      -3.071  48.749 -25.909  1.00  0.00     0.098 N 
HETATM   11  C10 UNL     1      -3.274  48.503 -24.474  1.00  0.00     0.274 C 
HETATM   12  C9  UNL     1      -3.870  49.785 -23.913  1.00  0.00     0.046 C 
HETATM   13  C8  UNL     1      -3.375  50.887 -24.847  1.00  0.00     0.108 C 
HETATM   14  C27 UNL     1      -2.695  50.168 -26.009  1.00  0.00     0.287 C 
BRANCH  13  15
HETATM   15  C1  UNL     1      -2.450  51.891 -24.171  1.00  0.00     0.228 C 
HETATM   16  O1  UNL     1      -2.351  53.027 -24.628  1.00  0.00    -0.273 OA
HETATM   17  N1  UNL     1      -1.781  51.397 -23.065  1.00  0.00    -0.327 N 
HETATM   18  H1  UNL     1      -1.971  50.434 -22.809  1.00  0.00     0.169 HD
BRANCH  17  19
HETATM   19  C2  UNL     1      -0.845  52.070 -22.250  1.00  0.00     0.036 A 
HETATM   20  C3  UNL     1       0.146  52.926 -22.739  1.00  0.00     0.032 A 
HETATM   21  C4  UNL     1       1.044  53.553 -21.864  1.00  0.00     0.040 A 
HETATM   22  C5  UNL     1       0.949  53.323 -20.499  1.00  0.00     0.087 A 
HETATM   23  C6  UNL     1      -0.035  52.471 -19.998  1.00  0.00     0.069 A 
HETATM   24 CL1  UNL     1      -0.156  52.177 -18.303  1.00  0.00    -0.081 Cl
HETATM   25  C7  UNL     1      -0.927  51.845 -20.869  1.00  0.00     0.056 A 
BRANCH  22  26
HETATM   26  O2  UNL     1       1.847  53.957 -19.685  1.00  0.00    -0.359 OA
HETATM   27  H4  UNL     1       1.653  53.683 -18.770  1.00  0.00     0.217 HD
ENDBRANCH  22  26
ENDBRANCH  17  19
ENDBRANCH  13  15
ENDBRANCH   9  10
ENDBRANCH   1   9
BRANCH   6  28
HETATM   28  C15 UNL     1      -7.445  46.531 -32.120  1.00  0.00     0.010 A 
HETATM   29  C16 UNL     1      -8.388  47.169 -32.939  1.00  0.00     0.024 A 
HETATM   30  C17 UNL     1      -9.088  46.481 -33.940  1.00  0.00     0.017 A 
HETATM   31  C18 UNL     1      -8.868  45.116 -34.185  1.00  0.00     0.008 A 
HETATM   32  C23 UNL     1      -7.911  44.481 -33.376  1.00  0.00     0.017 A 
HETATM   33  C24 UNL     1      -7.215  45.173 -32.371  1.00  0.00     0.024 A 
BRANCH  31  34
HETATM   34  C19 UNL     1      -9.594  44.392 -35.247  1.00  0.00     0.115 A 
HETATM   35  N5  UNL     1     -10.764  44.909 -35.680  1.00  0.00    -0.352 N 
HETATM   36  C20 UNL     1     -11.412  44.217 -36.637  1.00  0.00     0.091 A 
ATOM     37  H5  UNL     1     -11.138  45.779 -35.302  1.00  0.00     0.166 HD
HETATM   38  C21 UNL     1     -10.942  43.046 -37.177  1.00  0.00     0.034 A 
HETATM   39  C22 UNL     1      -9.740  42.604 -36.676  1.00  0.00     0.091 A 
HETATM   40  N6  UNL     1      -9.051  43.250 -35.717  1.00  0.00    -0.352 N 
ATOM     41  H6  UNL     1      -8.163  42.894 -35.364  1.00  0.00     0.166 HD
ENDBRANCH  31  34
ENDBRANCH   6  28
TORSDOF 7
ENDMDL
MODEL 3
REMARK minimizedAffinity -7.83871651
REMARK CNNscore 0.405230552
REMARK CNNaffinity 5.78446817
REMARK  7 active torsions:
REMARK  status: ('A' for Active; 'I' for Inactive)
REMARK       I    between atoms: C1_2  and  N1_3 
REMARK    1  A    between atoms: C1_2  and  C8_12 
REMARK    2  A    between atoms: N1_3  and  C2_4 
REMARK    3  A    between atoms: C5_7  and  O2_8 
REMARK    4  A    between atoms: N2_15  and  C11_16 
REMARK    5  A    between atoms: C11_16  and  C12_17 
REMARK       I    between atoms: C12_17  and  N3_19 
REMARK    6  A    between atoms: N4_22  and  C15_23 
REMARK    7  A    between atoms: C18_26  and  C19_27 
ROOT
HETATM    1  C12 UNL     1      -7.585  46.970 -26.084  1.00  0.00     0.248 C 
HETATM    2  O3  UNL     1      -7.551  46.954 -27.318  1.00  0.00    -0.271 OA
HETATM    3  N3  UNL     1      -6.597  47.628 -25.342  1.00  0.00    -0.348 N 
HETATM    4  C13 UNL     1      -5.416  48.094 -26.080  1.00  0.00     0.140 C 
HETATM    5  C14 UNL     1      -4.657  49.225 -25.365  1.00  0.00     0.115 C 
HETATM    6  N4  UNL     1      -4.365  48.852 -23.964  1.00  0.00    -0.280 NA
HETATM    7  C25 UNL     1      -5.592  48.506 -23.210  1.00  0.00     0.115 C 
HETATM    8  C26 UNL     1      -6.362  47.372 -23.915  1.00  0.00     0.140 C 
ENDROOT
BRANCH   1   9
HETATM    9  C11 UNL     1      -8.722  46.305 -25.272  1.00  0.00     0.374 C 
BRANCH   9  10
HETATM   10  N2  UNL     1      -9.881  47.203 -25.061  1.00  0.00     0.098 N 
HETATM   11  C10 UNL     1     -10.573  46.936 -23.792  1.00  0.00     0.274 C 
HETATM   12  C9  UNL     1     -11.578  45.834 -24.092  1.00  0.00     0.046 C 
HETATM   13  C8  UNL     1     -11.890  45.985 -25.579  1.00  0.00     0.108 C 
HETATM   14  C27 UNL     1     -10.902  47.023 -26.105  1.00  0.00     0.287 C 
BRANCH  13  15
HETATM   15  C1  UNL     1     -13.337  46.371 -25.864  1.00  0.00     0.228 C 
HETATM   16  O1  UNL     1     -13.583  47.452 -26.392  1.00  0.00    -0.273 OA
HETATM   17  N1  UNL     1     -14.268  45.423 -25.477  1.00  0.00    -0.327 N 
HETATM   18  H1  UNL     1     -13.906  44.575 -25.055  1.00  0.00     0.169 HD
BRANCH  17  19
HETATM   19  C2  UNL     1     -15.673  45.500 -25.584  1.00  0.00     0.036 A 
HETATM   20  C3  UNL     1     -16.391  45.159 -26.735  1.00  0.00     0.032 A 
HETATM   21  C4  UNL     1     -17.787  45.268 -26.764  1.00  0.00     0.040 A 
HETATM   22  C5  UNL     1     -18.467  45.719 -25.641  1.00  0.00     0.087 A 
HETATM   23  C6  UNL     1     -17.763  46.063 -24.487  1.00  0.00     0.069 A 
HETATM   24 CL1  UNL     1     -18.600  46.628 -23.089  1.00  0.00    -0.081 Cl
HETATM   25  C7  UNL     1     -16.372  45.956 -24.459  1.00  0.00     0.056 A 
BRANCH  22  26
HETATM   26  O2  UNL     1     -19.829  45.809 -25.718  1.00  0.00    -0.359 OA
HETATM   27  H4  UNL     1     -20.146  46.149 -24.861  1.00  0.00     0.217 HD
ENDBRANCH  22  26
ENDBRANCH  17  19
ENDBRANCH  13  15
ENDBRANCH   9  10
ENDBRANCH   1   9
BRANCH   6  28
HETATM   28  C15 UNL     1      -3.465  49.653 -23.244  1.00  0.00     0.010 A 
HETATM   29  C16 UNL     1      -2.214  49.135 -22.879  1.00  0.00     0.024 A 
HETATM   30  C17 UNL     1      -1.273  49.896 -22.170  1.00  0.00     0.017 A 
HETATM   31  C18 UNL     1      -1.532  51.225 -21.802  1.00  0.00     0.008 A 
HETATM   32  C23 UNL     1      -2.778  51.750 -22.182  1.00  0.00     0.017 A 
HETATM   33  C24 UNL     1      -3.720  50.983 -22.888  1.00  0.00     0.024 A 
BRANCH  31  34
HETATM   34  C19 UNL     1      -0.539  52.033 -21.066  1.00  0.00     0.115 A 
HETATM   35  N5  UNL     1      -0.771  52.286 -19.760  1.00  0.00    -0.352 N 
HETATM   36  C20 UNL     1       0.143  53.040 -19.119  1.00  0.00     0.091 A 
ATOM     37  H5  UNL     1      -1.596  51.923 -19.282  1.00  0.00     0.166 HD
HETATM   38  C21 UNL     1       1.270  53.542 -19.722  1.00  0.00     0.034 A 
HETATM   39  C22 UNL     1       1.420  53.226 -21.052  1.00  0.00     0.091 A 
HETATM   40  N6  UNL     1       0.539  52.481 -21.744  1.00  0.00    -0.352 N 
ATOM     41  H6  UNL     1       0.678  52.266 -22.731  1.00  0.00     0.166 HD
ENDBRANCH  31  34
ENDBRANCH   6  28
TORSDOF 7
ENDMDL
MODEL 4
REMARK minimizedAffinity -7.83678818
REMARK CNNscore 0.404226363
REMARK CNNaffinity 6.65633774
REMARK  7 active torsions:
REMARK  status: ('A' for Active; 'I' for Inactive)
REMARK       I    between atoms: C1_2  and  N1_3 
REMARK    1  A    between atoms: C1_2  and  C8_12 
REMARK    2  A    between atoms: N1_3  and  C2_4 
REMARK    3  A    between atoms: C5_7  and  O2_8 
REMARK    4  A    between atoms: N2_15  and  C11_16 
REMARK    5  A    between atoms: C11_16  and  C12_17 
REMARK       I    between atoms: C12_17  and  N3_19 
REMARK    6  A    between atoms: N4_22  and  C15_23 
REMARK    7  A    between atoms: C18_26  and  C19_27 
ROOT
HETATM    1  C12 UNL     1      -5.652  47.408 -28.801  1.00  0.00     0.248 C 
HETATM    2  O3  UNL     1      -6.551  46.649 -28.430  1.00  0.00    -0.271 OA
HETATM    3  N3  UNL     1      -4.904  48.148 -27.877  1.00  0.00    -0.348 N 
HETATM    4  C13 UNL     1      -5.384  48.151 -26.489  1.00  0.00     0.140 C 
HETATM    5  C14 UNL     1      -4.291  48.506 -25.467  1.00  0.00     0.115 C 
HETATM    6  N4  UNL     1      -3.603  49.758 -25.854  1.00  0.00    -0.280 NA
HETATM    7  C25 UNL     1      -3.022  49.679 -27.214  1.00  0.00     0.115 C 
HETATM    8  C26 UNL     1      -4.108  49.325 -28.249  1.00  0.00     0.140 C 
ENDROOT
BRANCH   1   9
HETATM    9  C11 UNL     1      -5.263  47.577 -30.288  1.00  0.00     0.374 C 
BRANCH   9  10
HETATM   10  N2  UNL     1      -5.611  46.395 -31.112  1.00  0.00     0.098 N 
HETATM   11  C10 UNL     1      -5.523  46.672 -32.554  1.00  0.00     0.274 C 
HETATM   12  C9  UNL     1      -6.873  47.251 -32.948  1.00  0.00     0.046 C 
HETATM   13  C8  UNL     1      -7.856  46.676 -31.931  1.00  0.00     0.108 C 
HETATM   14  C27 UNL     1      -7.000  45.967 -30.885  1.00  0.00     0.287 C 
BRANCH  13  15
HETATM   15  C1  UNL     1      -8.899  45.749 -32.545  1.00  0.00     0.228 C 
HETATM   16  O1  UNL     1      -9.869  46.230 -33.126  1.00  0.00    -0.273 OA
HETATM   17  N1  UNL     1      -8.638  44.401 -32.374  1.00  0.00    -0.327 N 
HETATM   18  H1  UNL     1      -7.790  44.162 -31.872  1.00  0.00     0.169 HD
BRANCH  17  19
HETATM   19  C2  UNL     1      -9.422  43.309 -32.802  1.00  0.00     0.036 A 
HETATM   20  C3  UNL     1      -9.672  43.002 -34.143  1.00  0.00     0.032 A 
HETATM   21  C4  UNL     1     -10.468  41.901 -34.488  1.00  0.00     0.040 A 
HETATM   22  C5  UNL     1     -11.014  41.107 -33.489  1.00  0.00     0.087 A 
HETATM   23  C6  UNL     1     -10.773  41.402 -32.148  1.00  0.00     0.069 A 
HETATM   24 CL1  UNL     1     -11.452  40.422 -30.902  1.00  0.00    -0.081 Cl
HETATM   25  C7  UNL     1      -9.982  42.500 -31.805  1.00  0.00     0.056 A 
BRANCH  22  26
HETATM   26  O2  UNL     1     -11.784  40.044 -33.875  1.00  0.00    -0.359 OA
HETATM   27  H4  UNL     1     -12.096  39.603 -33.063  1.00  0.00     0.217 HD
ENDBRANCH  22  26
ENDBRANCH  17  19
ENDBRANCH  13  15
ENDBRANCH   9  10
ENDBRANCH   1   9
BRANCH   6  28
HETATM   28  C15 UNL     1      -2.756  50.362 -24.911  1.00  0.00     0.010 A 
HETATM   29  C16 UNL     1      -2.166  51.600 -25.201  1.00  0.00     0.024 A 
HETATM   30  C17 UNL     1      -1.322  52.253 -24.290  1.00  0.00     0.017 A 
HETATM   31  C18 UNL     1      -1.038  51.704 -23.030  1.00  0.00     0.008 A 
HETATM   32  C23 UNL     1      -1.644  50.472 -22.732  1.00  0.00     0.017 A 
HETATM   33  C24 UNL     1      -2.484  49.819 -23.649  1.00  0.00     0.024 A 
BRANCH  31  34
HETATM   34  C19 UNL     1      -0.161  52.394 -22.064  1.00  0.00     0.115 A 
HETATM   35  N5  UNL     1      -0.292  52.082 -20.756  1.00  0.00    -0.352 N 
HETATM   36  C20 UNL     1       0.509  52.740 -19.896  1.00  0.00     0.091 A 
ATOM     37  H5  UNL     1      -0.964  51.385 -20.436  1.00  0.00     0.166 HD
HETATM   38  C21 UNL     1       1.430  53.681 -20.284  1.00  0.00     0.034 A 
HETATM   39  C22 UNL     1       1.493  53.924 -21.636  1.00  0.00     0.091 A 
HETATM   40  N6  UNL     1       0.715  53.302 -22.541  1.00  0.00    -0.352 N 
ATOM     41  H6  UNL     1       0.784  53.506 -23.538  1.00  0.00     0.166 HD
ENDBRANCH  31  34
ENDBRANCH   6  28
TORSDOF 7
ENDMDL
MODEL 5
REMARK minimizedAffinity -8.04443836
REMARK CNNscore 0.382677168
REMARK CNNaffinity 5.77003098
REMARK  7 active torsions:
REMARK  status: ('A' for Active; 'I' for Inactive)
REMARK       I    between atoms: C1_2  and  N1_3 
REMARK    1  A    between atoms: C1_2  and  C8_12 
REMARK    2  A    between atoms: N1_3  and  C2_4 
REMARK    3  A    between atoms: C5_7  and  O2_8 
REMARK    4  A    between atoms: N2_15  and  C11_16 
REMARK    5  A    between atoms: C11_16  and  C12_17 
REMARK       I    between atoms: C12_17  and  N3_19 
REMARK    6  A    between atoms: N4_22  and  C15_23 
REMARK    7  A    between atoms: C18_26  and  C19_27 
ROOT
HETATM    1  C12 UNL     1      -8.293  46.025 -26.438  1.00  0.00     0.248 C 
HETATM    2  O3  UNL     1      -7.980  46.154 -25.252  1.00  0.00    -0.271 OA
HETATM    3  N3  UNL     1      -9.578  45.607 -26.805  1.00  0.00    -0.348 N 
HETATM    4  C13 UNL     1     -10.447  45.117 -25.727  1.00  0.00     0.140 C 
HETATM    5  C14 UNL     1     -11.944  45.180 -26.075  1.00  0.00     0.115 C 
HETATM    6  N4  UNL     1     -12.203  44.532 -27.379  1.00  0.00    -0.280 NA
HETATM    7  C25 UNL     1     -11.402  45.132 -28.470  1.00  0.00     0.115 C 
HETATM    8  C26 UNL     1      -9.899  45.074 -28.136  1.00  0.00     0.140 C 
ENDROOT
BRANCH   1   9
HETATM    9  C11 UNL     1      -7.320  46.343 -27.597  1.00  0.00     0.374 C 
BRANCH   9  10
HETATM   10  N2  UNL     1      -7.021  47.789 -27.719  1.00  0.00     0.098 N 
HETATM   11  C10 UNL     1      -6.755  48.191 -29.108  1.00  0.00     0.274 C 
HETATM   12  C9  UNL     1      -5.271  47.944 -29.334  1.00  0.00     0.046 C 
HETATM   13  C8  UNL     1      -4.642  48.057 -27.948  1.00  0.00     0.108 C 
HETATM   14  C27 UNL     1      -5.810  48.157 -26.971  1.00  0.00     0.287 C 
BRANCH  13  15
HETATM   15  C1  UNL     1      -3.674  49.227 -27.810  1.00  0.00     0.228 C 
HETATM   16  O1  UNL     1      -3.582  50.047 -28.719  1.00  0.00    -0.273 OA
HETATM   17  N1  UNL     1      -2.962  49.242 -26.624  1.00  0.00    -0.327 N 
HETATM   18  H1  UNL     1      -3.152  48.492 -25.968  1.00  0.00     0.169 HD
BRANCH  17  19
HETATM   19  C2  UNL     1      -1.982  50.173 -26.217  1.00  0.00     0.036 A 
HETATM   20  C3  UNL     1      -1.777  50.566 -24.891  1.00  0.00     0.032 A 
HETATM   21  C4  UNL     1      -0.786  51.502 -24.568  1.00  0.00     0.040 A 
HETATM   22  C5  UNL     1       0.001  52.046 -25.573  1.00  0.00     0.087 A 
HETATM   23  C6  UNL     1      -0.193  51.663 -26.900  1.00  0.00     0.069 A 
HETATM   24 CL1  UNL     1       0.779  52.338 -28.155  1.00  0.00    -0.081 Cl
HETATM   25  C7  UNL     1      -1.181  50.732 -27.222  1.00  0.00     0.056 A 
BRANCH  22  26
HETATM   26  O2  UNL     1       0.955  52.956 -25.209  1.00  0.00    -0.359 OA
HETATM   27  H4  UNL     1       1.406  53.245 -26.024  1.00  0.00     0.217 HD
ENDBRANCH  22  26
ENDBRANCH  17  19
ENDBRANCH  13  15
ENDBRANCH   9  10
ENDBRANCH   1   9
BRANCH   6  28
HETATM   28  C15 UNL     1     -13.538  44.274 -27.732  1.00  0.00     0.010 A 
HETATM   29  C16 UNL     1     -13.974  42.950 -27.877  1.00  0.00     0.024 A 
HETATM   30  C17 UNL     1     -15.299  42.637 -28.216  1.00  0.00     0.017 A 
HETATM   31  C18 UNL     1     -16.262  43.638 -28.414  1.00  0.00     0.008 A 
HETATM   32  C23 UNL     1     -15.829  44.965 -28.253  1.00  0.00     0.017 A 
HETATM   33  C24 UNL     1     -14.500  45.274 -27.917  1.00  0.00     0.024 A 
BRANCH  31  34
HETATM   34  C19 UNL     1     -17.660  43.312 -28.759  1.00  0.00     0.115 A 
HETATM   35  N5  UNL     1     -18.151  43.787 -29.924  1.00  0.00    -0.352 N 
HETATM   36  C20 UNL     1     -19.434  43.488 -30.204  1.00  0.00     0.091 A 
ATOM     37  H5  UNL     1     -17.579  44.342 -30.560  1.00  0.00     0.166 HD
HETATM   38  C21 UNL     1     -20.237  42.738 -29.380  1.00  0.00     0.034 A 
HETATM   39  C22 UNL     1     -19.644  42.296 -28.220  1.00  0.00     0.091 A 
HETATM   40  N6  UNL     1     -18.369  42.567 -27.886  1.00  0.00    -0.352 N 
ATOM     41  H6  UNL     1     -17.959  42.227 -27.017  1.00  0.00     0.166 HD
ENDBRANCH  31  34
ENDBRANCH   6  28
TORSDOF 7
ENDMDL
MODEL 6
REMARK minimizedAffinity -7.8118062
REMARK CNNscore 0.34857741
REMARK CNNaffinity 6.39681816
REMARK  7 active torsions:
REMARK  status: ('A' for Active; 'I' for Inactive)
REMARK       I    between atoms: C1_2  and  N1_3 
REMARK    1  A    between atoms: C1_2  and  C8_12 
REMARK    2  A    between atoms: N1_3  and  C2_4 
REMARK    3  A    between atoms: C5_7  and  O2_8 
REMARK    4  A    between atoms: N2_15  and  C11_16 
REMARK    5  A    between atoms: C11_16  and  C12_17 
REMARK       I    between atoms: C12_17  and  N3_19 
REMARK    6  A    between atoms: N4_22  and  C15_23 
REMARK    7  A    between atoms: C18_26  and  C19_27 
ROOT
HETATM    1  C12 UNL     1      -4.651  48.847 -29.037  1.00  0.00     0.248 C 
HETATM    2  O3  UNL     1      -4.174  49.740 -29.743  1.00  0.00    -0.271 OA
HETATM    3  N3  UNL     1      -5.476  47.856 -29.585  1.00  0.00    -0.348 N 
HETATM    4  C13 UNL     1      -5.925  48.059 -30.969  1.00  0.00     0.140 C 
HETATM    5  C14 UNL     1      -6.353  46.758 -31.667  1.00  0.00     0.115 C 
HETATM    6  N4  UNL     1      -7.328  46.018 -30.837  1.00  0.00    -0.280 NA
HETATM    7  C25 UNL     1      -6.799  45.720 -29.486  1.00  0.00     0.115 C 
HETATM    8  C26 UNL     1      -6.367  47.016 -28.773  1.00  0.00     0.140 C 
ENDROOT
BRANCH   1   9
HETATM    9  C11 UNL     1      -4.354  48.731 -27.524  1.00  0.00     0.374 C 
BRANCH   9  10
HETATM   10  N2  UNL     1      -3.056  49.335 -27.144  1.00  0.00     0.098 N 
HETATM   11  C10 UNL     1      -2.402  48.612 -26.043  1.00  0.00     0.274 C 
HETATM   12  C9  UNL     1      -2.968  49.207 -24.762  1.00  0.00     0.046 C 
HETATM   13  C8  UNL     1      -3.378  50.628 -25.140  1.00  0.00     0.108 C 
HETATM   14  C27 UNL     1      -3.223  50.713 -26.656  1.00  0.00     0.287 C 
BRANCH  13  15
HETATM   15  C1  UNL     1      -2.580  51.707 -24.418  1.00  0.00     0.228 C 
HETATM   16  O1  UNL     1      -2.720  52.883 -24.742  1.00  0.00    -0.273 OA
HETATM   17  N1  UNL     1      -1.737  51.229 -23.430  1.00  0.00    -0.327 N 
HETATM   18  H1  UNL     1      -1.735  50.226 -23.279  1.00  0.00     0.169 HD
BRANCH  17  19
HETATM   19  C2  UNL     1      -0.859  51.971 -22.612  1.00  0.00     0.036 A 
HETATM   20  C3  UNL     1       0.154  52.802 -23.100  1.00  0.00     0.032 A 
HETATM   21  C4  UNL     1       0.990  53.502 -22.221  1.00  0.00     0.040 A 
HETATM   22  C5  UNL     1       0.814  53.370 -20.851  1.00  0.00     0.087 A 
HETATM   23  C6  UNL     1      -0.191  52.544 -20.350  1.00  0.00     0.069 A 
HETATM   24 CL1  UNL     1      -0.415  52.371 -18.648  1.00  0.00    -0.081 Cl
HETATM   25  C7  UNL     1      -1.024  51.845 -21.226  1.00  0.00     0.056 A 
BRANCH  22  26
HETATM   26  O2  UNL     1       1.655  54.073 -20.033  1.00  0.00    -0.359 OA
HETATM   27  H4  UNL     1       1.407  53.863 -19.113  1.00  0.00     0.217 HD
ENDBRANCH  22  26
ENDBRANCH  17  19
ENDBRANCH  13  15
ENDBRANCH   9  10
ENDBRANCH   1   9
BRANCH   6  28
HETATM   28  C15 UNL     1      -8.013  44.943 -31.426  1.00  0.00     0.010 A 
HETATM   29  C16 UNL     1      -7.594  43.630 -31.173  1.00  0.00     0.024 A 
HETATM   30  C17 UNL     1      -8.249  42.520 -31.727  1.00  0.00     0.017 A 
HETATM   31  C18 UNL     1      -9.374  42.670 -32.553  1.00  0.00     0.008 A 
HETATM   32  C23 UNL     1      -9.806  43.985 -32.793  1.00  0.00     0.017 A 
HETATM   33  C24 UNL     1      -9.143  45.094 -32.240  1.00  0.00     0.024 A 
BRANCH  31  34
HETATM   34  C19 UNL     1     -10.075  41.504 -33.127  1.00  0.00     0.115 A 
HETATM   35  N5  UNL     1     -10.999  41.730 -34.086  1.00  0.00    -0.352 N 
HETATM   36  C20 UNL     1     -11.634  40.650 -34.579  1.00  0.00     0.091 A 
ATOM     37  H5  UNL     1     -11.205  42.672 -34.420  1.00  0.00     0.166 HD
HETATM   38  C21 UNL     1     -11.383  39.366 -34.162  1.00  0.00     0.034 A 
HETATM   39  C22 UNL     1     -10.422  39.238 -33.187  1.00  0.00     0.091 A 
HETATM   40  N6  UNL     1      -9.759  40.280 -32.654  1.00  0.00    -0.352 N 
ATOM     41  H6  UNL     1      -9.052  40.152 -31.930  1.00  0.00     0.166 HD
ENDBRANCH  31  34
ENDBRANCH   6  28
TORSDOF 7
ENDMDL
MODEL 7
REMARK minimizedAffinity -8.57807922
REMARK CNNscore 0.3173953
REMARK CNNaffinity 6.14321518
REMARK  7 active torsions:
REMARK  status: ('A' for Active; 'I' for Inactive)
REMARK       I    between atoms: C1_2  and  N1_3 
REMARK    1  A    between atoms: C1_2  and  C8_12 
REMARK    2  A    between atoms: N1_3  and  C2_4 
REMARK    3  A    between atoms: C5_7  and  O2_8 
REMARK    4  A    between atoms: N2_15  and  C11_16 
REMARK    5  A    between atoms: C11_16  and  C12_17 
REMARK       I    between atoms: C12_17  and  N3_19 
REMARK    6  A    between atoms: N4_22  and  C15_23 
REMARK    7  A    between atoms: C18_26  and  C19_27 
ROOT
HETATM    1  C12 UNL     1      -6.293  47.639 -28.161  1.00  0.00     0.248 C 
HETATM    2  O3  UNL     1      -6.037  47.608 -29.367  1.00  0.00    -0.271 OA
HETATM    3  N3  UNL     1      -5.424  48.257 -27.253  1.00  0.00    -0.348 N 
HETATM    4  C13 UNL     1      -4.106  48.656 -27.766  1.00  0.00     0.140 C 
HETATM    5  C14 UNL     1      -3.434  49.757 -26.929  1.00  0.00     0.115 C 
HETATM    6  N4  UNL     1      -3.419  49.386 -25.497  1.00  0.00    -0.280 NA
HETATM    7  C25 UNL     1      -4.778  49.109 -24.977  1.00  0.00     0.115 C 
HETATM    8  C26 UNL     1      -5.463  48.006 -25.806  1.00  0.00     0.140 C 
ENDROOT
BRANCH   1   9
HETATM    9  C11 UNL     1      -7.589  47.040 -27.567  1.00  0.00     0.374 C 
BRANCH   9  10
HETATM   10  N2  UNL     1      -8.767  47.920 -27.748  1.00  0.00     0.098 N 
HETATM   11  C10 UNL     1      -9.114  48.653 -26.522  1.00  0.00     0.274 C 
HETATM   12  C9  UNL     1     -10.023  47.727 -25.728  1.00  0.00     0.046 C 
HETATM   13  C8  UNL     1     -10.683  46.836 -26.777  1.00  0.00     0.108 C 
HETATM   14  C27 UNL     1      -9.972  47.148 -28.091  1.00  0.00     0.287 C 
BRANCH  13  15
HETATM   15  C1  UNL     1     -12.192  47.026 -26.880  1.00  0.00     0.228 C 
HETATM   16  O1  UNL     1     -12.645  48.133 -27.158  1.00  0.00    -0.273 OA
HETATM   17  N1  UNL     1     -12.930  45.882 -26.632  1.00  0.00    -0.327 N 
HETATM   18  H1  UNL     1     -12.407  45.040 -26.417  1.00  0.00     0.169 HD
BRANCH  17  19
HETATM   19  C2  UNL     1     -14.335  45.745 -26.626  1.00  0.00     0.036 A 
HETATM   20  C3  UNL     1     -15.073  45.196 -27.679  1.00  0.00     0.032 A 
HETATM   21  C4  UNL     1     -16.468  45.100 -27.600  1.00  0.00     0.040 A 
HETATM   22  C5  UNL     1     -17.127  45.556 -26.466  1.00  0.00     0.087 A 
HETATM   23  C6  UNL     1     -16.403  46.106 -25.409  1.00  0.00     0.069 A 
HETATM   24 CL1  UNL     1     -17.214  46.678 -23.999  1.00  0.00    -0.081 Cl
HETATM   25  C7  UNL     1     -15.013  46.203 -25.489  1.00  0.00     0.056 A 
BRANCH  22  26
HETATM   26  O2  UNL     1     -18.489  45.442 -26.436  1.00  0.00    -0.359 OA
HETATM   27  H4  UNL     1     -18.791  45.813 -25.586  1.00  0.00     0.217 HD
ENDBRANCH  22  26
ENDBRANCH  17  19
ENDBRANCH  13  15
ENDBRANCH   9  10
ENDBRANCH   1   9
BRANCH   6  28
HETATM   28  C15 UNL     1      -2.625  50.150 -24.627  1.00  0.00     0.010 A 
HETATM   29  C16 UNL     1      -2.360  49.678 -23.333  1.00  0.00     0.024 A 
HETATM   30  C17 UNL     1      -1.564  50.395 -22.429  1.00  0.00     0.017 A 
HETATM   31  C18 UNL     1      -0.976  51.620 -22.781  1.00  0.00     0.008 A 
HETATM   32  C23 UNL     1      -1.226  52.085 -24.083  1.00  0.00     0.017 A 
HETATM   33  C24 UNL     1      -2.029  51.366 -24.984  1.00  0.00     0.024 A 
BRANCH  31  34
HETATM   34  C19 UNL     1      -0.126  52.372 -21.836  1.00  0.00     0.115 A 
HETATM   35  N5  UNL     1       0.707  53.308 -22.342  1.00  0.00    -0.352 N 
HETATM   36  C20 UNL     1       1.482  53.966 -21.458  1.00  0.00     0.091 A 
ATOM     37  H5  UNL     1       0.747  53.506 -23.341  1.00  0.00     0.166 HD
HETATM   38  C21 UNL     1       1.456  53.734 -20.105  1.00  0.00     0.034 A 
HETATM   39  C22 UNL     1       0.571  52.768 -19.688  1.00  0.00     0.091 A 
HETATM   40  N6  UNL     1      -0.224  52.075 -20.524  1.00  0.00    -0.352 N 
ATOM     41  H6  UNL     1      -0.868  51.362 -20.183  1.00  0.00     0.166 HD
ENDBRANCH  31  34
ENDBRANCH   6  28
TORSDOF 7
ENDMDL
MODEL 8
REMARK minimizedAffinity -7.87497854
REMARK CNNscore 0.289067209
REMARK CNNaffinity 6.26557779
REMARK  7 active torsions:
REMARK  status: ('A' for Active; 'I' for Inactive)
REMARK       I    between atoms: C1_2  and  N1_3 
REMARK    1  A    between atoms: C1_2  and  C8_12 
REMARK    2  A    between atoms: N1_3  and  C2_4 
REMARK    3  A    between atoms: C5_7  and  O2_8 
REMARK    4  A    between atoms: N2_15  and  C11_16 
REMARK    5  A    between atoms: C11_16  and  C12_17 
REMARK       I    between atoms: C12_17  and  N3_19 
REMARK    6  A    between atoms: N4_22  and  C15_23 
REMARK    7  A    between atoms: C18_26  and  C19_27 
ROOT
HETATM    1  C12 UNL     1       1.813  51.050 -11.471  1.00  0.00     0.248 C 
HETATM    2  O3  UNL     1       1.000  50.503 -10.721  1.00  0.00    -0.271 OA
HETATM    3  N3  UNL     1       1.573  51.151 -12.847  1.00  0.00    -0.348 N 
HETATM    4  C13 UNL     1       0.438  50.385 -13.378  1.00  0.00     0.140 C 
HETATM    5  C14 UNL     1      -0.088  50.926 -14.719  1.00  0.00     0.115 C 
HETATM    6  N4  UNL     1       1.019  51.083 -15.687  1.00  0.00    -0.280 NA
HETATM    7  C25 UNL     1       2.093  51.962 -15.170  1.00  0.00     0.115 C 
HETATM    8  C26 UNL     1       2.631  51.431 -13.828  1.00  0.00     0.140 C 
ENDROOT
BRANCH   1   9
HETATM    9  C11 UNL     1       3.124  51.689 -10.957  1.00  0.00     0.374 C 
BRANCH   9  10
HETATM   10  N2  UNL     1       2.891  52.754  -9.953  1.00  0.00     0.098 N 
HETATM   11  C10 UNL     1       2.540  54.041 -10.572  1.00  0.00     0.274 C 
HETATM   12  C9  UNL     1       3.862  54.727 -10.881  1.00  0.00     0.046 C 
HETATM   13  C8  UNL     1       4.845  54.154  -9.862  1.00  0.00     0.108 C 
HETATM   14  C27 UNL     1       4.100  53.023  -9.159  1.00  0.00     0.287 C 
BRANCH  13  15
HETATM   15  C1  UNL     1       5.380  55.189  -8.880  1.00  0.00     0.228 C 
HETATM   16  O1  UNL     1       6.557  55.534  -8.945  1.00  0.00    -0.273 OA
HETATM   17  N1  UNL     1       4.445  55.652  -7.971  1.00  0.00    -0.327 N 
HETATM   18  H1  UNL     1       3.508  55.271  -8.048  1.00  0.00     0.169 HD
BRANCH  17  19
HETATM   19  C2  UNL     1       4.640  56.586  -6.931  1.00  0.00     0.036 A 
HETATM   20  C3  UNL     1       3.607  57.294  -6.310  1.00  0.00     0.032 A 
HETATM   21  C4  UNL     1       3.883  58.210  -5.287  1.00  0.00     0.040 A 
HETATM   22  C5  UNL     1       5.195  58.419  -4.885  1.00  0.00     0.087 A 
HETATM   23  C6  UNL     1       6.235  57.720  -5.496  1.00  0.00     0.069 A 
HETATM   24 CL1  UNL     1       7.868  57.977  -5.005  1.00  0.00    -0.081 Cl
HETATM   25  C7  UNL     1       5.960  56.808  -6.517  1.00  0.00     0.056 A 
BRANCH  22  26
HETATM   26  O2  UNL     1       5.415  59.323  -3.883  1.00  0.00    -0.359 OA
HETATM   27  H4  UNL     1       6.377  59.359  -3.731  1.00  0.00     0.217 HD
ENDBRANCH  22  26
ENDBRANCH  17  19
ENDBRANCH  13  15
ENDBRANCH   9  10
ENDBRANCH   1   9
BRANCH   6  28
HETATM   28  C15 UNL     1       0.689  51.322 -17.031  1.00  0.00     0.010 A 
HETATM   29  C16 UNL     1      -0.040  50.363 -17.748  1.00  0.00     0.024 A 
HETATM   30  C17 UNL     1      -0.406  50.557 -19.088  1.00  0.00     0.017 A 
HETATM   31  C18 UNL     1      -0.073  51.734 -19.777  1.00  0.00     0.008 A 
HETATM   32  C23 UNL     1       0.643  52.703 -19.054  1.00  0.00     0.017 A 
HETATM   33  C24 UNL     1       1.011  52.502 -17.713  1.00  0.00     0.024 A 
BRANCH  31  34
HETATM   34  C19 UNL     1      -0.467  51.947 -21.183  1.00  0.00     0.115 A 
HETATM   35  N5  UNL     1      -1.757  51.725 -21.520  1.00  0.00    -0.352 N 
HETATM   36  C20 UNL     1      -2.083  51.912 -22.813  1.00  0.00     0.091 A 
ATOM     37  H5  UNL     1      -2.448  51.432 -20.830  1.00  0.00     0.166 HD
HETATM   38  C21 UNL     1      -1.187  52.312 -23.773  1.00  0.00     0.034 A 
HETATM   39  C22 UNL     1       0.099  52.518 -23.331  1.00  0.00     0.091 A 
HETATM   40  N6  UNL     1       0.484  52.344 -22.054  1.00  0.00    -0.352 N 
ATOM     41  H6  UNL     1       1.447  52.503 -21.758  1.00  0.00     0.166 HD
ENDBRANCH  31  34
ENDBRANCH   6  28
TORSDOF 7
ENDMDL
MODEL 9
REMARK minimizedAffinity -8.32672024
REMARK CNNscore 0.277512908
REMARK CNNaffinity 5.49390554
REMARK  7 active torsions:
REMARK  status: ('A' for Active; 'I' for Inactive)
REMARK       I    between atoms: C1_2  and  N1_3 
REMARK    1  A    between atoms: C1_2  and  C8_12 
REMARK    2  A    between atoms: N1_3  and  C2_4 
REMARK    3  A    between atoms: C5_7  and  O2_8 
REMARK    4  A    between atoms: N2_15  and  C11_16 
REMARK    5  A    between atoms: C11_16  and  C12_17 
REMARK       I    between atoms: C12_17  and  N3_19 
REMARK    6  A    between atoms: N4_22  and  C15_23 
REMARK    7  A    between atoms: C18_26  and  C19_27 
ROOT
HETATM    1  C12 UNL     1      -8.728  46.409 -22.306  1.00  0.00     0.248 C 
HETATM    2  O3  UNL     1      -8.649  46.071 -21.121  1.00  0.00    -0.271 OA
HETATM    3  N3  UNL     1      -7.673  47.079 -22.937  1.00  0.00    -0.348 N 
HETATM    4  C13 UNL     1      -6.582  47.556 -22.077  1.00  0.00     0.140 C 
HETATM    5  C14 UNL     1      -5.265  47.788 -22.836  1.00  0.00     0.115 C 
HETATM    6  N4  UNL     1      -5.491  48.641 -24.023  1.00  0.00    -0.280 NA
HETATM    7  C25 UNL     1      -6.510  48.071 -24.934  1.00  0.00     0.115 C 
HETATM    8  C26 UNL     1      -7.837  47.834 -24.187  1.00  0.00     0.140 C 
ENDROOT
BRANCH   1   9
HETATM    9  C11 UNL     1      -9.962  46.095 -23.183  1.00  0.00     0.374 C 
BRANCH   9  10
HETATM   10  N2  UNL     1     -11.155  45.723 -22.387  1.00  0.00     0.098 N 
HETATM   11  C10 UNL     1     -11.936  44.648 -23.016  1.00  0.00     0.274 C 
HETATM   12  C9  UNL     1     -12.889  45.338 -23.981  1.00  0.00     0.046 C 
HETATM   13  C8  UNL     1     -13.090  46.735 -23.398  1.00  0.00     0.108 C 
HETATM   14  C27 UNL     1     -12.089  46.851 -22.252  1.00  0.00     0.287 C 
BRANCH  13  15
HETATM   15  C1  UNL     1     -14.519  47.009 -22.946  1.00  0.00     0.228 C 
HETATM   16  O1  UNL     1     -15.202  47.824 -23.559  1.00  0.00    -0.273 OA
HETATM   17  N1  UNL     1     -14.917  46.283 -21.837  1.00  0.00    -0.327 N 
HETATM   18  H1  UNL     1     -14.235  45.644 -21.442  1.00  0.00     0.169 HD
BRANCH  17  19
HETATM   19  C2  UNL     1     -16.161  46.334 -21.172  1.00  0.00     0.036 A 
HETATM   20  C3  UNL     1     -16.386  47.039 -19.986  1.00  0.00     0.032 A 
HETATM   21  C4  UNL     1     -17.650  47.036 -19.382  1.00  0.00     0.040 A 
HETATM   22  C5  UNL     1     -18.691  46.326 -19.966  1.00  0.00     0.087 A 
HETATM   23  C6  UNL     1     -18.479  45.619 -21.149  1.00  0.00     0.069 A 
HETATM   24 CL1  UNL     1     -19.765  44.731 -21.878  1.00  0.00    -0.081 Cl
HETATM   25  C7  UNL     1     -17.219  45.620 -21.749  1.00  0.00     0.056 A 
BRANCH  22  26
HETATM   26  O2  UNL     1     -19.906  46.353 -19.340  1.00  0.00    -0.359 OA
HETATM   27  H4  UNL     1     -20.515  45.803 -19.866  1.00  0.00     0.217 HD
ENDBRANCH  22  26
ENDBRANCH  17  19
ENDBRANCH  13  15
ENDBRANCH   9  10
ENDBRANCH   1   9
BRANCH   6  28
HETATM   28  C15 UNL     1      -4.367  49.161 -24.684  1.00  0.00     0.010 A 
HETATM   29  C16 UNL     1      -3.892  50.436 -24.348  1.00  0.00     0.024 A 
HETATM   30  C17 UNL     1      -2.767  50.998 -24.968  1.00  0.00     0.017 A 
HETATM   31  C18 UNL     1      -2.047  50.301 -25.951  1.00  0.00     0.008 A 
HETATM   32  C23 UNL     1      -2.512  49.016 -26.277  1.00  0.00     0.017 A 
HETATM   33  C24 UNL     1      -3.643  48.459 -25.656  1.00  0.00     0.024 A 
BRANCH  31  34
HETATM   34  C19 UNL     1      -0.854  50.883 -26.598  1.00  0.00     0.115 A 
HETATM   35  N5  UNL     1       0.311  50.861 -25.914  1.00  0.00    -0.352 N 
HETATM   36  C20 UNL     1       1.378  51.414 -26.522  1.00  0.00     0.091 A 
ATOM     37  H5  UNL     1       0.379  50.446 -24.985  1.00  0.00     0.166 HD
HETATM   38  C21 UNL     1       1.331  51.978 -27.773  1.00  0.00     0.034 A 
HETATM   39  C22 UNL     1       0.103  51.946 -28.390  1.00  0.00     0.091 A 
HETATM   40  N6  UNL     1      -0.998  51.412 -27.831  1.00  0.00    -0.352 N 
ATOM     41  H6  UNL     1      -1.896  51.406 -28.314  1.00  0.00     0.166 HD
ENDBRANCH  31  34
ENDBRANCH   6  28
TORSDOF 7
ENDMDL
