MODEL 1
REMARK minimizedAffinity -10.7566137
REMARK  6 active torsions:
REMARK  status: ('A' for Active; 'I' for Inactive)
REMARK    1  A    between atoms: O1_2  and  C2_3 
REMARK    2  A    between atoms: C7_9  and  C8_10 
REMARK    3  A    between atoms: C8_10  and  N1_11 
REMARK    4  A    between atoms: C12_15  and  N2_16 
REMARK       I    between atoms: N2_16  and  C13_17 
REMARK       I    between atoms: C13_17  and  N3_19 
REMARK    5  A    between atoms: N3_19  and  C14_20 
REMARK    6  A    between atoms: C17_26  and  C18_27 
ROOT
HETATM    1  C18 UNL     1      -0.700  52.392 -25.085  1.00  0.00    -0.007 A 
HETATM    2  C19 UNL     1      -0.119  51.462 -25.960  1.00  0.00     0.015 A 
HETATM    3  C20 UNL     1      -0.916  50.737 -26.854  1.00  0.00     0.023 A 
HETATM    4  C21 UNL     1      -2.300  50.937 -26.887  1.00  0.00     0.044 A 
HETATM    5  C22 UNL     1      -3.114  50.194 -27.804  1.00  0.00     0.099 C 
HETATM    6  N6  UNL     1      -3.770  49.589 -28.545  1.00  0.00    -0.191 NA
HETATM    7  C23 UNL     1      -2.884  51.870 -26.025  1.00  0.00     0.023 A 
HETATM    8  C24 UNL     1      -2.087  52.595 -25.133  1.00  0.00     0.015 A 
ENDROOT
BRANCH   1   9
HETATM    9  C17 UNL     1       0.120  53.159 -24.147  1.00  0.00     0.072 A 
HETATM   10  N5  UNL     1       0.880  54.179 -24.581  1.00  0.00    -0.299 N 
HETATM   11  N4  UNL     1       1.502  54.626 -23.479  1.00  0.00    -0.299 N 
ATOM     12  H5  UNL     1       0.965  54.534 -25.533  1.00  0.00     0.187 HD
HETATM   13  C16 UNL     1       1.157  53.963 -22.336  1.00  0.00     0.065 A 
HETATM   14  H19 UNL     1       2.153  55.399 -23.572  1.00  0.00     0.187 HD
HETATM   15  C15 UNL     1       1.557  54.127 -21.010  1.00  0.00     0.080 A 
HETATM   16  C25 UNL     1       0.243  52.997 -22.733  1.00  0.00     0.036 A 
HETATM   17  C14 UNL     1       0.973  53.251 -20.103  1.00  0.00     0.111 A 
HETATM   18  N7  UNL     1       0.065  52.310 -20.451  1.00  0.00    -0.351 N 
HETATM   19  C26 UNL     1      -0.309  52.173 -21.751  1.00  0.00     0.105 A 
ATOM     20  H7  UNL     1      -0.338  51.702 -19.738  1.00  0.00     0.166 HD
BRANCH  17  21
HETATM   21  N3  UNL     1       1.246  53.266 -18.735  1.00  0.00    -0.295 N 
HETATM   22  C13 UNL     1       0.994  52.290 -17.810  1.00  0.00     0.322 C 
HETATM   23  N2  UNL     1       1.460  52.659 -16.563  1.00  0.00    -0.337 N 
HETATM   24  O2  UNL     1       0.425  51.226 -18.011  1.00  0.00    -0.247 OA
HETATM   25  H16 UNL     1       2.265  53.269 -16.571  1.00  0.00     0.164 HD
HETATM   26  H17 UNL     1       1.541  54.171 -18.408  1.00  0.00     0.172 HD
BRANCH  23  27
HETATM   27  C12 UNL     1       1.383  51.726 -15.442  1.00  0.00     0.114 C 
HETATM   28  C11 UNL     1       0.576  50.491 -15.833  1.00  0.00     0.029 C 
HETATM   29  C10 UNL     1       0.505  49.489 -14.678  1.00  0.00     0.032 C 
HETATM   30  C9  UNL     1       0.685  50.134 -13.298  1.00  0.00     0.273 C 
HETATM   31  N1  UNL     1       0.065  51.458 -13.279  1.00  0.00     0.094 N 
HETATM   32  C27 UNL     1       0.784  52.392 -14.170  1.00  0.00     0.297 C 
BRANCH  31  33
HETATM   33  C8  UNL     1      -0.041  51.982 -11.904  1.00  0.00     0.317 C 
BRANCH  33  34
HETATM   34  C7  UNL     1      -1.382  52.613 -11.601  1.00  0.00     0.042 A 
HETATM   35  C2  UNL     1      -2.559  52.223 -12.268  1.00  0.00     0.079 A 
HETATM   36  C3  UNL     1      -3.773  52.850 -11.956  1.00  0.00     0.037 A 
HETATM   37  C4  UNL     1      -3.826  53.863 -10.995  1.00  0.00     0.006 A 
HETATM   38  C5  UNL     1      -2.667  54.252 -10.334  1.00  0.00     0.043 A 
HETATM   39  C6  UNL     1      -1.463  53.627 -10.638  1.00  0.00     0.127 A 
HETATM   40  F1  UNL     1      -0.360  54.020  -9.983  1.00  0.00    -0.205 F 
BRANCH  35  41
HETATM   41  O1  UNL     1      -2.429  51.206 -13.177  1.00  0.00    -0.355 OA
HETATM   42  C1  UNL     1      -3.148  51.323 -14.397  1.00  0.00     0.210 C 
ENDBRANCH  35  41
ENDBRANCH  33  34
ENDBRANCH  31  33
ENDBRANCH  23  27
ENDBRANCH  17  21
ENDBRANCH   1   9
TORSDOF 6
ENDMDL
MODEL 2
REMARK minimizedAffinity -10.6918697
REMARK  6 active torsions:
REMARK  status: ('A' for Active; 'I' for Inactive)
REMARK    1  A    between atoms: O1_2  and  C2_3 
REMARK    2  A    between atoms: C7_9  and  C8_10 
REMARK    3  A    between atoms: C8_10  and  N1_11 
REMARK    4  A    between atoms: C12_15  and  N2_16 
REMARK       I    between atoms: N2_16  and  C13_17 
REMARK       I    between atoms: C13_17  and  N3_19 
REMARK    5  A    between atoms: N3_19  and  C14_20 
REMARK    6  A    between atoms: C17_26  and  C18_27 
ROOT
HETATM    1  C18 UNL     1      -0.730  52.392 -25.043  1.00  0.00    -0.007 A 
HETATM    2  C19 UNL     1      -2.122  52.555 -25.066  1.00  0.00     0.015 A 
HETATM    3  C20 UNL     1      -2.908  51.820 -25.961  1.00  0.00     0.023 A 
HETATM    4  C21 UNL     1      -2.311  50.909 -26.839  1.00  0.00     0.044 A 
HETATM    5  C22 UNL     1      -3.118  50.156 -27.754  1.00  0.00     0.099 C 
HETATM    6  N6  UNL     1      -3.774  49.551 -28.496  1.00  0.00    -0.191 NA
HETATM    7  C23 UNL     1      -0.924  50.733 -26.814  1.00  0.00     0.023 A 
HETATM    8  C24 UNL     1      -0.141  51.468 -25.919  1.00  0.00     0.015 A 
ENDROOT
BRANCH   1   9
HETATM    9  C17 UNL     1       0.104  53.151 -24.112  1.00  0.00     0.072 A 
HETATM   10  N5  UNL     1       0.896  54.143 -24.556  1.00  0.00    -0.299 N 
HETATM   11  N4  UNL     1       1.522  54.590 -23.456  1.00  0.00    -0.299 N 
ATOM     12  H5  UNL     1       0.998  54.479 -25.513  1.00  0.00     0.187 HD
HETATM   13  C16 UNL     1       1.151  53.955 -22.306  1.00  0.00     0.065 A 
HETATM   14  H19 UNL     1       2.195  55.342 -23.558  1.00  0.00     0.187 HD
HETATM   15  C15 UNL     1       1.546  54.130 -20.979  1.00  0.00     0.080 A 
HETATM   16  C25 UNL     1       0.213  53.009 -22.694  1.00  0.00     0.036 A 
HETATM   17  C14 UNL     1       0.931  53.285 -20.064  1.00  0.00     0.111 A 
HETATM   18  N7  UNL     1      -0.000  52.364 -20.403  1.00  0.00    -0.351 N 
HETATM   19  C26 UNL     1      -0.369  52.217 -21.703  1.00  0.00     0.105 A 
ATOM     20  H7  UNL     1      -0.426  51.780 -19.683  1.00  0.00     0.166 HD
BRANCH  17  21
HETATM   21  N3  UNL     1       1.195  53.315 -18.694  1.00  0.00    -0.295 N 
HETATM   22  C13 UNL     1       0.964  52.337 -17.765  1.00  0.00     0.322 C 
HETATM   23  N2  UNL     1       1.411  52.725 -16.517  1.00  0.00    -0.337 N 
HETATM   24  O2  UNL     1       0.427  51.256 -17.964  1.00  0.00    -0.247 OA
HETATM   25  H16 UNL     1       2.198  53.358 -16.523  1.00  0.00     0.164 HD
HETATM   26  H17 UNL     1       1.461  54.230 -18.369  1.00  0.00     0.172 HD
BRANCH  23  27
HETATM   27  C12 UNL     1       1.353  51.796 -15.392  1.00  0.00     0.114 C 
HETATM   28  C11 UNL     1       0.577  50.540 -15.779  1.00  0.00     0.029 C 
HETATM   29  C10 UNL     1       0.527  49.543 -14.619  1.00  0.00     0.032 C 
HETATM   30  C9  UNL     1       0.687  50.198 -13.242  1.00  0.00     0.273 C 
HETATM   31  N1  UNL     1       0.036  51.507 -13.231  1.00  0.00     0.094 N 
HETATM   32  C27 UNL     1       0.735  52.454 -14.125  1.00  0.00     0.297 C 
BRANCH  31  33
HETATM   33  C8  UNL     1      -0.087  52.035 -11.860  1.00  0.00     0.317 C 
BRANCH  33  34
HETATM   34  C7  UNL     1      -1.487  52.486 -11.510  1.00  0.00     0.042 A 
HETATM   35  C2  UNL     1      -1.736  53.710 -10.858  1.00  0.00     0.079 A 
HETATM   36  C3  UNL     1      -3.053  54.074 -10.546  1.00  0.00     0.037 A 
HETATM   37  C4  UNL     1      -4.121  53.232 -10.870  1.00  0.00     0.006 A 
HETATM   38  C5  UNL     1      -3.881  52.024 -11.513  1.00  0.00     0.043 A 
HETATM   39  C6  UNL     1      -2.575  51.664 -11.828  1.00  0.00     0.127 A 
HETATM   40  F1  UNL     1      -2.372  50.494 -12.452  1.00  0.00    -0.205 F 
BRANCH  35  41
HETATM   41  O1  UNL     1      -0.640  54.490 -10.598  1.00  0.00    -0.355 OA
HETATM   42  C1  UNL     1      -0.677  55.304  -9.434  1.00  0.00     0.210 C 
ENDBRANCH  35  41
ENDBRANCH  33  34
ENDBRANCH  31  33
ENDBRANCH  23  27
ENDBRANCH  17  21
ENDBRANCH   1   9
TORSDOF 6
ENDMDL
MODEL 3
REMARK minimizedAffinity -10.1178398
REMARK  6 active torsions:
REMARK  status: ('A' for Active; 'I' for Inactive)
REMARK    1  A    between atoms: O1_2  and  C2_3 
REMARK    2  A    between atoms: C7_9  and  C8_10 
REMARK    3  A    between atoms: C8_10  and  N1_11 
REMARK    4  A    between atoms: C12_15  and  N2_16 
REMARK       I    between atoms: N2_16  and  C13_17 
REMARK       I    between atoms: C13_17  and  N3_19 
REMARK    5  A    between atoms: N3_19  and  C14_20 
REMARK    6  A    between atoms: C17_26  and  C18_27 
ROOT
HETATM    1  C18 UNL     1       0.485  52.957 -22.511  1.00  0.00    -0.007 A 
HETATM    2  C19 UNL     1       1.228  53.899 -21.784  1.00  0.00     0.015 A 
HETATM    3  C20 UNL     1       1.367  53.773 -20.397  1.00  0.00     0.023 A 
HETATM    4  C21 UNL     1       0.771  52.702 -19.722  1.00  0.00     0.044 A 
HETATM    5  C22 UNL     1       0.916  52.575 -18.302  1.00  0.00     0.099 C 
HETATM    6  N6  UNL     1       1.033  52.477 -17.151  1.00  0.00    -0.191 NA
HETATM    7  C23 UNL     1       0.039  51.754 -20.442  1.00  0.00     0.023 A 
HETATM    8  C24 UNL     1      -0.099  51.880 -21.828  1.00  0.00     0.015 A 
ENDROOT
BRANCH   1   9
HETATM    9  C17 UNL     1       0.333  53.074 -23.961  1.00  0.00     0.072 A 
HETATM   10  N5  UNL     1       1.055  53.971 -24.654  1.00  0.00    -0.299 N 
HETATM   11  N4  UNL     1       0.646  53.821 -25.924  1.00  0.00    -0.299 N 
ATOM     12  H5  UNL     1       1.755  54.620 -24.295  1.00  0.00     0.187 HD
HETATM   13  C16 UNL     1      -0.289  52.841 -26.097  1.00  0.00     0.065 A 
HETATM   14  H19 UNL     1       1.052  54.421 -26.634  1.00  0.00     0.187 HD
HETATM   15  C15 UNL     1      -0.942  52.372 -27.237  1.00  0.00     0.080 A 
HETATM   16  C25 UNL     1      -0.515  52.320 -24.831  1.00  0.00     0.036 A 
HETATM   17  C14 UNL     1      -1.842  51.336 -27.017  1.00  0.00     0.111 A 
HETATM   18  N7  UNL     1      -2.073  50.791 -25.801  1.00  0.00    -0.351 N 
HETATM   19  C26 UNL     1      -1.421  51.266 -24.707  1.00  0.00     0.105 A 
ATOM     20  H7  UNL     1      -2.738  50.023 -25.704  1.00  0.00     0.166 HD
BRANCH  17  21
HETATM   21  N3  UNL     1      -2.584  50.735 -28.035  1.00  0.00    -0.295 N 
HETATM   22  C13 UNL     1      -3.638  49.870 -27.917  1.00  0.00     0.322 C 
HETATM   23  N2  UNL     1      -4.143  49.535 -29.158  1.00  0.00    -0.337 N 
HETATM   24  O2  UNL     1      -4.096  49.418 -26.877  1.00  0.00    -0.247 OA
HETATM   25  H16 UNL     1      -4.043  50.248 -29.867  1.00  0.00     0.164 HD
HETATM   26  H17 UNL     1      -2.180  50.876 -28.946  1.00  0.00     0.172 HD
BRANCH  23  27
HETATM   27  C12 UNL     1      -5.334  48.697 -29.267  1.00  0.00     0.114 C 
HETATM   28  C11 UNL     1      -5.417  47.735 -28.084  1.00  0.00     0.029 C 
HETATM   29  C10 UNL     1      -6.673  46.865 -28.168  1.00  0.00     0.032 C 
HETATM   30  C9  UNL     1      -7.204  46.693 -29.597  1.00  0.00     0.273 C 
HETATM   31  N1  UNL     1      -6.089  46.624 -30.540  1.00  0.00     0.094 N 
HETATM   32  C27 UNL     1      -5.375  47.916 -30.612  1.00  0.00     0.297 C 
BRANCH  31  33
HETATM   33  C8  UNL     1      -6.538  46.170 -31.870  1.00  0.00     0.317 C 
BRANCH  33  34
HETATM   34  C7  UNL     1      -6.069  44.776 -32.222  1.00  0.00     0.042 A 
HETATM   35  C2  UNL     1      -6.964  43.697 -32.352  1.00  0.00     0.079 A 
HETATM   36  C3  UNL     1      -6.473  42.423 -32.668  1.00  0.00     0.037 A 
HETATM   37  C4  UNL     1      -5.104  42.211 -32.849  1.00  0.00     0.006 A 
HETATM   38  C5  UNL     1      -4.216  43.273 -32.722  1.00  0.00     0.043 A 
HETATM   39  C6  UNL     1      -4.702  44.539 -32.414  1.00  0.00     0.127 A 
HETATM   40  F1  UNL     1      -3.824  45.546 -32.300  1.00  0.00    -0.205 F 
BRANCH  35  41
HETATM   41  O1  UNL     1      -8.292  43.991 -32.185  1.00  0.00    -0.355 OA
HETATM   42  C1  UNL     1      -9.025  43.203 -31.257  1.00  0.00     0.210 C 
ENDBRANCH  35  41
ENDBRANCH  33  34
ENDBRANCH  31  33
ENDBRANCH  23  27
ENDBRANCH  17  21
ENDBRANCH   1   9
TORSDOF 6
ENDMDL
MODEL 4
REMARK minimizedAffinity -10.1061811
REMARK  6 active torsions:
REMARK  status: ('A' for Active; 'I' for Inactive)
REMARK    1  A    between atoms: O1_2  and  C2_3 
REMARK    2  A    between atoms: C7_9  and  C8_10 
REMARK    3  A    between atoms: C8_10  and  N1_11 
REMARK    4  A    between atoms: C12_15  and  N2_16 
REMARK       I    between atoms: N2_16  and  C13_17 
REMARK       I    between atoms: C13_17  and  N3_19 
REMARK    5  A    between atoms: N3_19  and  C14_20 
REMARK    6  A    between atoms: C17_26  and  C18_27 
ROOT
HETATM    1  C18 UNL     1       0.407  52.720 -22.482  1.00  0.00    -0.007 A 
HETATM    2  C19 UNL     1       1.115  53.751 -21.849  1.00  0.00     0.015 A 
HETATM    3  C20 UNL     1       1.328  53.720 -20.466  1.00  0.00     0.023 A 
HETATM    4  C21 UNL     1       0.840  52.655 -19.702  1.00  0.00     0.044 A 
HETATM    5  C22 UNL     1       1.059  52.624 -18.285  1.00  0.00     0.099 C 
HETATM    6  N6  UNL     1       1.236  52.604 -17.138  1.00  0.00    -0.191 NA
HETATM    7  C23 UNL     1       0.143  51.617 -20.328  1.00  0.00     0.023 A 
HETATM    8  C24 UNL     1      -0.068  51.650 -21.710  1.00  0.00     0.015 A 
ENDROOT
BRANCH   1   9
HETATM    9  C17 UNL     1       0.180  52.737 -23.927  1.00  0.00     0.072 A 
HETATM   10  N5  UNL     1       0.986  53.445 -24.737  1.00  0.00    -0.299 N 
HETATM   11  N4  UNL     1       0.477  53.257 -25.965  1.00  0.00    -0.299 N 
ATOM     12  H5  UNL     1       1.800  54.001 -24.477  1.00  0.00     0.187 HD
HETATM   13  C16 UNL     1      -0.610  52.430 -25.997  1.00  0.00     0.065 A 
HETATM   14  H19 UNL     1       0.923  53.722 -26.748  1.00  0.00     0.187 HD
HETATM   15  C15 UNL     1      -1.401  51.978 -27.053  1.00  0.00     0.080 A 
HETATM   16  C25 UNL     1      -0.830  52.060 -24.678  1.00  0.00     0.036 A 
HETATM   17  C14 UNL     1      -2.435  51.123 -26.692  1.00  0.00     0.111 A 
HETATM   18  N7  UNL     1      -2.669  50.726 -25.419  1.00  0.00    -0.351 N 
HETATM   19  C26 UNL     1      -1.880  51.180 -24.410  1.00  0.00     0.105 A 
ATOM     20  H7  UNL     1      -3.437  50.086 -25.218  1.00  0.00     0.166 HD
BRANCH  17  21
HETATM   21  N3  UNL     1      -3.328  50.566 -27.609  1.00  0.00    -0.295 N 
HETATM   22  C13 UNL     1      -3.707  49.258 -27.736  1.00  0.00     0.322 C 
HETATM   23  N2  UNL     1      -4.652  49.111 -28.731  1.00  0.00    -0.337 N 
HETATM   24  O2  UNL     1      -3.285  48.311 -27.085  1.00  0.00    -0.247 OA
HETATM   25  H16 UNL     1      -5.248  49.914 -28.877  1.00  0.00     0.164 HD
HETATM   26  H17 UNL     1      -3.599  51.215 -28.330  1.00  0.00     0.172 HD
BRANCH  23  27
HETATM   27  C12 UNL     1      -5.271  47.811 -28.975  1.00  0.00     0.114 C 
HETATM   28  C11 UNL     1      -5.515  47.610 -30.469  1.00  0.00     0.029 C 
HETATM   29  C10 UNL     1      -6.141  46.241 -30.746  1.00  0.00     0.032 C 
HETATM   30  C9  UNL     1      -6.913  45.669 -29.552  1.00  0.00     0.273 C 
HETATM   31  N1  UNL     1      -7.580  46.746 -28.823  1.00  0.00     0.094 N 
HETATM   32  C27 UNL     1      -6.594  47.637 -28.175  1.00  0.00     0.297 C 
BRANCH  31  33
HETATM   33  C8  UNL     1      -8.559  46.215 -27.856  1.00  0.00     0.317 C 
BRANCH  33  34
HETATM   34  C7  UNL     1      -9.910  46.890 -27.933  1.00  0.00     0.042 A 
HETATM   35  C2  UNL     1     -10.668  46.911 -29.121  1.00  0.00     0.079 A 
HETATM   36  C3  UNL     1     -11.909  47.561 -29.141  1.00  0.00     0.037 A 
HETATM   37  C4  UNL     1     -12.400  48.195 -27.995  1.00  0.00     0.006 A 
HETATM   38  C5  UNL     1     -11.657  48.177 -26.821  1.00  0.00     0.043 A 
HETATM   39  C6  UNL     1     -10.428  47.527 -26.799  1.00  0.00     0.127 A 
HETATM   40  F1  UNL     1      -9.733  47.522 -25.652  1.00  0.00    -0.205 F 
BRANCH  35  41
HETATM   41  O1  UNL     1     -10.130  46.246 -30.192  1.00  0.00    -0.355 OA
HETATM   42  C1  UNL     1     -11.015  45.481 -30.997  1.00  0.00     0.210 C 
ENDBRANCH  35  41
ENDBRANCH  33  34
ENDBRANCH  31  33
ENDBRANCH  23  27
ENDBRANCH  17  21
ENDBRANCH   1   9
TORSDOF 6
ENDMDL
MODEL 5
REMARK minimizedAffinity -10.0538855
REMARK  6 active torsions:
REMARK  status: ('A' for Active; 'I' for Inactive)
REMARK    1  A    between atoms: O1_2  and  C2_3 
REMARK    2  A    between atoms: C7_9  and  C8_10 
REMARK    3  A    between atoms: C8_10  and  N1_11 
REMARK    4  A    between atoms: C12_15  and  N2_16 
REMARK       I    between atoms: N2_16  and  C13_17 
REMARK       I    between atoms: C13_17  and  N3_19 
REMARK    5  A    between atoms: N3_19  and  C14_20 
REMARK    6  A    between atoms: C17_26  and  C18_27 
ROOT
HETATM    1  C18 UNL     1       0.284  52.809 -22.550  1.00  0.00    -0.007 A 
HETATM    2  C19 UNL     1      -0.272  51.777 -21.781  1.00  0.00     0.015 A 
HETATM    3  C20 UNL     1      -0.036  51.713 -20.403  1.00  0.00     0.023 A 
HETATM    4  C21 UNL     1       0.755  52.683 -19.778  1.00  0.00     0.044 A 
HETATM    5  C22 UNL     1       0.995  52.616 -18.366  1.00  0.00     0.099 C 
HETATM    6  N6  UNL     1       1.190  52.557 -17.224  1.00  0.00    -0.191 NA
HETATM    7  C23 UNL     1       1.304  53.721 -20.537  1.00  0.00     0.023 A 
HETATM    8  C24 UNL     1       1.066  53.784 -21.914  1.00  0.00     0.015 A 
ENDROOT
BRANCH   1   9
HETATM    9  C17 UNL     1       0.043  52.890 -23.991  1.00  0.00     0.072 A 
HETATM   10  N5  UNL     1       0.789  53.699 -24.764  1.00  0.00    -0.299 N 
HETATM   11  N4  UNL     1       0.284  53.544 -25.997  1.00  0.00    -0.299 N 
ATOM     12  H5  UNL     1       1.564  54.297 -24.476  1.00  0.00     0.187 HD
HETATM   13  C16 UNL     1      -0.740  52.643 -26.072  1.00  0.00     0.065 A 
HETATM   14  H19 UNL     1       0.690  54.083 -26.755  1.00  0.00     0.187 HD
HETATM   15  C15 UNL     1      -1.506  52.195 -27.148  1.00  0.00     0.080 A 
HETATM   16  C25 UNL     1      -0.922  52.185 -24.774  1.00  0.00     0.036 A 
HETATM   17  C14 UNL     1      -2.473  51.248 -26.831  1.00  0.00     0.111 A 
HETATM   18  N7  UNL     1      -2.666  50.765 -25.581  1.00  0.00    -0.351 N 
HETATM   19  C26 UNL     1      -1.903  51.218 -24.552  1.00  0.00     0.105 A 
ATOM     20  H7  UNL     1      -3.385  50.061 -25.413  1.00  0.00     0.166 HD
BRANCH  17  21
HETATM   21  N3  UNL     1      -3.331  50.681 -27.774  1.00  0.00    -0.295 N 
HETATM   22  C13 UNL     1      -3.725  49.375 -27.883  1.00  0.00     0.322 C 
HETATM   23  N2  UNL     1      -4.625  49.216 -28.918  1.00  0.00    -0.337 N 
HETATM   24  O2  UNL     1      -3.349  48.440 -27.190  1.00  0.00    -0.247 OA
HETATM   25  H16 UNL     1      -5.201  50.024 -29.112  1.00  0.00     0.164 HD
HETATM   26  H17 UNL     1      -3.558  51.314 -28.522  1.00  0.00     0.172 HD
BRANCH  23  27
HETATM   27  C12 UNL     1      -5.253  47.920 -29.156  1.00  0.00     0.114 C 
HETATM   28  C11 UNL     1      -5.543  47.735 -30.644  1.00  0.00     0.029 C 
HETATM   29  C10 UNL     1      -6.179  46.370 -30.917  1.00  0.00     0.032 C 
HETATM   30  C9  UNL     1      -6.916  45.785 -29.705  1.00  0.00     0.273 C 
HETATM   31  N1  UNL     1      -7.558  46.856 -28.945  1.00  0.00     0.094 N 
HETATM   32  C27 UNL     1      -6.551  47.739 -28.319  1.00  0.00     0.297 C 
BRANCH  31  33
HETATM   33  C8  UNL     1      -8.508  46.316 -27.954  1.00  0.00     0.317 C 
BRANCH  33  34
HETATM   34  C7  UNL     1      -9.878  46.953 -28.023  1.00  0.00     0.042 A 
HETATM   35  C2  UNL     1     -10.517  47.476 -26.881  1.00  0.00     0.079 A 
HETATM   36  C3  UNL     1     -11.792  48.044 -26.999  1.00  0.00     0.037 A 
HETATM   37  C4  UNL     1     -12.440  48.092 -28.237  1.00  0.00     0.006 A 
HETATM   38  C5  UNL     1     -11.814  47.577 -29.366  1.00  0.00     0.043 A 
HETATM   39  C6  UNL     1     -10.546  47.018 -29.252  1.00  0.00     0.127 A 
HETATM   40  F1  UNL     1      -9.964  46.532 -30.358  1.00  0.00    -0.205 F 
BRANCH  35  41
HETATM   41  O1  UNL     1      -9.806  47.415 -25.711  1.00  0.00    -0.355 OA
HETATM   42  C1  UNL     1     -10.494  46.971 -24.550  1.00  0.00     0.210 C 
ENDBRANCH  35  41
ENDBRANCH  33  34
ENDBRANCH  31  33
ENDBRANCH  23  27
ENDBRANCH  17  21
ENDBRANCH   1   9
TORSDOF 6
ENDMDL
MODEL 6
REMARK minimizedAffinity -9.82462025
REMARK  6 active torsions:
REMARK  status: ('A' for Active; 'I' for Inactive)
REMARK    1  A    between atoms: O1_2  and  C2_3 
REMARK    2  A    between atoms: C7_9  and  C8_10 
REMARK    3  A    between atoms: C8_10  and  N1_11 
REMARK    4  A    between atoms: C12_15  and  N2_16 
REMARK       I    between atoms: N2_16  and  C13_17 
REMARK       I    between atoms: C13_17  and  N3_19 
REMARK    5  A    between atoms: N3_19  and  C14_20 
REMARK    6  A    between atoms: C17_26  and  C18_27 
ROOT
HETATM    1  C18 UNL     1       0.359  52.673 -22.537  1.00  0.00    -0.007 A 
HETATM    2  C19 UNL     1       1.086  53.685 -21.894  1.00  0.00     0.015 A 
HETATM    3  C20 UNL     1       1.273  53.652 -20.507  1.00  0.00     0.023 A 
HETATM    4  C21 UNL     1       0.740  52.605 -19.749  1.00  0.00     0.044 A 
HETATM    5  C22 UNL     1       0.933  52.573 -18.328  1.00  0.00     0.099 C 
HETATM    6  N6  UNL     1       1.089  52.552 -17.179  1.00  0.00    -0.191 NA
HETATM    7  C23 UNL     1       0.024  51.586 -20.384  1.00  0.00     0.023 A 
HETATM    8  C24 UNL     1      -0.161  51.620 -21.770  1.00  0.00     0.015 A 
ENDROOT
BRANCH   1   9
HETATM    9  C17 UNL     1       0.158  52.691 -23.986  1.00  0.00     0.072 A 
HETATM   10  N5  UNL     1       0.987  53.389 -24.782  1.00  0.00    -0.299 N 
HETATM   11  N4  UNL     1       0.498  53.206 -26.018  1.00  0.00    -0.299 N 
ATOM     12  H5  UNL     1       1.804  53.935 -24.507  1.00  0.00     0.187 HD
HETATM   13  C16 UNL     1      -0.598  52.392 -26.069  1.00  0.00     0.065 A 
HETATM   14  H19 UNL     1       0.964  53.664 -26.793  1.00  0.00     0.187 HD
HETATM   15  C15 UNL     1      -1.376  51.949 -27.139  1.00  0.00     0.080 A 
HETATM   16  C25 UNL     1      -0.846  52.026 -24.754  1.00  0.00     0.036 A 
HETATM   17  C14 UNL     1      -2.426  51.107 -26.796  1.00  0.00     0.111 A 
HETATM   18  N7  UNL     1      -2.687  50.714 -25.528  1.00  0.00    -0.351 N 
HETATM   19  C26 UNL     1      -1.911  51.159 -24.505  1.00  0.00     0.105 A 
ATOM     20  H7  UNL     1      -3.467  50.084 -25.339  1.00  0.00     0.166 HD
BRANCH  17  21
HETATM   21  N3  UNL     1      -3.309  50.561 -27.729  1.00  0.00    -0.295 N 
HETATM   22  C13 UNL     1      -3.737  49.265 -27.833  1.00  0.00     0.322 C 
HETATM   23  N2  UNL     1      -4.653  49.128 -28.857  1.00  0.00    -0.337 N 
HETATM   24  O2  UNL     1      -3.377  48.321 -27.142  1.00  0.00    -0.247 OA
HETATM   25  H16 UNL     1      -5.210  49.950 -29.045  1.00  0.00     0.164 HD
HETATM   26  H17 UNL     1      -3.528  51.199 -28.476  1.00  0.00     0.172 HD
BRANCH  23  27
HETATM   27  C12 UNL     1      -5.315  47.847 -29.087  1.00  0.00     0.114 C 
HETATM   28  C11 UNL     1      -5.235  47.465 -30.563  1.00  0.00     0.029 C 
HETATM   29  C10 UNL     1      -5.903  46.112 -30.820  1.00  0.00     0.032 C 
HETATM   30  C9  UNL     1      -6.973  45.752 -29.781  1.00  0.00     0.273 C 
HETATM   31  N1  UNL     1      -7.686  46.955 -29.357  1.00  0.00     0.094 N 
HETATM   32  C27 UNL     1      -6.794  47.862 -28.604  1.00  0.00     0.297 C 
BRANCH  31  33
HETATM   33  C8  UNL     1      -8.901  46.618 -28.592  1.00  0.00     0.317 C 
BRANCH  33  34
HETATM   34  C7  UNL     1      -8.612  45.958 -27.262  1.00  0.00     0.042 A 
HETATM   35  C2  UNL     1      -8.434  46.704 -26.081  1.00  0.00     0.079 A 
HETATM   36  C3  UNL     1      -8.157  46.042 -24.877  1.00  0.00     0.037 A 
HETATM   37  C4  UNL     1      -8.049  44.649 -24.838  1.00  0.00     0.006 A 
HETATM   38  C5  UNL     1      -8.223  43.908 -26.001  1.00  0.00     0.043 A 
HETATM   39  C6  UNL     1      -8.505  44.564 -27.195  1.00  0.00     0.127 A 
HETATM   40  F1  UNL     1      -8.672  43.824 -28.301  1.00  0.00    -0.205 F 
BRANCH  35  41
HETATM   41  O1  UNL     1      -8.581  48.062 -26.196  1.00  0.00    -0.355 OA
HETATM   42  C1  UNL     1      -9.903  48.582 -26.157  1.00  0.00     0.210 C 
ENDBRANCH  35  41
ENDBRANCH  33  34
ENDBRANCH  31  33
ENDBRANCH  23  27
ENDBRANCH  17  21
ENDBRANCH   1   9
TORSDOF 6
ENDMDL
MODEL 7
REMARK minimizedAffinity -9.78106117
REMARK  6 active torsions:
REMARK  status: ('A' for Active; 'I' for Inactive)
REMARK    1  A    between atoms: O1_2  and  C2_3 
REMARK    2  A    between atoms: C7_9  and  C8_10 
REMARK    3  A    between atoms: C8_10  and  N1_11 
REMARK    4  A    between atoms: C12_15  and  N2_16 
REMARK       I    between atoms: N2_16  and  C13_17 
REMARK       I    between atoms: C13_17  and  N3_19 
REMARK    5  A    between atoms: N3_19  and  C14_20 
REMARK    6  A    between atoms: C17_26  and  C18_27 
ROOT
HETATM    1  C18 UNL     1      -0.708  52.390 -25.227  1.00  0.00    -0.007 A 
HETATM    2  C19 UNL     1      -0.143  51.416 -26.063  1.00  0.00     0.015 A 
HETATM    3  C20 UNL     1      -0.960  50.610 -26.865  1.00  0.00     0.023 A 
HETATM    4  C21 UNL     1      -2.349  50.772 -26.844  1.00  0.00     0.044 A 
HETATM    5  C22 UNL     1      -3.183  49.946 -27.667  1.00  0.00     0.099 C 
HETATM    6  N6  UNL     1      -3.856  49.274 -28.332  1.00  0.00    -0.191 NA
HETATM    7  C23 UNL     1      -2.918  51.748 -26.021  1.00  0.00     0.023 A 
HETATM    8  C24 UNL     1      -2.101  52.554 -25.221  1.00  0.00     0.015 A 
ENDROOT
BRANCH   1   9
HETATM    9  C17 UNL     1       0.132  53.242 -24.385  1.00  0.00     0.072 A 
HETATM   10  N5  UNL     1       0.743  54.323 -24.902  1.00  0.00    -0.299 N 
HETATM   11  N4  UNL     1       1.435  54.839 -23.874  1.00  0.00    -0.299 N 
ATOM     12  H5  UNL     1       0.692  54.671 -25.859  1.00  0.00     0.187 HD
HETATM   13  C16 UNL     1       1.278  54.161 -22.699  1.00  0.00     0.065 A 
HETATM   14  H19 UNL     1       1.997  55.667 -24.040  1.00  0.00     0.187 HD
HETATM   15  C15 UNL     1       1.802  54.379 -21.425  1.00  0.00     0.080 A 
HETATM   16  C25 UNL     1       0.421  53.109 -22.992  1.00  0.00     0.036 A 
HETATM   17  C14 UNL     1       1.403  53.464 -20.458  1.00  0.00     0.111 A 
HETATM   18  N7  UNL     1       0.555  52.438 -20.703  1.00  0.00    -0.351 N 
HETATM   19  C26 UNL     1       0.058  52.251 -21.954  1.00  0.00     0.105 A 
ATOM     20  H7  UNL     1       0.289  51.805 -19.948  1.00  0.00     0.166 HD
BRANCH  17  21
HETATM   21  N3  UNL     1       1.819  53.522 -19.127  1.00  0.00    -0.295 N 
HETATM   22  C13 UNL     1       1.433  52.725 -18.084  1.00  0.00     0.322 C 
HETATM   23  N2  UNL     1       2.110  53.063 -16.928  1.00  0.00    -0.337 N 
HETATM   24  O2  UNL     1       0.598  51.832 -18.119  1.00  0.00    -0.247 OA
HETATM   25  H16 UNL     1       3.036  53.441 -17.070  1.00  0.00     0.164 HD
HETATM   26  H17 UNL     1       2.364  54.344 -18.926  1.00  0.00     0.172 HD
BRANCH  23  27
HETATM   27  C12 UNL     1       1.925  52.279 -15.710  1.00  0.00     0.114 C 
HETATM   28  C11 UNL     1       3.277  51.843 -15.149  1.00  0.00     0.029 C 
HETATM   29  C10 UNL     1       3.106  51.040 -13.858  1.00  0.00     0.032 C 
HETATM   30  C9  UNL     1       1.740  50.352 -13.743  1.00  0.00     0.273 C 
HETATM   31  N1  UNL     1       1.295  49.899 -15.059  1.00  0.00     0.094 N 
HETATM   32  C27 UNL     1       1.006  51.046 -15.945  1.00  0.00     0.297 C 
BRANCH  31  33
HETATM   33  C8  UNL     1       0.142  48.984 -14.951  1.00  0.00     0.317 C 
BRANCH  33  34
HETATM   34  C7  UNL     1      -1.024  49.571 -14.189  1.00  0.00     0.042 A 
HETATM   35  C2  UNL     1      -2.009  50.357 -14.819  1.00  0.00     0.079 A 
HETATM   36  C3  UNL     1      -3.063  50.886 -14.062  1.00  0.00     0.037 A 
HETATM   37  C4  UNL     1      -3.143  50.649 -12.687  1.00  0.00     0.006 A 
HETATM   38  C5  UNL     1      -2.174  49.875 -12.060  1.00  0.00     0.043 A 
HETATM   39  C6  UNL     1      -1.131  49.343 -12.811  1.00  0.00     0.127 A 
HETATM   40  F1  UNL     1      -0.211  48.598 -12.182  1.00  0.00    -0.205 F 
BRANCH  35  41
HETATM   41  O1  UNL     1      -1.875  50.521 -16.173  1.00  0.00    -0.355 OA
HETATM   42  C1  UNL     1      -3.062  50.717 -16.929  1.00  0.00     0.210 C 
ENDBRANCH  35  41
ENDBRANCH  33  34
ENDBRANCH  31  33
ENDBRANCH  23  27
ENDBRANCH  17  21
ENDBRANCH   1   9
TORSDOF 6
ENDMDL
MODEL 8
REMARK minimizedAffinity -9.77932262
REMARK  6 active torsions:
REMARK  status: ('A' for Active; 'I' for Inactive)
REMARK    1  A    between atoms: O1_2  and  C2_3 
REMARK    2  A    between atoms: C7_9  and  C8_10 
REMARK    3  A    between atoms: C8_10  and  N1_11 
REMARK    4  A    between atoms: C12_15  and  N2_16 
REMARK       I    between atoms: N2_16  and  C13_17 
REMARK       I    between atoms: C13_17  and  N3_19 
REMARK    5  A    between atoms: N3_19  and  C14_20 
REMARK    6  A    between atoms: C17_26  and  C18_27 
ROOT
HETATM    1  C18 UNL     1      -8.034  46.648 -34.480  1.00  0.00    -0.007 A 
HETATM    2  C19 UNL     1      -8.477  47.344 -35.614  1.00  0.00     0.015 A 
HETATM    3  C20 UNL     1      -9.517  46.832 -36.398  1.00  0.00     0.023 A 
HETATM    4  C21 UNL     1     -10.129  45.622 -36.055  1.00  0.00     0.044 A 
HETATM    5  C22 UNL     1     -11.195  45.100 -36.859  1.00  0.00     0.099 C 
HETATM    6  N6  UNL     1     -12.055  44.679 -37.515  1.00  0.00    -0.191 NA
HETATM    7  C23 UNL     1      -9.700  44.928 -34.920  1.00  0.00     0.023 A 
HETATM    8  C24 UNL     1      -8.661  45.441 -34.136  1.00  0.00     0.015 A 
ENDROOT
BRANCH   1   9
HETATM    9  C17 UNL     1      -6.950  47.171 -33.649  1.00  0.00     0.072 A 
HETATM   10  N5  UNL     1      -5.786  47.550 -34.203  1.00  0.00    -0.299 N 
HETATM   11  N4  UNL     1      -5.032  47.944 -33.165  1.00  0.00    -0.299 N 
ATOM     12  H5  UNL     1      -5.532  47.541 -35.191  1.00  0.00     0.187 HD
HETATM   13  C16 UNL     1      -5.664  47.869 -31.957  1.00  0.00     0.065 A 
HETATM   14  H19 UNL     1      -4.086  48.261 -33.349  1.00  0.00     0.187 HD
HETATM   15  C15 UNL     1      -5.243  48.191 -30.667  1.00  0.00     0.080 A 
HETATM   16  C25 UNL     1      -6.931  47.374 -32.234  1.00  0.00     0.036 A 
HETATM   17  C14 UNL     1      -6.186  47.983 -29.668  1.00  0.00     0.111 A 
HETATM   18  N7  UNL     1      -7.436  47.520 -29.903  1.00  0.00    -0.351 N 
HETATM   19  C26 UNL     1      -7.821  47.216 -31.171  1.00  0.00     0.105 A 
ATOM     20  H7  UNL     1      -8.089  47.399 -29.129  1.00  0.00     0.166 HD
BRANCH  17  21
HETATM   21  N3  UNL     1      -5.949  48.252 -28.319  1.00  0.00    -0.295 N 
HETATM   22  C13 UNL     1      -4.749  48.451 -27.693  1.00  0.00     0.322 C 
HETATM   23  N2  UNL     1      -4.932  48.743 -26.356  1.00  0.00    -0.337 N 
HETATM   24  O2  UNL     1      -3.640  48.378 -28.205  1.00  0.00    -0.247 OA
HETATM   25  H16 UNL     1      -5.796  49.217 -26.137  1.00  0.00     0.164 HD
HETATM   26  H17 UNL     1      -6.773  48.145 -27.751  1.00  0.00     0.172 HD
BRANCH  23  27
HETATM   27  C12 UNL     1      -3.790  49.088 -25.514  1.00  0.00     0.114 C 
HETATM   28  C11 UNL     1      -4.011  48.588 -24.088  1.00  0.00     0.029 C 
HETATM   29  C10 UNL     1      -2.812  48.919 -23.196  1.00  0.00     0.032 C 
HETATM   30  C9  UNL     1      -1.997  50.122 -23.687  1.00  0.00     0.273 C 
HETATM   31  N1  UNL     1      -2.886  51.122 -24.276  1.00  0.00     0.094 N 
HETATM   32  C27 UNL     1      -3.501  50.616 -25.521  1.00  0.00     0.297 C 
BRANCH  31  33
HETATM   33  C8  UNL     1      -2.186  52.403 -24.490  1.00  0.00     0.317 C 
BRANCH  33  34
HETATM   34  C7  UNL     1      -1.009  52.297 -25.433  1.00  0.00     0.042 A 
HETATM   35  C2  UNL     1       0.303  52.083 -24.969  1.00  0.00     0.079 A 
HETATM   36  C3  UNL     1       1.360  52.005 -25.887  1.00  0.00     0.037 A 
HETATM   37  C4  UNL     1       1.125  52.145 -27.258  1.00  0.00     0.006 A 
HETATM   38  C5  UNL     1      -0.168  52.358 -27.721  1.00  0.00     0.043 A 
HETATM   39  C6  UNL     1      -1.218  52.429 -26.812  1.00  0.00     0.127 A 
HETATM   40  F1  UNL     1      -2.456  52.632 -27.286  1.00  0.00    -0.205 F 
BRANCH  35  41
HETATM   41  O1  UNL     1       0.447  51.929 -23.615  1.00  0.00    -0.355 OA
HETATM   42  C1  UNL     1       0.685  53.099 -22.846  1.00  0.00     0.210 C 
ENDBRANCH  35  41
ENDBRANCH  33  34
ENDBRANCH  31  33
ENDBRANCH  23  27
ENDBRANCH  17  21
ENDBRANCH   1   9
TORSDOF 6
ENDMDL
MODEL 9
REMARK minimizedAffinity -9.7752409
REMARK  6 active torsions:
REMARK  status: ('A' for Active; 'I' for Inactive)
REMARK    1  A    between atoms: O1_2  and  C2_3 
REMARK    2  A    between atoms: C7_9  and  C8_10 
REMARK    3  A    between atoms: C8_10  and  N1_11 
REMARK    4  A    between atoms: C12_15  and  N2_16 
REMARK       I    between atoms: N2_16  and  C13_17 
REMARK       I    between atoms: C13_17  and  N3_19 
REMARK    5  A    between atoms: N3_19  and  C14_20 
REMARK    6  A    between atoms: C17_26  and  C18_27 
ROOT
HETATM    1  C18 UNL     1      -8.209  47.015 -34.742  1.00  0.00    -0.007 A 
HETATM    2  C19 UNL     1      -8.299  47.512 -36.050  1.00  0.00     0.015 A 
HETATM    3  C20 UNL     1      -9.382  47.167 -36.866  1.00  0.00     0.023 A 
HETATM    4  C21 UNL     1     -10.389  46.326 -36.383  1.00  0.00     0.044 A 
HETATM    5  C22 UNL     1     -11.498  45.975 -37.221  1.00  0.00     0.099 C 
HETATM    6  N6  UNL     1     -12.393  45.690 -37.903  1.00  0.00    -0.191 NA
HETATM    7  C23 UNL     1     -10.312  45.836 -35.076  1.00  0.00     0.023 A 
HETATM    8  C24 UNL     1      -9.230  46.182 -34.261  1.00  0.00     0.015 A 
ENDROOT
BRANCH   1   9
HETATM    9  C17 UNL     1      -7.085  47.369 -33.875  1.00  0.00     0.072 A 
HETATM   10  N5  UNL     1      -5.851  47.527 -34.386  1.00  0.00    -0.299 N 
HETATM   11  N4  UNL     1      -5.083  47.816 -33.324  1.00  0.00    -0.299 N 
ATOM     12  H5  UNL     1      -5.565  47.446 -35.361  1.00  0.00     0.187 HD
HETATM   13  C16 UNL     1      -5.766  47.885 -32.144  1.00  0.00     0.065 A 
HETATM   14  H19 UNL     1      -4.090  47.961 -33.473  1.00  0.00     0.187 HD
HETATM   15  C15 UNL     1      -5.347  48.168 -30.844  1.00  0.00     0.080 A 
HETATM   16  C25 UNL     1      -7.087  47.606 -32.466  1.00  0.00     0.036 A 
HETATM   17  C14 UNL     1      -6.351  48.153 -29.883  1.00  0.00     0.111 A 
HETATM   18  N7  UNL     1      -7.651  47.904 -30.163  1.00  0.00    -0.351 N 
HETATM   19  C26 UNL     1      -8.032  47.634 -31.439  1.00  0.00     0.105 A 
ATOM     20  H7  UNL     1      -8.346  47.919 -29.416  1.00  0.00     0.166 HD
BRANCH  17  21
HETATM   21  N3  UNL     1      -6.125  48.416 -28.531  1.00  0.00    -0.295 N 
HETATM   22  C13 UNL     1      -4.935  48.410 -27.854  1.00  0.00     0.322 C 
HETATM   23  N2  UNL     1      -5.116  48.773 -26.535  1.00  0.00    -0.337 N 
HETATM   24  O2  UNL     1      -3.839  48.117 -28.311  1.00  0.00    -0.247 OA
HETATM   25  H16 UNL     1      -5.886  49.405 -26.367  1.00  0.00     0.164 HD
HETATM   26  H17 UNL     1      -6.977  48.481 -28.001  1.00  0.00     0.172 HD
BRANCH  23  27
HETATM   27  C12 UNL     1      -3.966  48.927 -25.648  1.00  0.00     0.114 C 
HETATM   28  C11 UNL     1      -4.239  48.258 -24.303  1.00  0.00     0.029 C 
HETATM   29  C10 UNL     1      -3.034  48.388 -23.368  1.00  0.00     0.032 C 
HETATM   30  C9  UNL     1      -2.137  49.590 -23.690  1.00  0.00     0.273 C 
HETATM   31  N1  UNL     1      -2.952  50.715 -24.144  1.00  0.00     0.094 N 
HETATM   32  C27 UNL     1      -3.581  50.421 -25.449  1.00  0.00     0.297 C 
BRANCH  31  33
HETATM   33  C8  UNL     1      -2.169  51.965 -24.181  1.00  0.00     0.317 C 
BRANCH  33  34
HETATM   34  C7  UNL     1      -1.205  52.107 -23.024  1.00  0.00     0.042 A 
HETATM   35  C2  UNL     1       0.166  52.360 -23.221  1.00  0.00     0.079 A 
HETATM   36  C3  UNL     1       1.017  52.472 -22.113  1.00  0.00     0.037 A 
HETATM   37  C4  UNL     1       0.520  52.327 -20.815  1.00  0.00     0.006 A 
HETATM   38  C5  UNL     1      -0.832  52.077 -20.615  1.00  0.00     0.043 A 
HETATM   39  C6  UNL     1      -1.679  51.973 -21.713  1.00  0.00     0.127 A 
HETATM   40  F1  UNL     1      -2.980  51.734 -21.491  1.00  0.00    -0.205 F 
BRANCH  35  41
HETATM   41  O1  UNL     1       0.571  52.515 -24.522  1.00  0.00    -0.355 OA
HETATM   42  C1  UNL     1       0.121  53.672 -25.213  1.00  0.00     0.210 C 
ENDBRANCH  35  41
ENDBRANCH  33  34
ENDBRANCH  31  33
ENDBRANCH  23  27
ENDBRANCH  17  21
ENDBRANCH   1   9
TORSDOF 6
ENDMDL
