MODEL 1
REMARK minimizedAffinity -9.0685997
REMARK  4 active torsions:
REMARK  status: ('A' for Active; 'I' for Inactive)
REMARK    1  A    between atoms: C4_5  and  C5_6 
REMARK    2  A    between atoms: C5_6  and  N2_7 
REMARK       I    between atoms: N2_7  and  C6_8 
REMARK       I    between atoms: C6_8  and  N3_10 
REMARK    3  A    between atoms: N3_10  and  C7_11 
REMARK    4  A    between atoms: C10_17  and  C11_18 
ROOT
HETATM    1  C7  UNL     1      -2.326  51.130 -26.737  1.00  0.00     0.111 A 
HETATM    2  C8  UNL     1      -1.305  51.986 -27.132  1.00  0.00     0.080 A 
HETATM    3  C9  UNL     1      -0.510  52.480 -26.097  1.00  0.00     0.065 A 
HETATM    4  N4  UNL     1       0.571  53.312 -26.099  1.00  0.00    -0.299 N 
HETATM    5  N5  UNL     1       1.082  53.551 -24.881  1.00  0.00    -0.299 N 
ATOM      6  H5  UNL     1       1.893  54.123 -24.645  1.00  0.00     0.187 HD
HETATM    7  C10 UNL     1       0.285  52.867 -24.042  1.00  0.00     0.072 A 
HETATM    8  C17 UNL     1      -0.724  52.158 -24.764  1.00  0.00     0.036 A 
HETATM    9  C18 UNL     1      -1.769  51.284 -24.460  1.00  0.00     0.105 A 
HETATM   10  N6  UNL     1      -2.559  50.788 -25.448  1.00  0.00    -0.351 N 
ATOM     11  H6  UNL     1      -3.329  50.160 -25.219  1.00  0.00     0.166 HD
HETATM   12  H14 UNL     1       1.017  53.745 -26.900  1.00  0.00     0.187 HD
ENDROOT
BRANCH   1  13
HETATM   13  N3  UNL     1      -3.225  50.543 -27.627  1.00  0.00    -0.295 N 
HETATM   14  C6  UNL     1      -3.811  49.308 -27.554  1.00  0.00     0.321 C 
HETATM   15  N2  UNL     1      -4.616  49.079 -28.655  1.00  0.00    -0.342 N 
HETATM   16  O1  UNL     1      -3.679  48.491 -26.653  1.00  0.00    -0.247 OA
HETATM   17  H11 UNL     1      -4.294  49.533 -29.498  1.00  0.00     0.164 HD
HETATM   18  H12 UNL     1      -3.554  51.190 -28.326  1.00  0.00     0.172 HD
BRANCH  15  19
HETATM   19  C5  UNL     1      -5.273  47.793 -28.807  1.00  0.00     0.130 C 
BRANCH  19  20
HETATM   20  C4  UNL     1      -5.526  47.392 -30.259  1.00  0.00     0.033 C 
HETATM   21  C3  UNL     1      -6.511  46.235 -30.442  1.00  0.00     0.038 C 
HETATM   22  C2  UNL     1      -7.551  46.752 -31.428  1.00  0.00     0.272 C 
HETATM   23  N1  UNL     1      -6.923  47.874 -32.142  1.00  0.00     0.084 N 
HETATM   24  C1  UNL     1      -6.139  47.408 -33.286  1.00  0.00     0.309 C 
HETATM   25  C19 UNL     1      -6.077  48.523 -31.129  1.00  0.00     0.278 C 
ENDBRANCH  19  20
ENDBRANCH  15  19
ENDBRANCH   1  13
BRANCH   7  26
HETATM   26  C11 UNL     1       0.516  52.902 -22.598  1.00  0.00    -0.007 A 
HETATM   27  C12 UNL     1       0.063  51.846 -21.790  1.00  0.00     0.017 A 
HETATM   28  C13 UNL     1       0.273  51.868 -20.410  1.00  0.00     0.043 A 
HETATM   29  C14 UNL     1       0.943  52.942 -19.837  1.00  0.00     0.116 A 
HETATM   30  F1  UNL     1       1.147  52.964 -18.515  1.00  0.00    -0.206 F 
HETATM   31  C15 UNL     1       1.413  53.991 -20.620  1.00  0.00     0.043 A 
HETATM   32  C16 UNL     1       1.203  53.971 -22.001  1.00  0.00     0.017 A 
ENDBRANCH   7  26
TORSDOF 4
ENDMDL
MODEL 2
REMARK minimizedAffinity -8.98457909
REMARK  4 active torsions:
REMARK  status: ('A' for Active; 'I' for Inactive)
REMARK    1  A    between atoms: C4_5  and  C5_6 
REMARK    2  A    between atoms: C5_6  and  N2_7 
REMARK       I    between atoms: N2_7  and  C6_8 
REMARK       I    between atoms: C6_8  and  N3_10 
REMARK    3  A    between atoms: N3_10  and  C7_11 
REMARK    4  A    between atoms: C10_17  and  C11_18 
ROOT
HETATM    1  C7  UNL     1       1.185  53.288 -20.236  1.00  0.00     0.111 A 
HETATM    2  C8  UNL     1       1.661  54.234 -21.135  1.00  0.00     0.080 A 
HETATM    3  C9  UNL     1       1.249  54.059 -22.457  1.00  0.00     0.065 A 
HETATM    4  N4  UNL     1       1.494  54.780 -23.589  1.00  0.00    -0.299 N 
HETATM    5  N5  UNL     1       0.900  54.293 -24.689  1.00  0.00    -0.299 N 
ATOM      6  H5  UNL     1       0.929  54.673 -25.635  1.00  0.00     0.187 HD
HETATM    7  C10 UNL     1       0.260  53.190 -24.264  1.00  0.00     0.072 A 
HETATM    8  C17 UNL     1       0.433  53.011 -22.858  1.00  0.00     0.036 A 
HETATM    9  C18 UNL     1      -0.005  52.111 -21.884  1.00  0.00     0.105 A 
HETATM   10  N6  UNL     1       0.383  52.257 -20.590  1.00  0.00    -0.351 N 
ATOM     11  H6  UNL     1       0.069  51.590 -19.886  1.00  0.00     0.166 HD
HETATM   12  H14 UNL     1       2.052  55.622 -23.677  1.00  0.00     0.187 HD
ENDROOT
BRANCH   1  13
HETATM   13  N3  UNL     1       1.494  53.295 -18.877  1.00  0.00    -0.295 N 
HETATM   14  C6  UNL     1       0.975  52.513 -17.881  1.00  0.00     0.321 C 
HETATM   15  N2  UNL     1       1.514  52.852 -16.655  1.00  0.00    -0.342 N 
HETATM   16  O1  UNL     1       0.151  51.617 -18.013  1.00  0.00    -0.247 OA
HETATM   17  H11 UNL     1       1.760  53.828 -16.572  1.00  0.00     0.164 HD
HETATM   18  H12 UNL     1       2.293  53.872 -18.666  1.00  0.00     0.172 HD
BRANCH  15  19
HETATM   19  C5  UNL     1       1.038  52.188 -15.454  1.00  0.00     0.130 C 
BRANCH  19  20
HETATM   20  C4  UNL     1       1.899  51.003 -15.015  1.00  0.00     0.033 C 
HETATM   21  C3  UNL     1       3.285  51.380 -14.489  1.00  0.00     0.038 C 
HETATM   22  C2  UNL     1       3.389  50.702 -13.129  1.00  0.00     0.272 C 
HETATM   23  N1  UNL     1       2.396  49.618 -13.129  1.00  0.00     0.084 N 
HETATM   24  C1  UNL     1       2.937  48.396 -13.726  1.00  0.00     0.309 C 
HETATM   25  C19 UNL     1       1.271  50.155 -13.909  1.00  0.00     0.278 C 
ENDBRANCH  19  20
ENDBRANCH  15  19
ENDBRANCH   1  13
BRANCH   7  26
HETATM   26  C11 UNL     1      -0.498  52.360 -25.201  1.00  0.00    -0.007 A 
HETATM   27  C12 UNL     1      -1.882  52.554 -25.348  1.00  0.00     0.017 A 
HETATM   28  C13 UNL     1      -2.618  51.767 -26.235  1.00  0.00     0.043 A 
HETATM   29  C14 UNL     1      -1.972  50.790 -26.982  1.00  0.00     0.116 A 
HETATM   30  F1  UNL     1      -2.676  50.035 -27.834  1.00  0.00    -0.206 F 
HETATM   31  C15 UNL     1      -0.601  50.590 -26.862  1.00  0.00     0.043 A 
HETATM   32  C16 UNL     1       0.138  51.376 -25.975  1.00  0.00     0.017 A 
ENDBRANCH   7  26
TORSDOF 4
ENDMDL
MODEL 3
REMARK minimizedAffinity -8.94864655
REMARK  4 active torsions:
REMARK  status: ('A' for Active; 'I' for Inactive)
REMARK    1  A    between atoms: C4_5  and  C5_6 
REMARK    2  A    between atoms: C5_6  and  N2_7 
REMARK       I    between atoms: N2_7  and  C6_8 
REMARK       I    between atoms: C6_8  and  N3_10 
REMARK    3  A    between atoms: N3_10  and  C7_11 
REMARK    4  A    between atoms: C10_17  and  C11_18 
ROOT
HETATM    1  C7  UNL     1       0.290  52.460 -19.817  1.00  0.00     0.111 A 
HETATM    2  C8  UNL     1       0.936  53.645 -20.148  1.00  0.00     0.080 A 
HETATM    3  C9  UNL     1       1.091  53.877 -21.515  1.00  0.00     0.065 A 
HETATM    4  N4  UNL     1       1.647  54.914 -22.205  1.00  0.00    -0.299 N 
HETATM    5  N5  UNL     1       1.595  54.777 -23.538  1.00  0.00    -0.299 N 
ATOM      6  H5  UNL     1       1.930  55.430 -24.248  1.00  0.00     0.187 HD
HETATM    7  C10 UNL     1       1.003  53.585 -23.731  1.00  0.00     0.072 A 
HETATM    8  C17 UNL     1       0.647  52.987 -22.483  1.00  0.00     0.036 A 
HETATM    9  C18 UNL     1       0.002  51.824 -22.059  1.00  0.00     0.105 A 
HETATM   10  N6  UNL     1      -0.161  51.573 -20.734  1.00  0.00    -0.351 N 
ATOM     11  H6  UNL     1      -0.623  50.716 -20.430  1.00  0.00     0.166 HD
HETATM   12  H14 UNL     1       2.071  55.753 -21.825  1.00  0.00     0.187 HD
ENDROOT
BRANCH   1  13
HETATM   13  N3  UNL     1       0.050  52.056 -18.505  1.00  0.00    -0.295 N 
HETATM   14  C6  UNL     1       0.892  52.118 -17.427  1.00  0.00     0.321 C 
HETATM   15  N2  UNL     1       0.294  51.580 -16.303  1.00  0.00    -0.342 N 
HETATM   16  O1  UNL     1       2.023  52.586 -17.411  1.00  0.00    -0.247 OA
HETATM   17  H11 UNL     1      -0.357  50.834 -16.502  1.00  0.00     0.164 HD
HETATM   18  H12 UNL     1      -0.915  51.814 -18.346  1.00  0.00     0.172 HD
BRANCH  15  19
HETATM   19  C5  UNL     1       1.051  51.482 -15.066  1.00  0.00     0.130 C 
BRANCH  19  20
HETATM   20  C4  UNL     1       0.456  52.282 -13.908  1.00  0.00     0.033 C 
HETATM   21  C3  UNL     1      -0.977  51.898 -13.533  1.00  0.00     0.038 C 
HETATM   22  C2  UNL     1      -0.934  51.623 -12.036  1.00  0.00     0.272 C 
HETATM   23  N1  UNL     1       0.263  52.306 -11.524  1.00  0.00     0.084 N 
HETATM   24  C1  UNL     1      -0.014  53.708 -11.210  1.00  0.00     0.309 C 
HETATM   25  C19 UNL     1       1.250  52.174 -12.605  1.00  0.00     0.278 C 
ENDBRANCH  19  20
ENDBRANCH  15  19
ENDBRANCH   1  13
BRANCH   7  26
HETATM   26  C11 UNL     1       0.787  53.069 -25.083  1.00  0.00    -0.007 A 
HETATM   27  C12 UNL     1       1.379  51.856 -25.473  1.00  0.00     0.017 A 
HETATM   28  C13 UNL     1       1.186  51.354 -26.761  1.00  0.00     0.043 A 
HETATM   29  C14 UNL     1       0.395  52.060 -27.658  1.00  0.00     0.116 A 
HETATM   30  F1  UNL     1       0.207  51.579 -28.893  1.00  0.00    -0.206 F 
HETATM   31  C15 UNL     1      -0.212  53.256 -27.290  1.00  0.00     0.043 A 
HETATM   32  C16 UNL     1      -0.019  53.760 -26.001  1.00  0.00     0.017 A 
ENDBRANCH   7  26
TORSDOF 4
ENDMDL
MODEL 4
REMARK minimizedAffinity -8.92052841
REMARK  4 active torsions:
REMARK  status: ('A' for Active; 'I' for Inactive)
REMARK    1  A    between atoms: C4_5  and  C5_6 
REMARK    2  A    between atoms: C5_6  and  N2_7 
REMARK       I    between atoms: N2_7  and  C6_8 
REMARK       I    between atoms: C6_8  and  N3_10 
REMARK    3  A    between atoms: N3_10  and  C7_11 
REMARK    4  A    between atoms: C10_17  and  C11_18 
ROOT
HETATM    1  C7  UNL     1      -2.340  51.053 -26.838  1.00  0.00     0.111 A 
HETATM    2  C8  UNL     1      -1.305  51.881 -27.255  1.00  0.00     0.080 A 
HETATM    3  C9  UNL     1      -0.499  52.386 -26.235  1.00  0.00     0.065 A 
HETATM    4  N4  UNL     1       0.597  53.199 -26.259  1.00  0.00    -0.299 N 
HETATM    5  N5  UNL     1       1.115  53.458 -25.049  1.00  0.00    -0.299 N 
ATOM      6  H5  UNL     1       1.937  54.022 -24.828  1.00  0.00     0.187 HD
HETATM    7  C10 UNL     1       0.309  52.808 -24.192  1.00  0.00     0.072 A 
HETATM    8  C17 UNL     1      -0.714  52.099 -24.894  1.00  0.00     0.036 A 
HETATM    9  C18 UNL     1      -1.773  51.251 -24.567  1.00  0.00     0.105 A 
HETATM   10  N6  UNL     1      -2.575  50.746 -25.541  1.00  0.00    -0.351 N 
ATOM     11  H6  UNL     1      -3.354  50.137 -25.294  1.00  0.00     0.166 HD
HETATM   12  H14 UNL     1       1.048  53.605 -27.071  1.00  0.00     0.187 HD
ENDROOT
BRANCH   1  13
HETATM   13  N3  UNL     1      -3.251  50.461 -27.711  1.00  0.00    -0.295 N 
HETATM   14  C6  UNL     1      -3.879  49.250 -27.594  1.00  0.00     0.321 C 
HETATM   15  N2  UNL     1      -4.682  49.004 -28.692  1.00  0.00    -0.342 N 
HETATM   16  O1  UNL     1      -3.781  48.466 -26.660  1.00  0.00    -0.247 OA
HETATM   17  H11 UNL     1      -4.340  49.412 -29.550  1.00  0.00     0.164 HD
HETATM   18  H12 UNL     1      -3.553  51.090 -28.438  1.00  0.00     0.172 HD
BRANCH  15  19
HETATM   19  C5  UNL     1      -5.381  47.735 -28.798  1.00  0.00     0.130 C 
BRANCH  19  20
HETATM   20  C4  UNL     1      -6.692  47.810 -29.580  1.00  0.00     0.033 C 
HETATM   21  C3  UNL     1      -7.070  46.525 -30.320  1.00  0.00     0.038 C 
HETATM   22  C2  UNL     1      -8.492  46.214 -29.871  1.00  0.00     0.272 C 
HETATM   23  N1  UNL     1      -9.050  47.475 -29.361  1.00  0.00     0.084 N 
HETATM   24  C1  UNL     1      -9.620  48.283 -30.440  1.00  0.00     0.309 C 
HETATM   25  C19 UNL     1      -7.911  48.145 -28.719  1.00  0.00     0.278 C 
ENDBRANCH  19  20
ENDBRANCH  15  19
ENDBRANCH   1  13
BRANCH   7  26
HETATM   26  C11 UNL     1       0.545  52.873 -22.750  1.00  0.00    -0.007 A 
HETATM   27  C12 UNL     1       0.129  51.817 -21.923  1.00  0.00     0.017 A 
HETATM   28  C13 UNL     1       0.344  51.867 -20.544  1.00  0.00     0.043 A 
HETATM   29  C14 UNL     1       0.982  52.970 -19.992  1.00  0.00     0.116 A 
HETATM   30  F1  UNL     1       1.191  53.020 -18.671  1.00  0.00    -0.206 F 
HETATM   31  C15 UNL     1       1.415  54.021 -20.793  1.00  0.00     0.043 A 
HETATM   32  C16 UNL     1       1.200  53.973 -22.172  1.00  0.00     0.017 A 
ENDBRANCH   7  26
TORSDOF 4
ENDMDL
MODEL 5
REMARK minimizedAffinity -8.85669613
REMARK  4 active torsions:
REMARK  status: ('A' for Active; 'I' for Inactive)
REMARK    1  A    between atoms: C4_5  and  C5_6 
REMARK    2  A    between atoms: C5_6  and  N2_7 
REMARK       I    between atoms: N2_7  and  C6_8 
REMARK       I    between atoms: C6_8  and  N3_10 
REMARK    3  A    between atoms: N3_10  and  C7_11 
REMARK    4  A    between atoms: C10_17  and  C11_18 
ROOT
HETATM    1  C7  UNL     1       0.436  52.568 -19.774  1.00  0.00     0.111 A 
HETATM    2  C8  UNL     1       1.055  53.753 -20.154  1.00  0.00     0.080 A 
HETATM    3  C9  UNL     1       1.166  53.951 -21.530  1.00  0.00     0.065 A 
HETATM    4  N4  UNL     1       1.686  54.978 -22.262  1.00  0.00    -0.299 N 
HETATM    5  N5  UNL     1       1.596  54.806 -23.590  1.00  0.00    -0.299 N 
ATOM      6  H5  UNL     1       1.900  55.445 -24.325  1.00  0.00     0.187 HD
HETATM    7  C10 UNL     1       1.016  53.602 -23.734  1.00  0.00     0.072 A 
HETATM    8  C17 UNL     1       0.706  53.031 -22.462  1.00  0.00     0.036 A 
HETATM    9  C18 UNL     1       0.090  51.871 -21.990  1.00  0.00     0.105 A 
HETATM   10  N6  UNL     1      -0.029  51.651 -20.655  1.00  0.00    -0.351 N 
ATOM     11  H6  UNL     1      -0.470  50.796 -20.316  1.00  0.00     0.166 HD
HETATM   12  H14 UNL     1       2.109  55.832 -21.916  1.00  0.00     0.187 HD
ENDROOT
BRANCH   1  13
HETATM   13  N3  UNL     1       0.241  52.194 -18.445  1.00  0.00    -0.295 N 
HETATM   14  C6  UNL     1       1.094  52.343 -17.384  1.00  0.00     0.321 C 
HETATM   15  N2  UNL     1       0.547  51.808 -16.233  1.00  0.00    -0.342 N 
HETATM   16  O1  UNL     1       2.193  52.880 -17.403  1.00  0.00    -0.247 OA
HETATM   17  H11 UNL     1      -0.059  51.017 -16.397  1.00  0.00     0.164 HD
HETATM   18  H12 UNL     1      -0.705  51.898 -18.262  1.00  0.00     0.172 HD
BRANCH  15  19
HETATM   19  C5  UNL     1       1.326  51.799 -15.007  1.00  0.00     0.130 C 
BRANCH  19  20
HETATM   20  C4  UNL     1       2.066  50.486 -14.751  1.00  0.00     0.033 C 
HETATM   21  C3  UNL     1       3.514  50.647 -14.285  1.00  0.00     0.038 C 
HETATM   22  C2  UNL     1       3.614  49.819 -13.010  1.00  0.00     0.272 C 
HETATM   23  N1  UNL     1       2.502  48.858 -13.053  1.00  0.00     0.084 N 
HETATM   24  C1  UNL     1       2.862  47.656 -13.806  1.00  0.00     0.309 C 
HETATM   25  C19 UNL     1       1.406  49.597 -13.696  1.00  0.00     0.278 C 
ENDBRANCH  19  20
ENDBRANCH  15  19
ENDBRANCH   1  13
BRANCH   7  26
HETATM   26  C11 UNL     1       0.768  53.049 -25.066  1.00  0.00    -0.007 A 
HETATM   27  C12 UNL     1       1.336  51.817 -25.430  1.00  0.00     0.017 A 
HETATM   28  C13 UNL     1       1.111  51.279 -26.698  1.00  0.00     0.043 A 
HETATM   29  C14 UNL     1       0.313  51.969 -27.602  1.00  0.00     0.116 A 
HETATM   30  F1  UNL     1       0.095  51.454 -28.818  1.00  0.00    -0.206 F 
HETATM   31  C15 UNL     1      -0.270  53.183 -27.259  1.00  0.00     0.043 A 
HETATM   32  C16 UNL     1      -0.046  53.723 -25.990  1.00  0.00     0.017 A 
ENDBRANCH   7  26
TORSDOF 4
ENDMDL
MODEL 6
REMARK minimizedAffinity -8.58020401
REMARK  4 active torsions:
REMARK  status: ('A' for Active; 'I' for Inactive)
REMARK    1  A    between atoms: C4_5  and  C5_6 
REMARK    2  A    between atoms: C5_6  and  N2_7 
REMARK       I    between atoms: N2_7  and  C6_8 
REMARK       I    between atoms: C6_8  and  N3_10 
REMARK    3  A    between atoms: N3_10  and  C7_11 
REMARK    4  A    between atoms: C10_17  and  C11_18 
ROOT
HETATM    1  C7  UNL     1      -3.973  49.135 -25.217  1.00  0.00     0.111 A 
HETATM    2  C8  UNL     1      -3.632  48.392 -24.093  1.00  0.00     0.080 A 
HETATM    3  C9  UNL     1      -2.699  48.990 -23.246  1.00  0.00     0.065 A 
HETATM    4  N4  UNL     1      -2.147  48.582 -22.067  1.00  0.00    -0.299 N 
HETATM    5  N5  UNL     1      -1.279  49.455 -21.535  1.00  0.00    -0.299 N 
ATOM      6  H5  UNL     1      -0.764  49.370 -20.658  1.00  0.00     0.187 HD
HETATM    7  C10 UNL     1      -1.240  50.469 -22.417  1.00  0.00     0.072 A 
HETATM    8  C17 UNL     1      -2.135  50.232 -23.505  1.00  0.00     0.036 A 
HETATM    9  C18 UNL     1      -2.543  50.911 -24.654  1.00  0.00     0.105 A 
HETATM   10  N6  UNL     1      -3.449  50.351 -25.498  1.00  0.00    -0.351 N 
ATOM     11  H6  UNL     1      -3.734  50.847 -26.342  1.00  0.00     0.166 HD
HETATM   12  H14 UNL     1      -2.328  47.719 -21.566  1.00  0.00     0.187 HD
ENDROOT
BRANCH   1  13
HETATM   13  N3  UNL     1      -4.882  48.699 -26.180  1.00  0.00    -0.295 N 
HETATM   14  C6  UNL     1      -4.641  48.338 -27.479  1.00  0.00     0.321 C 
HETATM   15  N2  UNL     1      -5.815  48.000 -28.123  1.00  0.00    -0.342 N 
HETATM   16  O1  UNL     1      -3.550  48.295 -28.032  1.00  0.00    -0.247 OA
HETATM   17  H11 UNL     1      -6.625  48.505 -27.791  1.00  0.00     0.164 HD
HETATM   18  H12 UNL     1      -5.796  48.520 -25.795  1.00  0.00     0.172 HD
BRANCH  15  19
HETATM   19  C5  UNL     1      -5.785  47.658 -29.534  1.00  0.00     0.130 C 
BRANCH  19  20
HETATM   20  C4  UNL     1      -7.168  47.537 -30.175  1.00  0.00     0.033 C 
HETATM   21  C3  UNL     1      -8.216  48.507 -29.625  1.00  0.00     0.038 C 
HETATM   22  C2  UNL     1      -8.786  49.209 -30.851  1.00  0.00     0.272 C 
HETATM   23  N1  UNL     1      -8.487  48.343 -32.000  1.00  0.00     0.084 N 
HETATM   24  C1  UNL     1      -9.511  47.311 -32.174  1.00  0.00     0.309 C 
HETATM   25  C19 UNL     1      -7.174  47.762 -31.687  1.00  0.00     0.278 C 
ENDBRANCH  19  20
ENDBRANCH  15  19
ENDBRANCH   1  13
BRANCH   7  26
HETATM   26  C11 UNL     1      -0.371  51.624 -22.188  1.00  0.00    -0.007 A 
HETATM   27  C12 UNL     1       0.099  52.374 -23.278  1.00  0.00     0.017 A 
HETATM   28  C13 UNL     1       0.933  53.475 -23.076  1.00  0.00     0.043 A 
HETATM   29  C14 UNL     1       1.293  53.832 -21.782  1.00  0.00     0.116 A 
HETATM   30  F1  UNL     1       2.091  54.888 -21.585  1.00  0.00    -0.206 F 
HETATM   31  C15 UNL     1       0.829  53.111 -20.687  1.00  0.00     0.043 A 
HETATM   32  C16 UNL     1      -0.005  52.008 -20.888  1.00  0.00     0.017 A 
ENDBRANCH   7  26
TORSDOF 4
ENDMDL
MODEL 7
REMARK minimizedAffinity -8.5757885
REMARK  4 active torsions:
REMARK  status: ('A' for Active; 'I' for Inactive)
REMARK    1  A    between atoms: C4_5  and  C5_6 
REMARK    2  A    between atoms: C5_6  and  N2_7 
REMARK       I    between atoms: N2_7  and  C6_8 
REMARK       I    between atoms: C6_8  and  N3_10 
REMARK    3  A    between atoms: N3_10  and  C7_11 
REMARK    4  A    between atoms: C10_17  and  C11_18 
ROOT
HETATM    1  C7  UNL     1       0.295  52.618 -19.796  1.00  0.00     0.111 A 
HETATM    2  C8  UNL     1       0.980  53.770 -20.164  1.00  0.00     0.080 A 
HETATM    3  C9  UNL     1       1.128  53.960 -21.538  1.00  0.00     0.065 A 
HETATM    4  N4  UNL     1       1.713  54.958 -22.261  1.00  0.00    -0.299 N 
HETATM    5  N5  UNL     1       1.642  54.788 -23.590  1.00  0.00    -0.299 N 
ATOM      6  H5  UNL     1       1.992  55.410 -24.319  1.00  0.00     0.187 HD
HETATM    7  C10 UNL     1       1.004  53.615 -23.745  1.00  0.00     0.072 A 
HETATM    8  C17 UNL     1       0.641  53.062 -22.478  1.00  0.00     0.036 A 
HETATM    9  C18 UNL     1      -0.042  51.936 -22.018  1.00  0.00     0.105 A 
HETATM   10  N6  UNL     1      -0.199  51.725 -20.685  1.00  0.00    -0.351 N 
ATOM     11  H6  UNL     1      -0.689  50.894 -20.354  1.00  0.00     0.166 HD
HETATM   12  H14 UNL     1       2.173  55.789 -21.907  1.00  0.00     0.187 HD
ENDROOT
BRANCH   1  13
HETATM   13  N3  UNL     1       0.055  52.257 -18.471  1.00  0.00    -0.295 N 
HETATM   14  C6  UNL     1      -0.178  51.010 -17.957  1.00  0.00     0.321 C 
HETATM   15  N2  UNL     1      -0.410  51.073 -16.596  1.00  0.00    -0.342 N 
HETATM   16  O1  UNL     1      -0.181  49.955 -18.578  1.00  0.00    -0.247 OA
HETATM   17  H11 UNL     1      -0.854  51.928 -16.295  1.00  0.00     0.164 HD
HETATM   18  H12 UNL     1       0.208  53.019 -17.829  1.00  0.00     0.172 HD
BRANCH  15  19
HETATM   19  C5  UNL     1      -0.753  49.861 -15.871  1.00  0.00     0.130 C 
BRANCH  19  20
HETATM   20  C4  UNL     1      -1.199  50.105 -14.429  1.00  0.00     0.033 C 
HETATM   21  C3  UNL     1      -0.976  51.531 -13.922  1.00  0.00     0.038 C 
HETATM   22  C2  UNL     1      -2.330  51.975 -13.383  1.00  0.00     0.272 C 
HETATM   23  N1  UNL     1      -3.092  50.746 -13.114  1.00  0.00     0.084 N 
HETATM   24  C1  UNL     1      -2.792  50.210 -11.786  1.00  0.00     0.309 C 
HETATM   25  C19 UNL     1      -2.681  49.822 -14.181  1.00  0.00     0.278 C 
ENDBRANCH  19  20
ENDBRANCH  15  19
ENDBRANCH   1  13
BRANCH   7  26
HETATM   26  C11 UNL     1       0.755  53.073 -25.081  1.00  0.00    -0.007 A 
HETATM   27  C12 UNL     1      -0.002  53.810 -26.006  1.00  0.00     0.017 A 
HETATM   28  C13 UNL     1      -0.253  53.304 -27.282  1.00  0.00     0.043 A 
HETATM   29  C14 UNL     1       0.260  52.062 -27.638  1.00  0.00     0.116 A 
HETATM   30  F1  UNL     1       0.023  51.575 -28.862  1.00  0.00    -0.206 F 
HETATM   31  C15 UNL     1       1.023  51.321 -26.743  1.00  0.00     0.043 A 
HETATM   32  C16 UNL     1       1.274  51.826 -25.464  1.00  0.00     0.017 A 
ENDBRANCH   7  26
TORSDOF 4
ENDMDL
MODEL 8
REMARK minimizedAffinity -8.55205536
REMARK  4 active torsions:
REMARK  status: ('A' for Active; 'I' for Inactive)
REMARK    1  A    between atoms: C4_5  and  C5_6 
REMARK    2  A    between atoms: C5_6  and  N2_7 
REMARK       I    between atoms: N2_7  and  C6_8 
REMARK       I    between atoms: C6_8  and  N3_10 
REMARK    3  A    between atoms: N3_10  and  C7_11 
REMARK    4  A    between atoms: C10_17  and  C11_18 
ROOT
HETATM    1  C7  UNL     1       0.609  52.587 -19.629  1.00  0.00     0.111 A 
HETATM    2  C8  UNL     1      -0.509  51.798 -19.873  1.00  0.00     0.080 A 
HETATM    3  C9  UNL     1      -0.820  51.607 -21.220  1.00  0.00     0.065 A 
HETATM    4  N4  UNL     1      -1.810  50.897 -21.834  1.00  0.00    -0.299 N 
HETATM    5  N5  UNL     1      -1.771  50.948 -23.174  1.00  0.00    -0.299 N 
ATOM      6  H5  UNL     1      -2.395  50.484 -23.835  1.00  0.00     0.187 HD
HETATM    7  C10 UNL     1      -0.726  51.746 -23.450  1.00  0.00     0.072 A 
HETATM    8  C17 UNL     1      -0.080  52.172 -22.250  1.00  0.00     0.036 A 
HETATM    9  C18 UNL     1       1.033  52.945 -21.911  1.00  0.00     0.105 A 
HETATM   10  N6  UNL     1       1.357  53.147 -20.608  1.00  0.00    -0.351 N 
ATOM     11  H6  UNL     1       2.164  53.722 -20.366  1.00  0.00     0.166 HD
HETATM   12  H14 UNL     1      -2.540  50.348 -21.394  1.00  0.00     0.187 HD
ENDROOT
BRANCH   1  13
HETATM   13  N3  UNL     1       1.069  52.892 -18.349  1.00  0.00    -0.295 N 
HETATM   14  C6  UNL     1       0.926  52.167 -17.196  1.00  0.00     0.321 C 
HETATM   15  N2  UNL     1       1.492  52.829 -16.124  1.00  0.00    -0.342 N 
HETATM   16  O1  UNL     1       0.387  51.074 -17.086  1.00  0.00    -0.247 OA
HETATM   17  H11 UNL     1       1.454  53.836 -16.197  1.00  0.00     0.164 HD
HETATM   18  H12 UNL     1       1.687  53.688 -18.341  1.00  0.00     0.172 HD
BRANCH  15  19
HETATM   19  C5  UNL     1       1.382  52.261 -14.792  1.00  0.00     0.130 C 
BRANCH  19  20
HETATM   20  C4  UNL     1       2.108  50.926 -14.623  1.00  0.00     0.033 C 
HETATM   21  C3  UNL     1       3.610  51.043 -14.355  1.00  0.00     0.038 C 
HETATM   22  C2  UNL     1       3.853  50.219 -13.097  1.00  0.00     0.272 C 
HETATM   23  N1  UNL     1       2.715  49.294 -12.982  1.00  0.00     0.084 N 
HETATM   24  C1  UNL     1       2.933  48.077 -13.765  1.00  0.00     0.309 C 
HETATM   25  C19 UNL     1       1.567  50.065 -13.481  1.00  0.00     0.278 C 
ENDBRANCH  19  20
ENDBRANCH  15  19
ENDBRANCH   1  13
BRANCH   7  26
HETATM   26  C11 UNL     1      -0.375  52.063 -24.835  1.00  0.00    -0.007 A 
HETATM   27  C12 UNL     1      -0.177  51.026 -25.762  1.00  0.00     0.017 A 
HETATM   28  C13 UNL     1       0.163  51.312 -27.085  1.00  0.00     0.043 A 
HETATM   29  C14 UNL     1       0.298  52.636 -27.485  1.00  0.00     0.116 A 
HETATM   30  F1  UNL     1       0.623  52.913 -28.754  1.00  0.00    -0.206 F 
HETATM   31  C15 UNL     1       0.094  53.678 -26.588  1.00  0.00     0.043 A 
HETATM   32  C16 UNL     1      -0.246  53.393 -25.263  1.00  0.00     0.017 A 
ENDBRANCH   7  26
TORSDOF 4
ENDMDL
MODEL 9
REMARK minimizedAffinity -8.48076439
REMARK  4 active torsions:
REMARK  status: ('A' for Active; 'I' for Inactive)
REMARK    1  A    between atoms: C4_5  and  C5_6 
REMARK    2  A    between atoms: C5_6  and  N2_7 
REMARK       I    between atoms: N2_7  and  C6_8 
REMARK       I    between atoms: C6_8  and  N3_10 
REMARK    3  A    between atoms: N3_10  and  C7_11 
REMARK    4  A    between atoms: C10_17  and  C11_18 
ROOT
HETATM    1  C7  UNL     1       0.690  52.703 -19.318  1.00  0.00     0.111 A 
HETATM    2  C8  UNL     1       1.174  53.428 -20.401  1.00  0.00     0.080 A 
HETATM    3  C9  UNL     1       0.713  53.010 -21.649  1.00  0.00     0.065 A 
HETATM    4  N4  UNL     1       0.949  53.478 -22.909  1.00  0.00    -0.299 N 
HETATM    5  N5  UNL     1       0.301  52.808 -23.874  1.00  0.00    -0.299 N 
ATOM      6  H5  UNL     1       0.314  52.989 -24.878  1.00  0.00     0.187 HD
HETATM    7  C10 UNL     1      -0.369  51.842 -23.220  1.00  0.00     0.072 A 
HETATM    8  C17 UNL     1      -0.157  51.941 -21.811  1.00  0.00     0.036 A 
HETATM    9  C18 UNL     1      -0.598  51.275 -20.666  1.00  0.00     0.105 A 
HETATM   10  N6  UNL     1      -0.164  51.660 -19.438  1.00  0.00    -0.351 N 
ATOM     11  H6  UNL     1      -0.480  51.162 -18.606  1.00  0.00     0.166 HD
HETATM   12  H14 UNL     1       1.537  54.259 -23.179  1.00  0.00     0.187 HD
ENDROOT
BRANCH   1  13
HETATM   13  N3  UNL     1       1.043  52.968 -17.996  1.00  0.00    -0.295 N 
HETATM   14  C6  UNL     1       1.063  52.109 -16.930  1.00  0.00     0.321 C 
HETATM   15  N2  UNL     1       1.436  52.766 -15.773  1.00  0.00    -0.342 N 
HETATM   16  O1  UNL     1       0.805  50.913 -16.955  1.00  0.00    -0.247 OA
HETATM   17  H11 UNL     1       1.155  53.736 -15.745  1.00  0.00     0.164 HD
HETATM   18  H12 UNL     1       1.449  53.884 -17.881  1.00  0.00     0.172 HD
BRANCH  15  19
HETATM   19  C5  UNL     1       1.447  52.046 -14.512  1.00  0.00     0.130 C 
BRANCH  19  20
HETATM   20  C4  UNL     1       0.385  52.515 -13.518  1.00  0.00     0.033 C 
HETATM   21  C3  UNL     1      -0.975  51.830 -13.661  1.00  0.00     0.038 C 
HETATM   22  C2  UNL     1      -1.304  51.308 -12.269  1.00  0.00     0.272 C 
HETATM   23  N1  UNL     1      -0.483  52.087 -11.330  1.00  0.00     0.084 N 
HETATM   24  C1  UNL     1      -1.137  53.344 -10.962  1.00  0.00     0.309 C 
HETATM   25  C19 UNL     1       0.776  52.319 -12.052  1.00  0.00     0.278 C 
ENDBRANCH  19  20
ENDBRANCH  15  19
ENDBRANCH   1  13
BRANCH   7  26
HETATM   26  C11 UNL     1      -1.189  50.877 -23.953  1.00  0.00    -0.007 A 
HETATM   27  C12 UNL     1      -1.999  49.970 -23.250  1.00  0.00     0.017 A 
HETATM   28  C13 UNL     1      -2.783  49.040 -23.935  1.00  0.00     0.043 A 
HETATM   29  C14 UNL     1      -2.765  49.022 -25.324  1.00  0.00     0.116 A 
HETATM   30  F1  UNL     1      -3.517  48.132 -25.983  1.00  0.00    -0.206 F 
HETATM   31  C15 UNL     1      -1.981  49.919 -26.041  1.00  0.00     0.043 A 
HETATM   32  C16 UNL     1      -1.195  50.849 -25.356  1.00  0.00     0.017 A 
ENDBRANCH   7  26
TORSDOF 4
ENDMDL
