MODEL 1
REMARK minimizedAffinity -9.3043642
REMARK  5 active torsions:
REMARK  status: ('A' for Active; 'I' for Inactive)
REMARK    1  A    between atoms: O1_2  and  C2_3 
REMARK    2  A    between atoms: C5_6  and  C6_7 
REMARK    3  A    between atoms: C9_13  and  N3_14 
REMARK       I    between atoms: N3_14  and  C10_15 
REMARK       I    between atoms: C10_15  and  N4_17 
REMARK    4  A    between atoms: N4_17  and  C11_18 
REMARK    5  A    between atoms: C11_18  and  C12_19 
ROOT
HETATM    1  C6  UNL     1       0.266  52.746 -23.892  1.00  0.00     0.072 A 
HETATM    2  N1  UNL     1       1.121  53.404 -24.695  1.00  0.00    -0.299 N 
ATOM      3  H1  UNL     1       1.940  53.949 -24.424  1.00  0.00     0.187 HD
HETATM    4  N2  UNL     1       0.654  53.183 -25.934  1.00  0.00    -0.299 N 
HETATM    5  C7  UNL     1      -0.450  52.381 -25.980  1.00  0.00     0.065 A 
HETATM    6  C8  UNL     1      -1.210  51.908 -27.049  1.00  0.00     0.080 A 
HETATM    7  C9  UNL     1      -2.277  51.090 -26.699  1.00  0.00     0.111 A 
HETATM    8  N5  UNL     1      -2.571  50.749 -25.423  1.00  0.00    -0.351 N 
ATOM      9  H5  UNL     1      -3.364  50.138 -25.229  1.00  0.00     0.166 HD
HETATM   10  C18 UNL     1      -1.812  51.221 -24.401  1.00  0.00     0.105 A 
HETATM   11  C19 UNL     1      -0.730  52.066 -24.658  1.00  0.00     0.036 A 
HETATM   12  H6  UNL     1       1.144  53.606 -26.713  1.00  0.00     0.187 HD
ENDROOT
BRANCH   7  13
HETATM   13  N3  UNL     1      -3.147  50.519 -27.628  1.00  0.00    -0.295 N 
HETATM   14  C10 UNL     1      -3.765  49.299 -27.579  1.00  0.00     0.322 C 
HETATM   15  O2  UNL     1      -3.627  48.452 -26.706  1.00  0.00    -0.247 OA
HETATM   16  N4  UNL     1      -4.581  49.111 -28.674  1.00  0.00    -0.339 N 
HETATM   17  H9  UNL     1      -4.937  49.946 -29.114  1.00  0.00     0.164 HD
HETATM   18  H8  UNL     1      -3.223  51.066 -28.470  1.00  0.00     0.172 HD
BRANCH  16  19
HETATM   19  C11 UNL     1      -5.405  47.928 -28.798  1.00  0.00     0.162 C 
BRANCH  19  20
HETATM   20  C12 UNL     1      -6.260  47.991 -30.039  1.00  0.00    -0.040 A 
HETATM   21  C13 UNL     1      -5.702  47.703 -31.296  1.00  0.00     0.012 A 
HETATM   22  C14 UNL     1      -6.493  47.737 -32.446  1.00  0.00     0.043 A 
HETATM   23  C15 UNL     1      -7.841  48.052 -32.339  1.00  0.00     0.116 A 
HETATM   24  F1  UNL     1      -8.602  48.083 -33.442  1.00  0.00    -0.206 F 
HETATM   25  C16 UNL     1      -8.416  48.331 -31.104  1.00  0.00     0.043 A 
HETATM   26  C17 UNL     1      -7.627  48.297 -29.953  1.00  0.00     0.012 A 
ENDBRANCH  19  20
ENDBRANCH  16  19
ENDBRANCH   7  13
BRANCH   1  27
HETATM   27  C5  UNL     1       0.435  52.773 -22.439  1.00  0.00    -0.007 A 
HETATM   28  C4  UNL     1       1.151  53.815 -21.834  1.00  0.00     0.016 A 
HETATM   29  C3  UNL     1       1.331  53.854 -20.446  1.00  0.00     0.037 A 
HETATM   30  C2  UNL     1       0.787  52.851 -19.643  1.00  0.00     0.068 A 
HETATM   31  C21 UNL     1       0.061  51.819 -20.240  1.00  0.00     0.037 A 
HETATM   32  C20 UNL     1      -0.119  51.779 -21.627  1.00  0.00     0.016 A 
BRANCH  30  33
HETATM   33  O1  UNL     1       0.887  52.767 -18.281  1.00  0.00    -0.356 OA
HETATM   34  C1  UNL     1       0.308  51.625 -17.664  1.00  0.00     0.210 C 
ENDBRANCH  30  33
ENDBRANCH   1  27
TORSDOF 5
ENDMDL
MODEL 2
REMARK minimizedAffinity -9.24496841
REMARK  5 active torsions:
REMARK  status: ('A' for Active; 'I' for Inactive)
REMARK    1  A    between atoms: O1_2  and  C2_3 
REMARK    2  A    between atoms: C5_6  and  C6_7 
REMARK    3  A    between atoms: C9_13  and  N3_14 
REMARK       I    between atoms: N3_14  and  C10_15 
REMARK       I    between atoms: C10_15  and  N4_17 
REMARK    4  A    between atoms: N4_17  and  C11_18 
REMARK    5  A    between atoms: C11_18  and  C12_19 
ROOT
HETATM    1  C6  UNL     1       0.241  52.937 -24.038  1.00  0.00     0.072 A 
HETATM    2  N1  UNL     1       1.045  53.629 -24.864  1.00  0.00    -0.299 N 
ATOM      3  H1  UNL     1       1.861  54.190 -24.618  1.00  0.00     0.187 HD
HETATM    4  N2  UNL     1       0.533  53.415 -26.086  1.00  0.00    -0.299 N 
HETATM    5  C7  UNL     1      -0.551  52.586 -26.101  1.00  0.00     0.065 A 
HETATM    6  C8  UNL     1      -1.344  52.110 -27.145  1.00  0.00     0.080 A 
HETATM    7  C9  UNL     1      -2.374  51.261 -26.766  1.00  0.00     0.111 A 
HETATM    8  N5  UNL     1      -2.607  50.893 -25.484  1.00  0.00    -0.351 N 
ATOM      9  H5  UNL     1      -3.376  50.259 -25.268  1.00  0.00     0.166 HD
HETATM   10  C18 UNL     1      -1.818  51.368 -24.486  1.00  0.00     0.105 A 
HETATM   11  C19 UNL     1      -0.769  52.244 -24.774  1.00  0.00     0.036 A 
HETATM   12  H6  UNL     1       0.980  53.863 -26.878  1.00  0.00     0.187 HD
ENDROOT
BRANCH   7  13
HETATM   13  N3  UNL     1      -3.268  50.682 -27.667  1.00  0.00    -0.295 N 
HETATM   14  C10 UNL     1      -3.654  49.373 -27.763  1.00  0.00     0.322 C 
HETATM   15  O2  UNL     1      -3.240  48.444 -27.082  1.00  0.00    -0.247 OA
HETATM   16  N4  UNL     1      -4.586  49.202 -28.765  1.00  0.00    -0.339 N 
HETATM   17  H9  UNL     1      -5.142  50.010 -29.000  1.00  0.00     0.164 HD
HETATM   18  H8  UNL     1      -3.565  51.328 -28.381  1.00  0.00     0.172 HD
BRANCH  16  19
HETATM   19  C11 UNL     1      -5.206  47.915 -28.998  1.00  0.00     0.162 C 
BRANCH  19  20
HETATM   20  C12 UNL     1      -6.666  48.072 -29.342  1.00  0.00    -0.040 A 
HETATM   21  C13 UNL     1      -7.053  48.376 -30.657  1.00  0.00     0.012 A 
HETATM   22  C14 UNL     1      -8.404  48.499 -30.987  1.00  0.00     0.043 A 
HETATM   23  C15 UNL     1      -9.367  48.312 -30.005  1.00  0.00     0.116 A 
HETATM   24  F1  UNL     1     -10.664  48.429 -30.320  1.00  0.00    -0.206 F 
HETATM   25  C16 UNL     1      -9.007  48.002 -28.698  1.00  0.00     0.043 A 
HETATM   26  C17 UNL     1      -7.657  47.878 -28.366  1.00  0.00     0.012 A 
ENDBRANCH  19  20
ENDBRANCH  16  19
ENDBRANCH   7  13
BRANCH   1  27
HETATM   27  C5  UNL     1       0.469  52.946 -22.593  1.00  0.00    -0.007 A 
HETATM   28  C4  UNL     1       1.218  53.975 -22.006  1.00  0.00     0.016 A 
HETATM   29  C3  UNL     1       1.454  53.996 -20.626  1.00  0.00     0.037 A 
HETATM   30  C2  UNL     1       0.935  52.988 -19.813  1.00  0.00     0.068 A 
HETATM   31  C21 UNL     1       0.177  51.969 -20.391  1.00  0.00     0.037 A 
HETATM   32  C20 UNL     1      -0.060  51.946 -21.770  1.00  0.00     0.016 A 
BRANCH  30  33
HETATM   33  O1  UNL     1       1.089  52.888 -18.457  1.00  0.00    -0.356 OA
HETATM   34  C1  UNL     1       0.450  51.791 -17.818  1.00  0.00     0.210 C 
ENDBRANCH  30  33
ENDBRANCH   1  27
TORSDOF 5
ENDMDL
MODEL 3
REMARK minimizedAffinity -9.20799637
REMARK  5 active torsions:
REMARK  status: ('A' for Active; 'I' for Inactive)
REMARK    1  A    between atoms: O1_2  and  C2_3 
REMARK    2  A    between atoms: C5_6  and  C6_7 
REMARK    3  A    between atoms: C9_13  and  N3_14 
REMARK       I    between atoms: N3_14  and  C10_15 
REMARK       I    between atoms: C10_15  and  N4_17 
REMARK    4  A    between atoms: N4_17  and  C11_18 
REMARK    5  A    between atoms: C11_18  and  C12_19 
ROOT
HETATM    1  C6  UNL     1       0.232  52.661 -23.782  1.00  0.00     0.072 A 
HETATM    2  N1  UNL     1       1.104  53.305 -24.578  1.00  0.00    -0.299 N 
ATOM      3  H1  UNL     1       1.923  53.847 -24.299  1.00  0.00     0.187 HD
HETATM    4  N2  UNL     1       0.655  53.074 -25.822  1.00  0.00    -0.299 N 
HETATM    5  C7  UNL     1      -0.453  52.279 -25.877  1.00  0.00     0.065 A 
HETATM    6  C8  UNL     1      -1.200  51.800 -26.953  1.00  0.00     0.080 A 
HETATM    7  C9  UNL     1      -2.278  50.994 -26.612  1.00  0.00     0.111 A 
HETATM    8  N5  UNL     1      -2.596  50.669 -25.337  1.00  0.00    -0.351 N 
ATOM      9  H5  UNL     1      -3.396  50.065 -25.149  1.00  0.00     0.166 HD
HETATM   10  C18 UNL     1      -1.849  51.146 -24.308  1.00  0.00     0.105 A 
HETATM   11  C19 UNL     1      -0.757  51.980 -24.557  1.00  0.00     0.036 A 
HETATM   12  H6  UNL     1       1.161  53.486 -26.598  1.00  0.00     0.187 HD
ENDROOT
BRANCH   7  13
HETATM   13  N3  UNL     1      -3.138  50.420 -27.548  1.00  0.00    -0.295 N 
HETATM   14  C10 UNL     1      -3.820  49.236 -27.465  1.00  0.00     0.322 C 
HETATM   15  O2  UNL     1      -3.763  48.430 -26.546  1.00  0.00    -0.247 OA
HETATM   16  N4  UNL     1      -4.599  49.032 -28.585  1.00  0.00    -0.339 N 
HETATM   17  H9  UNL     1      -4.892  49.860 -29.082  1.00  0.00     0.164 HD
HETATM   18  H8  UNL     1      -3.150  50.925 -28.419  1.00  0.00     0.172 HD
BRANCH  16  19
HETATM   19  C11 UNL     1      -5.478  47.887 -28.686  1.00  0.00     0.162 C 
BRANCH  19  20
HETATM   20  C12 UNL     1      -6.296  47.942 -29.951  1.00  0.00    -0.040 A 
HETATM   21  C13 UNL     1      -7.656  48.292 -29.899  1.00  0.00     0.012 A 
HETATM   22  C14 UNL     1      -8.412  48.367 -31.069  1.00  0.00     0.043 A 
HETATM   23  C15 UNL     1      -7.810  48.099 -32.291  1.00  0.00     0.116 A 
HETATM   24  F1  UNL     1      -8.535  48.172 -33.416  1.00  0.00    -0.206 F 
HETATM   25  C16 UNL     1      -6.464  47.760 -32.368  1.00  0.00     0.043 A 
HETATM   26  C17 UNL     1      -5.705  47.684 -31.199  1.00  0.00     0.012 A 
ENDBRANCH  19  20
ENDBRANCH  16  19
ENDBRANCH   7  13
BRANCH   1  27
HETATM   27  C5  UNL     1       0.378  52.702 -22.327  1.00  0.00    -0.007 A 
HETATM   28  C4  UNL     1      -0.206  51.705 -21.534  1.00  0.00     0.016 A 
HETATM   29  C3  UNL     1      -0.085  51.732 -20.139  1.00  0.00     0.037 A 
HETATM   30  C2  UNL     1       0.630  52.756 -19.519  1.00  0.00     0.068 A 
HETATM   31  C21 UNL     1       1.223  53.745 -20.306  1.00  0.00     0.037 A 
HETATM   32  C20 UNL     1       1.104  53.720 -21.699  1.00  0.00     0.016 A 
BRANCH  30  33
HETATM   33  O1  UNL     1       0.824  52.902 -18.173  1.00  0.00    -0.356 OA
HETATM   34  C1  UNL     1       0.742  51.725 -17.381  1.00  0.00     0.210 C 
ENDBRANCH  30  33
ENDBRANCH   1  27
TORSDOF 5
ENDMDL
MODEL 4
REMARK minimizedAffinity -9.11510277
REMARK  5 active torsions:
REMARK  status: ('A' for Active; 'I' for Inactive)
REMARK    1  A    between atoms: O1_2  and  C2_3 
REMARK    2  A    between atoms: C5_6  and  C6_7 
REMARK    3  A    between atoms: C9_13  and  N3_14 
REMARK       I    between atoms: N3_14  and  C10_15 
REMARK       I    between atoms: C10_15  and  N4_17 
REMARK    4  A    between atoms: N4_17  and  C11_18 
REMARK    5  A    between atoms: C11_18  and  C12_19 
ROOT
HETATM    1  C6  UNL     1      -0.196  52.932 -24.821  1.00  0.00     0.072 A 
HETATM    2  N1  UNL     1       0.458  53.994 -25.324  1.00  0.00    -0.299 N 
ATOM      3  H1  UNL     1       0.441  54.341 -26.284  1.00  0.00     0.187 HD
HETATM    4  N2  UNL     1       1.137  54.494 -24.280  1.00  0.00    -0.299 N 
HETATM    5  C7  UNL     1       0.931  53.826 -23.107  1.00  0.00     0.065 A 
HETATM    6  C8  UNL     1       1.426  54.034 -21.820  1.00  0.00     0.080 A 
HETATM    7  C9  UNL     1       0.975  53.136 -20.861  1.00  0.00     0.111 A 
HETATM    8  N5  UNL     1       0.108  52.132 -21.126  1.00  0.00    -0.351 N 
ATOM      9  H5  UNL     1      -0.194  51.508 -20.377  1.00  0.00     0.166 HD
HETATM   10  C18 UNL     1      -0.362  51.953 -22.388  1.00  0.00     0.105 A 
HETATM   11  C19 UNL     1       0.054  52.798 -23.420  1.00  0.00     0.036 A 
HETATM   12  H6  UNL     1       1.725  55.305 -24.435  1.00  0.00     0.187 HD
ENDROOT
BRANCH   7  13
HETATM   13  N3  UNL     1       1.355  53.186 -19.520  1.00  0.00    -0.295 N 
HETATM   14  C10 UNL     1       0.675  52.727 -18.424  1.00  0.00     0.322 C 
HETATM   15  O2  UNL     1      -0.437  52.214 -18.424  1.00  0.00    -0.247 OA
HETATM   16  N4  UNL     1       1.400  52.929 -17.269  1.00  0.00    -0.339 N 
HETATM   17  H9  UNL     1       2.402  52.982 -17.375  1.00  0.00     0.164 HD
HETATM   18  H8  UNL     1       2.194  53.724 -19.378  1.00  0.00     0.172 HD
BRANCH  16  19
HETATM   19  C11 UNL     1       0.921  52.447 -15.992  1.00  0.00     0.162 C 
BRANCH  19  20
HETATM   20  C12 UNL     1       2.011  51.720 -15.244  1.00  0.00    -0.040 A 
HETATM   21  C13 UNL     1       1.682  50.764 -14.269  1.00  0.00     0.012 A 
HETATM   22  C14 UNL     1       2.685  50.072 -13.590  1.00  0.00     0.043 A 
HETATM   23  C15 UNL     1       4.016  50.329 -13.889  1.00  0.00     0.116 A 
HETATM   24  F1  UNL     1       4.980  49.663 -13.239  1.00  0.00    -0.206 F 
HETATM   25  C16 UNL     1       4.365  51.264 -14.857  1.00  0.00     0.043 A 
HETATM   26  C17 UNL     1       3.363  51.958 -15.538  1.00  0.00     0.012 A 
ENDBRANCH  19  20
ENDBRANCH  16  19
ENDBRANCH   7  13
BRANCH   1  27
HETATM   27  C5  UNL     1      -1.040  52.099 -25.678  1.00  0.00    -0.007 A 
HETATM   28  C4  UNL     1      -1.109  50.716 -25.465  1.00  0.00     0.016 A 
HETATM   29  C3  UNL     1      -1.905  49.901 -26.280  1.00  0.00     0.037 A 
HETATM   30  C2  UNL     1      -2.650  50.464 -27.316  1.00  0.00     0.068 A 
HETATM   31  C21 UNL     1      -2.595  51.843 -27.523  1.00  0.00     0.037 A 
HETATM   32  C20 UNL     1      -1.800  52.659 -26.710  1.00  0.00     0.016 A 
BRANCH  30  33
HETATM   33  O1  UNL     1      -3.464  49.788 -28.183  1.00  0.00    -0.356 OA
HETATM   34  C1  UNL     1      -3.996  48.550 -27.729  1.00  0.00     0.210 C 
ENDBRANCH  30  33
ENDBRANCH   1  27
TORSDOF 5
ENDMDL
MODEL 5
REMARK minimizedAffinity -8.8457346
REMARK  5 active torsions:
REMARK  status: ('A' for Active; 'I' for Inactive)
REMARK    1  A    between atoms: O1_2  and  C2_3 
REMARK    2  A    between atoms: C5_6  and  C6_7 
REMARK    3  A    between atoms: C9_13  and  N3_14 
REMARK       I    between atoms: N3_14  and  C10_15 
REMARK       I    between atoms: C10_15  and  N4_17 
REMARK    4  A    between atoms: N4_17  and  C11_18 
REMARK    5  A    between atoms: C11_18  and  C12_19 
ROOT
HETATM    1  C6  UNL     1      -0.398  51.416 -21.155  1.00  0.00     0.072 A 
HETATM    2  N1  UNL     1      -0.909  50.175 -21.065  1.00  0.00    -0.299 N 
ATOM      3  H1  UNL     1      -1.301  49.605 -21.814  1.00  0.00     0.187 HD
HETATM    4  N2  UNL     1      -0.785  49.856 -19.767  1.00  0.00    -0.299 N 
HETATM    5  C7  UNL     1      -0.186  50.820 -19.008  1.00  0.00     0.065 A 
HETATM    6  C8  UNL     1       0.137  50.870 -17.653  1.00  0.00     0.080 A 
HETATM    7  C9  UNL     1       0.763  52.037 -17.236  1.00  0.00     0.111 A 
HETATM    8  N5  UNL     1       1.063  53.062 -18.066  1.00  0.00    -0.351 N 
ATOM      9  H5  UNL     1       1.531  53.892 -17.702  1.00  0.00     0.166 HD
HETATM   10  C18 UNL     1       0.741  52.987 -19.384  1.00  0.00     0.105 A 
HETATM   11  C19 UNL     1       0.092  51.858 -19.887  1.00  0.00     0.036 A 
HETATM   12  H6  UNL     1      -1.128  48.953 -19.461  1.00  0.00     0.187 HD
ENDROOT
BRANCH   7  13
HETATM   13  N3  UNL     1       1.164  52.269 -15.920  1.00  0.00    -0.295 N 
HETATM   14  C10 UNL     1       0.580  51.834 -14.761  1.00  0.00     0.322 C 
HETATM   15  O2  UNL     1      -0.450  51.180 -14.671  1.00  0.00    -0.247 OA
HETATM   16  N4  UNL     1       1.299  52.245 -13.659  1.00  0.00    -0.339 N 
HETATM   17  H9  UNL     1       2.281  52.421 -13.806  1.00  0.00     0.164 HD
HETATM   18  H8  UNL     1       1.925  52.926 -15.861  1.00  0.00     0.172 HD
BRANCH  16  19
HETATM   19  C11 UNL     1       0.921  51.832 -12.324  1.00  0.00     0.162 C 
BRANCH  19  20
HETATM   20  C12 UNL     1       0.279  52.968 -11.567  1.00  0.00    -0.040 A 
HETATM   21  C13 UNL     1       1.066  54.018 -11.065  1.00  0.00     0.012 A 
HETATM   22  C14 UNL     1       0.475  55.082 -10.384  1.00  0.00     0.043 A 
HETATM   23  C15 UNL     1      -0.903  55.102 -10.210  1.00  0.00     0.116 A 
HETATM   24  F1  UNL     1      -1.472  56.125  -9.557  1.00  0.00    -0.206 F 
HETATM   25  C16 UNL     1      -1.702  54.078 -10.705  1.00  0.00     0.043 A 
HETATM   26  C17 UNL     1      -1.113  53.012 -11.387  1.00  0.00     0.012 A 
ENDBRANCH  19  20
ENDBRANCH  16  19
ENDBRANCH   7  13
BRANCH   1  27
HETATM   27  C5  UNL     1      -0.378  52.125 -22.434  1.00  0.00    -0.007 A 
HETATM   28  C4  UNL     1      -1.499  52.089 -23.274  1.00  0.00     0.016 A 
HETATM   29  C3  UNL     1      -1.496  52.754 -24.507  1.00  0.00     0.037 A 
HETATM   30  C2  UNL     1      -0.371  53.471 -24.911  1.00  0.00     0.068 A 
HETATM   31  C21 UNL     1       0.743  53.521 -24.072  1.00  0.00     0.037 A 
HETATM   32  C20 UNL     1       0.742  52.857 -22.840  1.00  0.00     0.016 A 
BRANCH  30  33
HETATM   33  O1  UNL     1      -0.235  54.163 -26.084  1.00  0.00    -0.356 OA
HETATM   34  C1  UNL     1      -0.254  53.401 -27.284  1.00  0.00     0.210 C 
ENDBRANCH  30  33
ENDBRANCH   1  27
TORSDOF 5
ENDMDL
MODEL 6
REMARK minimizedAffinity -8.80164814
REMARK  5 active torsions:
REMARK  status: ('A' for Active; 'I' for Inactive)
REMARK    1  A    between atoms: O1_2  and  C2_3 
REMARK    2  A    between atoms: C5_6  and  C6_7 
REMARK    3  A    between atoms: C9_13  and  N3_14 
REMARK       I    between atoms: N3_14  and  C10_15 
REMARK       I    between atoms: C10_15  and  N4_17 
REMARK    4  A    between atoms: N4_17  and  C11_18 
REMARK    5  A    between atoms: C11_18  and  C12_19 
ROOT
HETATM    1  C6  UNL     1       0.278  53.101 -23.732  1.00  0.00     0.072 A 
HETATM    2  N1  UNL     1       1.052  54.149 -24.065  1.00  0.00    -0.299 N 
ATOM      3  H1  UNL     1       1.210  54.540 -24.994  1.00  0.00     0.187 HD
HETATM    4  N2  UNL     1       1.571  54.564 -22.899  1.00  0.00    -0.299 N 
HETATM    5  C7  UNL     1       1.145  53.856 -21.812  1.00  0.00     0.065 A 
HETATM    6  C8  UNL     1       1.428  53.979 -20.453  1.00  0.00     0.080 A 
HETATM    7  C9  UNL     1       0.785  53.064 -19.629  1.00  0.00     0.111 A 
HETATM    8  N5  UNL     1      -0.070  52.119 -20.085  1.00  0.00    -0.351 N 
ATOM      9  H5  UNL     1      -0.518  51.479 -19.430  1.00  0.00     0.166 HD
HETATM   10  C18 UNL     1      -0.331  52.023 -21.415  1.00  0.00     0.105 A 
HETATM   11  C19 UNL     1       0.286  52.891 -22.319  1.00  0.00     0.036 A 
HETATM   12  H6  UNL     1       2.212  55.350 -22.912  1.00  0.00     0.187 HD
ENDROOT
BRANCH   7  13
HETATM   13  N3  UNL     1       0.940  53.032 -18.243  1.00  0.00    -0.295 N 
HETATM   14  C10 UNL     1       0.752  51.980 -17.389  1.00  0.00     0.322 C 
HETATM   15  O2  UNL     1       0.366  50.859 -17.694  1.00  0.00    -0.247 OA
HETATM   16  N4  UNL     1       1.041  52.338 -16.089  1.00  0.00    -0.339 N 
HETATM   17  H9  UNL     1       1.692  53.099 -15.970  1.00  0.00     0.164 HD
HETATM   18  H8  UNL     1       1.114  53.945 -17.856  1.00  0.00     0.172 HD
BRANCH  16  19
HETATM   19  C11 UNL     1       0.998  51.366 -15.019  1.00  0.00     0.162 C 
BRANCH  19  20
HETATM   20  C12 UNL     1      -0.045  51.734 -13.993  1.00  0.00    -0.040 A 
HETATM   21  C13 UNL     1      -1.365  51.272 -14.130  1.00  0.00     0.012 A 
HETATM   22  C14 UNL     1      -2.329  51.590 -13.173  1.00  0.00     0.043 A 
HETATM   23  C15 UNL     1      -1.974  52.364 -12.076  1.00  0.00     0.116 A 
HETATM   24  F1  UNL     1      -2.898  52.669 -11.155  1.00  0.00    -0.206 F 
HETATM   25  C16 UNL     1      -0.672  52.824 -11.916  1.00  0.00     0.043 A 
HETATM   26  C17 UNL     1       0.294  52.507 -12.872  1.00  0.00     0.012 A 
ENDBRANCH  19  20
ENDBRANCH  16  19
ENDBRANCH   7  13
BRANCH   1  27
HETATM   27  C5  UNL     1      -0.449  52.354 -24.758  1.00  0.00    -0.007 A 
HETATM   28  C4  UNL     1      -1.842  52.476 -24.862  1.00  0.00     0.016 A 
HETATM   29  C3  UNL     1      -2.556  51.762 -25.832  1.00  0.00     0.037 A 
HETATM   30  C2  UNL     1      -1.883  50.921 -26.718  1.00  0.00     0.068 A 
HETATM   31  C21 UNL     1      -0.495  50.806 -26.627  1.00  0.00     0.037 A 
HETATM   32  C20 UNL     1       0.221  51.518 -25.658  1.00  0.00     0.016 A 
BRANCH  30  33
HETATM   33  O1  UNL     1      -2.455  50.170 -27.707  1.00  0.00    -0.356 OA
HETATM   34  C1  UNL     1      -3.615  49.425 -27.359  1.00  0.00     0.210 C 
ENDBRANCH  30  33
ENDBRANCH   1  27
TORSDOF 5
ENDMDL
MODEL 7
REMARK minimizedAffinity -8.78186893
REMARK  5 active torsions:
REMARK  status: ('A' for Active; 'I' for Inactive)
REMARK    1  A    between atoms: O1_2  and  C2_3 
REMARK    2  A    between atoms: C5_6  and  C6_7 
REMARK    3  A    between atoms: C9_13  and  N3_14 
REMARK       I    between atoms: N3_14  and  C10_15 
REMARK       I    between atoms: C10_15  and  N4_17 
REMARK    4  A    between atoms: N4_17  and  C11_18 
REMARK    5  A    between atoms: C11_18  and  C12_19 
ROOT
HETATM    1  C6  UNL     1       0.582  52.940 -21.772  1.00  0.00     0.072 A 
HETATM    2  N1  UNL     1       1.384  53.981 -21.485  1.00  0.00    -0.299 N 
ATOM      3  H1  UNL     1       1.820  54.634 -22.137  1.00  0.00     0.187 HD
HETATM    4  N2  UNL     1       1.484  53.967 -20.146  1.00  0.00    -0.299 N 
HETATM    5  C7  UNL     1       0.755  52.984 -19.541  1.00  0.00     0.065 A 
HETATM    6  C8  UNL     1       0.579  52.649 -18.199  1.00  0.00     0.080 A 
HETATM    7  C9  UNL     1      -0.261  51.569 -17.964  1.00  0.00     0.111 A 
HETATM    8  N5  UNL     1      -0.889  50.882 -18.946  1.00  0.00    -0.351 N 
ATOM      9  H5  UNL     1      -1.501  50.101 -18.711  1.00  0.00     0.166 HD
HETATM   10  C18 UNL     1      -0.703  51.231 -20.246  1.00  0.00     0.105 A 
HETATM   11  C19 UNL     1       0.141  52.293 -20.576  1.00  0.00     0.036 A 
HETATM   12  H6  UNL     1       2.065  54.668 -19.702  1.00  0.00     0.187 HD
ENDROOT
BRANCH   7  13
HETATM   13  N3  UNL     1      -0.562  51.089 -16.689  1.00  0.00    -0.295 N 
HETATM   14  C10 UNL     1      -1.790  50.832 -16.143  1.00  0.00     0.322 C 
HETATM   15  O2  UNL     1      -2.875  51.022 -16.677  1.00  0.00    -0.247 OA
HETATM   16  N4  UNL     1      -1.669  50.332 -14.864  1.00  0.00    -0.339 N 
HETATM   17  H9  UNL     1      -0.806  49.855 -14.650  1.00  0.00     0.164 HD
HETATM   18  H8  UNL     1       0.252  51.035 -16.098  1.00  0.00     0.172 HD
BRANCH  16  19
HETATM   19  C11 UNL     1      -2.832  49.904 -14.116  1.00  0.00     0.162 C 
BRANCH  19  20
HETATM   20  C12 UNL     1      -3.228  50.939 -13.091  1.00  0.00    -0.040 A 
HETATM   21  C13 UNL     1      -3.407  52.279 -13.473  1.00  0.00     0.012 A 
HETATM   22  C14 UNL     1      -3.795  53.235 -12.534  1.00  0.00     0.043 A 
HETATM   23  C15 UNL     1      -4.010  52.853 -11.217  1.00  0.00     0.116 A 
HETATM   24  F1  UNL     1      -4.385  53.771 -10.315  1.00  0.00    -0.206 F 
HETATM   25  C16 UNL     1      -3.847  51.531 -10.819  1.00  0.00     0.043 A 
HETATM   26  C17 UNL     1      -3.459  50.572 -11.756  1.00  0.00     0.012 A 
ENDBRANCH  19  20
ENDBRANCH  16  19
ENDBRANCH   7  13
BRANCH   1  27
HETATM   27  C5  UNL     1       0.253  52.611 -23.158  1.00  0.00    -0.007 A 
HETATM   28  C4  UNL     1      -0.500  51.465 -23.449  1.00  0.00     0.016 A 
HETATM   29  C3  UNL     1      -0.817  51.129 -24.771  1.00  0.00     0.037 A 
HETATM   30  C2  UNL     1      -0.391  51.941 -25.820  1.00  0.00     0.068 A 
HETATM   31  C21 UNL     1       0.348  53.091 -25.535  1.00  0.00     0.037 A 
HETATM   32  C20 UNL     1       0.667  53.429 -24.216  1.00  0.00     0.016 A 
BRANCH  30  33
HETATM   33  O1  UNL     1      -0.630  51.730 -27.150  1.00  0.00    -0.356 OA
HETATM   34  C1  UNL     1       0.491  51.793 -28.022  1.00  0.00     0.210 C 
ENDBRANCH  30  33
ENDBRANCH   1  27
TORSDOF 5
ENDMDL
MODEL 8
REMARK minimizedAffinity -8.76734352
REMARK  5 active torsions:
REMARK  status: ('A' for Active; 'I' for Inactive)
REMARK    1  A    between atoms: O1_2  and  C2_3 
REMARK    2  A    between atoms: C5_6  and  C6_7 
REMARK    3  A    between atoms: C9_13  and  N3_14 
REMARK       I    between atoms: N3_14  and  C10_15 
REMARK       I    between atoms: C10_15  and  N4_17 
REMARK    4  A    between atoms: N4_17  and  C11_18 
REMARK    5  A    between atoms: C11_18  and  C12_19 
ROOT
HETATM    1  C6  UNL     1      -0.096  51.822 -23.300  1.00  0.00     0.072 A 
HETATM    2  N1  UNL     1       0.739  52.324 -24.227  1.00  0.00    -0.299 N 
ATOM      3  H1  UNL     1       1.559  52.912 -24.076  1.00  0.00     0.187 HD
HETATM    4  N2  UNL     1       0.251  51.878 -25.395  1.00  0.00    -0.299 N 
HETATM    5  C7  UNL     1      -0.849  51.078 -25.272  1.00  0.00     0.065 A 
HETATM    6  C8  UNL     1      -1.626  50.414 -26.221  1.00  0.00     0.080 A 
HETATM    7  C9  UNL     1      -2.680  49.671 -25.707  1.00  0.00     0.111 A 
HETATM    8  N5  UNL     1      -2.948  49.569 -24.384  1.00  0.00    -0.351 N 
ATOM      9  H5  UNL     1      -3.733  49.001 -24.066  1.00  0.00     0.166 HD
HETATM   10  C18 UNL     1      -2.173  50.223 -23.481  1.00  0.00     0.105 A 
HETATM   11  C19 UNL     1      -1.102  51.009 -23.910  1.00  0.00     0.036 A 
HETATM   12  H6  UNL     1       0.723  52.154 -26.248  1.00  0.00     0.187 HD
ENDROOT
BRANCH   7  13
HETATM   13  N3  UNL     1      -3.564  48.937 -26.498  1.00  0.00    -0.295 N 
HETATM   14  C10 UNL     1      -3.891  49.128 -27.813  1.00  0.00     0.322 C 
HETATM   15  O2  UNL     1      -3.485  50.027 -28.537  1.00  0.00    -0.247 OA
HETATM   16  N4  UNL     1      -4.779  48.168 -28.248  1.00  0.00    -0.339 N 
HETATM   17  H9  UNL     1      -4.761  47.287 -27.757  1.00  0.00     0.164 HD
HETATM   18  H8  UNL     1      -4.078  48.253 -25.966  1.00  0.00     0.172 HD
BRANCH  16  19
HETATM   19  C11 UNL     1      -5.204  48.114 -29.631  1.00  0.00     0.162 C 
BRANCH  19  20
HETATM   20  C12 UNL     1      -6.708  48.156 -29.737  1.00  0.00    -0.040 A 
HETATM   21  C13 UNL     1      -7.505  47.866 -28.618  1.00  0.00     0.012 A 
HETATM   22  C14 UNL     1      -8.896  47.926 -28.704  1.00  0.00     0.043 A 
HETATM   23  C15 UNL     1      -9.491  48.282 -29.907  1.00  0.00     0.116 A 
HETATM   24  F1  UNL     1     -10.827  48.342 -29.991  1.00  0.00    -0.206 F 
HETATM   25  C16 UNL     1      -8.722  48.582 -31.025  1.00  0.00     0.043 A 
HETATM   26  C17 UNL     1      -7.330  48.523 -30.941  1.00  0.00     0.012 A 
ENDBRANCH  19  20
ENDBRANCH  16  19
ENDBRANCH   7  13
BRANCH   1  27
HETATM   27  C5  UNL     1       0.099  52.115 -21.881  1.00  0.00    -0.007 A 
HETATM   28  C4  UNL     1       0.738  53.299 -21.489  1.00  0.00     0.016 A 
HETATM   29  C3  UNL     1       0.942  53.593 -20.135  1.00  0.00     0.037 A 
HETATM   30  C2  UNL     1       0.500  52.706 -19.154  1.00  0.00     0.068 A 
HETATM   31  C21 UNL     1      -0.148  51.532 -19.538  1.00  0.00     0.037 A 
HETATM   32  C20 UNL     1      -0.352  51.236 -20.890  1.00  0.00     0.016 A 
BRANCH  30  33
HETATM   33  O1  UNL     1       0.635  52.870 -17.802  1.00  0.00    -0.356 OA
HETATM   34  C1  UNL     1       1.294  51.829 -17.092  1.00  0.00     0.210 C 
ENDBRANCH  30  33
ENDBRANCH   1  27
TORSDOF 5
ENDMDL
MODEL 9
REMARK minimizedAffinity -8.55865002
REMARK  5 active torsions:
REMARK  status: ('A' for Active; 'I' for Inactive)
REMARK    1  A    between atoms: O1_2  and  C2_3 
REMARK    2  A    between atoms: C5_6  and  C6_7 
REMARK    3  A    between atoms: C9_13  and  N3_14 
REMARK       I    between atoms: N3_14  and  C10_15 
REMARK       I    between atoms: C10_15  and  N4_17 
REMARK    4  A    between atoms: N4_17  and  C11_18 
REMARK    5  A    between atoms: C11_18  and  C12_19 
ROOT
HETATM    1  C6  UNL     1      -2.184  49.829 -23.322  1.00  0.00     0.072 A 
HETATM    2  N1  UNL     1      -2.848  48.894 -22.621  1.00  0.00    -0.299 N 
ATOM      3  H1  UNL     1      -2.768  48.684 -21.625  1.00  0.00     0.187 HD
HETATM    4  N2  UNL     1      -3.641  48.298 -23.526  1.00  0.00    -0.299 N 
HETATM    5  C7  UNL     1      -3.549  48.824 -24.782  1.00  0.00     0.065 A 
HETATM    6  C8  UNL     1      -4.203  48.507 -25.972  1.00  0.00     0.080 A 
HETATM    7  C9  UNL     1      -3.848  49.284 -27.067  1.00  0.00     0.111 A 
HETATM    8  N5  UNL     1      -2.946  50.291 -27.008  1.00  0.00    -0.351 N 
ATOM      9  H5  UNL     1      -2.732  50.833 -27.846  1.00  0.00     0.166 HD
HETATM   10  C18 UNL     1      -2.326  50.582 -25.835  1.00  0.00     0.105 A 
HETATM   11  C19 UNL     1      -2.608  49.839 -24.687  1.00  0.00     0.036 A 
HETATM   12  H6  UNL     1      -4.231  47.534 -23.216  1.00  0.00     0.187 HD
ENDROOT
BRANCH   7  13
HETATM   13  N3  UNL     1      -4.396  49.120 -28.339  1.00  0.00    -0.295 N 
HETATM   14  C10 UNL     1      -5.379  48.255 -28.739  1.00  0.00     0.322 C 
HETATM   15  O2  UNL     1      -5.939  47.422 -28.039  1.00  0.00    -0.247 OA
HETATM   16  N4  UNL     1      -5.671  48.420 -30.076  1.00  0.00    -0.339 N 
HETATM   17  H9  UNL     1      -5.476  49.329 -30.467  1.00  0.00     0.164 HD
HETATM   18  H8  UNL     1      -3.907  49.654 -29.039  1.00  0.00     0.172 HD
BRANCH  16  19
HETATM   19  C11 UNL     1      -6.740  47.674 -30.705  1.00  0.00     0.162 C 
BRANCH  19  20
HETATM   20  C12 UNL     1      -6.242  46.349 -31.227  1.00  0.00    -0.040 A 
HETATM   21  C13 UNL     1      -5.052  46.284 -31.971  1.00  0.00     0.012 A 
HETATM   22  C14 UNL     1      -4.575  45.058 -32.436  1.00  0.00     0.043 A 
HETATM   23  C15 UNL     1      -5.282  43.897 -32.153  1.00  0.00     0.116 A 
HETATM   24  F1  UNL     1      -4.824  42.719 -32.598  1.00  0.00    -0.206 F 
HETATM   25  C16 UNL     1      -6.458  43.937 -31.412  1.00  0.00     0.043 A 
HETATM   26  C17 UNL     1      -6.937  45.162 -30.945  1.00  0.00     0.012 A 
ENDBRANCH  19  20
ENDBRANCH  16  19
ENDBRANCH   7  13
BRANCH   1  27
HETATM   27  C5  UNL     1      -1.190  50.684 -22.673  1.00  0.00    -0.007 A 
HETATM   28  C4  UNL     1      -0.851  50.472 -21.330  1.00  0.00     0.016 A 
HETATM   29  C3  UNL     1       0.092  51.285 -20.688  1.00  0.00     0.037 A 
HETATM   30  C2  UNL     1       0.713  52.320 -21.387  1.00  0.00     0.068 A 
HETATM   31  C21 UNL     1       0.388  52.527 -22.729  1.00  0.00     0.037 A 
HETATM   32  C20 UNL     1      -0.553  51.715 -23.371  1.00  0.00     0.016 A 
BRANCH  30  33
HETATM   33  O1  UNL     1       1.646  53.184 -20.885  1.00  0.00    -0.356 OA
HETATM   34  C1  UNL     1       1.698  54.481 -21.465  1.00  0.00     0.210 C 
ENDBRANCH  30  33
ENDBRANCH   1  27
TORSDOF 5
ENDMDL
