MODEL 1
REMARK minimizedAffinity -9.7809267
REMARK  3 active torsions:
REMARK  status: ('A' for Active; 'I' for Inactive)
REMARK    1  A    between atoms: C4_4  and  C5_5 
REMARK    2  A    between atoms: C8_11  and  N3_12 
REMARK       I    between atoms: N3_12  and  C9_13 
REMARK       I    between atoms: C9_13  and  N4_15 
REMARK    3  A    between atoms: N4_15  and  C10_16 
ROOT
HETATM    1  C5  UNL     1       0.787  53.419 -23.773  1.00  0.00     0.072 A 
HETATM    2  N1  UNL     1       1.429  54.595 -23.885  1.00  0.00    -0.299 N 
ATOM      3  H1  UNL     1       1.668  55.098 -24.739  1.00  0.00     0.187 HD
HETATM    4  N2  UNL     1       1.684  54.959 -22.618  1.00  0.00    -0.299 N 
HETATM    5  C6  UNL     1       1.268  54.055 -21.683  1.00  0.00     0.065 A 
HETATM    6  C7  UNL     1       1.360  54.050 -20.292  1.00  0.00     0.080 A 
HETATM    7  C8  UNL     1       0.832  52.926 -19.669  1.00  0.00     0.111 A 
HETATM    8  N6  UNL     1       0.250  51.902 -20.338  1.00  0.00    -0.351 N 
ATOM      9  H6  UNL     1      -0.133  51.108 -19.823  1.00  0.00     0.166 HD
HETATM   10  C19 UNL     1       0.178  51.932 -21.695  1.00  0.00     0.105 A 
HETATM   11  C20 UNL     1       0.680  53.025 -22.404  1.00  0.00     0.036 A 
HETATM   12  H5  UNL     1       2.159  55.841 -22.457  1.00  0.00     0.187 HD
ENDROOT
BRANCH   7  13
HETATM   13  N3  UNL     1       0.838  52.739 -18.286  1.00  0.00    -0.295 N 
HETATM   14  C9  UNL     1       0.454  51.629 -17.583  1.00  0.00     0.322 C 
HETATM   15  O1  UNL     1      -0.006  50.595 -18.050  1.00  0.00    -0.247 OA
HETATM   16  N4  UNL     1       0.636  51.811 -16.225  1.00  0.00    -0.338 N 
HETATM   17  H8  UNL     1       1.376  52.452 -15.975  1.00  0.00     0.164 HD
HETATM   18  H7  UNL     1       0.997  53.596 -17.781  1.00  0.00     0.172 HD
BRANCH  16  19
HETATM   19  C10 UNL     1       0.357  50.723 -15.282  1.00  0.00     0.092 C 
HETATM   20  C11 UNL     1       1.063  51.003 -13.942  1.00  0.00     0.030 C 
HETATM   21  C12 UNL     1       2.371  50.237 -13.778  1.00  0.00     0.042 C 
HETATM   22  C13 UNL     1       2.101  48.771 -13.936  1.00  0.00    -0.035 A 
HETATM   23  C14 UNL     1       2.688  47.810 -13.113  1.00  0.00     0.010 A 
HETATM   24  C17 UNL     1       1.244  48.342 -14.952  1.00  0.00     0.017 A 
HETATM   25  C15 UNL     1       2.394  46.468 -13.320  1.00  0.00     0.018 A 
HETATM   26  C16 UNL     1       1.528  46.135 -14.348  1.00  0.00     0.088 A 
HETATM   27  N5  UNL     1       0.955  47.039 -15.170  1.00  0.00    -0.369 N 
ATOM     28  H5  UNL     1       0.331  46.751 -15.924  1.00  0.00     0.165 HD
HETATM   29  C18 UNL     1       0.683  49.351 -15.917  1.00  0.00     0.082 C 
ENDBRANCH  16  19
ENDBRANCH   7  13
BRANCH   1  30
HETATM   30  C4  UNL     1       0.318  52.713 -24.965  1.00  0.00    -0.004 A 
HETATM   31  C3  UNL     1      -1.040  52.667 -25.290  1.00  0.00     0.038 A 
HETATM   32  C2  UNL     1      -1.434  51.982 -26.435  1.00  0.00     0.005 A 
HETATM   33  C1  UNL     1      -2.883  51.920 -26.812  1.00  0.00     0.068 C 
HETATM   34  N7  UNL     1      -0.554  51.353 -27.249  1.00  0.00    -0.369 N 
HETATM   35  C22 UNL     1       0.754  51.427 -26.925  1.00  0.00     0.089 A 
ATOM     36  H7  UNL     1      -0.867  50.843 -28.075  1.00  0.00     0.165 HD
HETATM   37  C21 UNL     1       1.234  52.089 -25.810  1.00  0.00     0.031 A 
ENDBRANCH   1  30
TORSDOF 3
ENDMDL
MODEL 2
REMARK minimizedAffinity -9.69500923
REMARK  3 active torsions:
REMARK  status: ('A' for Active; 'I' for Inactive)
REMARK    1  A    between atoms: C4_4  and  C5_5 
REMARK    2  A    between atoms: C8_11  and  N3_12 
REMARK       I    between atoms: N3_12  and  C9_13 
REMARK       I    between atoms: C9_13  and  N4_15 
REMARK    3  A    between atoms: N4_15  and  C10_16 
ROOT
HETATM    1  C5  UNL     1       0.270  52.936 -23.928  1.00  0.00     0.072 A 
HETATM    2  N1  UNL     1       1.057  53.648 -24.753  1.00  0.00    -0.299 N 
ATOM      3  H1  UNL     1       1.840  54.252 -24.503  1.00  0.00     0.187 HD
HETATM    4  N2  UNL     1       0.580  53.384 -25.980  1.00  0.00    -0.299 N 
HETATM    5  C6  UNL     1      -0.506  52.557 -25.991  1.00  0.00     0.065 A 
HETATM    6  C7  UNL     1      -1.289  52.068 -27.035  1.00  0.00     0.080 A 
HETATM    7  C8  UNL     1      -2.346  51.253 -26.650  1.00  0.00     0.111 A 
HETATM    8  N6  UNL     1      -2.611  50.927 -25.363  1.00  0.00    -0.351 N 
ATOM      9  H6  UNL     1      -3.394  50.311 -25.142  1.00  0.00     0.166 HD
HETATM   10  C19 UNL     1      -1.832  51.422 -24.364  1.00  0.00     0.105 A 
HETATM   11  C20 UNL     1      -0.746  52.247 -24.659  1.00  0.00     0.036 A 
HETATM   12  H5  UNL     1       1.040  53.811 -26.777  1.00  0.00     0.187 HD
ENDROOT
BRANCH   7  13
HETATM   13  N3  UNL     1      -3.241  50.676 -27.553  1.00  0.00    -0.295 N 
HETATM   14  C9  UNL     1      -3.623  49.364 -27.640  1.00  0.00     0.322 C 
HETATM   15  O1  UNL     1      -3.213  48.440 -26.951  1.00  0.00    -0.247 OA
HETATM   16  N4  UNL     1      -4.556  49.183 -28.643  1.00  0.00    -0.338 N 
HETATM   17  H8  UNL     1      -5.132  49.989 -28.844  1.00  0.00     0.164 HD
HETATM   18  H7  UNL     1      -3.485  51.298 -28.306  1.00  0.00     0.172 HD
BRANCH  16  19
HETATM   19  C10 UNL     1      -5.161  47.866 -28.871  1.00  0.00     0.092 C 
HETATM   20  C11 UNL     1      -5.509  47.704 -30.362  1.00  0.00     0.030 C 
HETATM   21  C12 UNL     1      -6.981  47.960 -30.669  1.00  0.00     0.042 C 
HETATM   22  C13 UNL     1      -7.820  47.045 -29.829  1.00  0.00    -0.035 A 
HETATM   23  C14 UNL     1      -8.943  46.389 -30.332  1.00  0.00     0.010 A 
HETATM   24  C17 UNL     1      -7.482  46.850 -28.488  1.00  0.00     0.017 A 
HETATM   25  C15 UNL     1      -9.676  45.558 -29.494  1.00  0.00     0.018 A 
HETATM   26  C16 UNL     1      -9.264  45.419 -28.180  1.00  0.00     0.088 A 
HETATM   27  N5  UNL     1      -8.191  46.051 -27.658  1.00  0.00    -0.369 N 
ATOM     28  H5  UNL     1      -7.927  45.931 -26.680  1.00  0.00     0.165 HD
HETATM   29  C18 UNL     1      -6.339  47.630 -27.897  1.00  0.00     0.082 C 
ENDBRANCH  16  19
ENDBRANCH   7  13
BRANCH   1  30
HETATM   30  C4  UNL     1       0.503  52.950 -22.484  1.00  0.00    -0.004 A 
HETATM   31  C3  UNL     1      -0.000  51.940 -21.661  1.00  0.00     0.038 A 
HETATM   32  C2  UNL     1       0.249  52.001 -20.294  1.00  0.00     0.005 A 
HETATM   33  C1  UNL     1      -0.274  50.929 -19.385  1.00  0.00     0.068 C 
HETATM   34  N7  UNL     1       0.960  53.003 -19.724  1.00  0.00    -0.369 N 
HETATM   35  C22 UNL     1       1.453  53.957 -20.542  1.00  0.00     0.089 A 
ATOM     36  H7  UNL     1       1.117  53.035 -18.717  1.00  0.00     0.165 HD
HETATM   37  C21 UNL     1       1.256  53.973 -21.911  1.00  0.00     0.031 A 
ENDBRANCH   1  30
TORSDOF 3
ENDMDL
MODEL 3
REMARK minimizedAffinity -9.56477833
REMARK  3 active torsions:
REMARK  status: ('A' for Active; 'I' for Inactive)
REMARK    1  A    between atoms: C4_4  and  C5_5 
REMARK    2  A    between atoms: C8_11  and  N3_12 
REMARK       I    between atoms: N3_12  and  C9_13 
REMARK       I    between atoms: C9_13  and  N4_15 
REMARK    3  A    between atoms: N4_15  and  C10_16 
ROOT
HETATM    1  C5  UNL     1      -1.905  50.284 -25.010  1.00  0.00     0.072 A 
HETATM    2  N1  UNL     1      -2.187  49.686 -23.840  1.00  0.00    -0.299 N 
ATOM      3  H1  UNL     1      -1.699  49.792 -22.951  1.00  0.00     0.187 HD
HETATM    4  N2  UNL     1      -3.255  48.917 -24.106  1.00  0.00    -0.299 N 
HETATM    5  C6  UNL     1      -3.664  48.961 -25.407  1.00  0.00     0.065 A 
HETATM    6  C7  UNL     1      -4.698  48.310 -26.077  1.00  0.00     0.080 A 
HETATM    7  C8  UNL     1      -4.795  48.593 -27.434  1.00  0.00     0.111 A 
HETATM    8  N6  UNL     1      -3.967  49.447 -28.082  1.00  0.00    -0.351 N 
ATOM      9  H6  UNL     1      -4.097  49.626 -29.078  1.00  0.00     0.166 HD
HETATM   10  C19 UNL     1      -2.964  50.066 -27.404  1.00  0.00     0.105 A 
HETATM   11  C20 UNL     1      -2.795  49.842 -26.036  1.00  0.00     0.036 A 
HETATM   12  H5  UNL     1      -3.658  48.375 -23.349  1.00  0.00     0.187 HD
ENDROOT
BRANCH   7  13
HETATM   13  N3  UNL     1      -5.761  48.032 -28.270  1.00  0.00    -0.295 N 
HETATM   14  C9  UNL     1      -5.830  48.088 -29.637  1.00  0.00     0.322 C 
HETATM   15  O1  UNL     1      -5.060  48.682 -30.380  1.00  0.00    -0.247 OA
HETATM   16  N4  UNL     1      -6.919  47.382 -30.110  1.00  0.00    -0.338 N 
HETATM   17  H8  UNL     1      -7.217  46.612 -29.526  1.00  0.00     0.164 HD
HETATM   18  H7  UNL     1      -6.563  47.697 -27.763  1.00  0.00     0.172 HD
BRANCH  16  19
HETATM   19  C10 UNL     1      -7.151  47.245 -31.552  1.00  0.00     0.092 C 
HETATM   20  C11 UNL     1      -8.381  48.075 -31.963  1.00  0.00     0.030 C 
HETATM   21  C12 UNL     1      -9.649  47.242 -32.112  1.00  0.00     0.042 C 
HETATM   22  C13 UNL     1      -9.397  46.146 -33.104  1.00  0.00    -0.035 A 
HETATM   23  C14 UNL     1     -10.336  45.781 -34.068  1.00  0.00     0.010 A 
HETATM   24  C17 UNL     1      -8.188  45.449 -33.057  1.00  0.00     0.017 A 
HETATM   25  C15 UNL     1     -10.036  44.753 -34.953  1.00  0.00     0.018 A 
HETATM   26  C16 UNL     1      -8.809  44.121 -34.837  1.00  0.00     0.088 A 
HETATM   27  N5  UNL     1      -7.885  44.441 -33.906  1.00  0.00    -0.369 N 
ATOM     28  H5  UNL     1      -6.997  43.942 -33.845  1.00  0.00     0.165 HD
HETATM   29  C18 UNL     1      -7.205  45.754 -31.958  1.00  0.00     0.082 C 
ENDBRANCH  16  19
ENDBRANCH   7  13
BRANCH   1  30
HETATM   30  C4  UNL     1      -0.797  51.233 -25.111  1.00  0.00    -0.004 A 
HETATM   31  C3  UNL     1       0.289  50.991 -25.956  1.00  0.00     0.038 A 
HETATM   32  C2  UNL     1       1.317  51.926 -26.014  1.00  0.00     0.005 A 
HETATM   33  C1  UNL     1       2.493  51.695 -26.916  1.00  0.00     0.068 C 
HETATM   34  N7  UNL     1       1.312  53.064 -25.282  1.00  0.00    -0.369 N 
HETATM   35  C22 UNL     1       0.244  53.286 -24.487  1.00  0.00     0.089 A 
ATOM     36  H7  UNL     1       2.085  53.728 -25.329  1.00  0.00     0.165 HD
HETATM   37  C21 UNL     1      -0.823  52.415 -24.370  1.00  0.00     0.031 A 
ENDBRANCH   1  30
TORSDOF 3
ENDMDL
MODEL 4
REMARK minimizedAffinity -9.37788296
REMARK  3 active torsions:
REMARK  status: ('A' for Active; 'I' for Inactive)
REMARK    1  A    between atoms: C4_4  and  C5_5 
REMARK    2  A    between atoms: C8_11  and  N3_12 
REMARK       I    between atoms: N3_12  and  C9_13 
REMARK       I    between atoms: C9_13  and  N4_15 
REMARK    3  A    between atoms: N4_15  and  C10_16 
ROOT
HETATM    1  C5  UNL     1       0.841  51.804 -17.338  1.00  0.00     0.072 A 
HETATM    2  N1  UNL     1       1.437  52.973 -17.627  1.00  0.00    -0.299 N 
ATOM      3  H1  UNL     1       2.053  53.525 -17.030  1.00  0.00     0.187 HD
HETATM    4  N2  UNL     1       1.040  53.250 -18.880  1.00  0.00    -0.299 N 
HETATM    5  C6  UNL     1       0.183  52.330 -19.410  1.00  0.00     0.065 A 
HETATM    6  C7  UNL     1      -0.458  52.263 -20.646  1.00  0.00     0.080 A 
HETATM    7  C8  UNL     1      -1.290  51.166 -20.822  1.00  0.00     0.111 A 
HETATM    8  N6  UNL     1      -1.473  50.206 -19.884  1.00  0.00    -0.351 N 
ATOM      9  H6  UNL     1      -2.087  49.414 -20.077  1.00  0.00     0.166 HD
HETATM   10  C19 UNL     1      -0.838  50.298 -18.686  1.00  0.00     0.105 A 
HETATM   11  C20 UNL     1       0.021  51.367 -18.423  1.00  0.00     0.036 A 
HETATM   12  H5  UNL     1       1.388  54.097 -19.318  1.00  0.00     0.187 HD
ENDROOT
BRANCH   7  13
HETATM   13  N3  UNL     1      -2.020  50.932 -21.989  1.00  0.00    -0.295 N 
HETATM   14  C9  UNL     1      -2.235  49.739 -22.625  1.00  0.00     0.322 C 
HETATM   15  O1  UNL     1      -1.787  48.648 -22.296  1.00  0.00    -0.247 OA
HETATM   16  N4  UNL     1      -3.037  49.905 -23.737  1.00  0.00    -0.338 N 
HETATM   17  H8  UNL     1      -3.682  50.682 -23.688  1.00  0.00     0.164 HD
HETATM   18  H7  UNL     1      -2.261  51.783 -22.470  1.00  0.00     0.172 HD
BRANCH  16  19
HETATM   19  C10 UNL     1      -3.459  48.747 -24.533  1.00  0.00     0.092 C 
HETATM   20  C11 UNL     1      -2.554  48.609 -25.771  1.00  0.00     0.030 C 
HETATM   21  C12 UNL     1      -3.180  49.172 -27.042  1.00  0.00     0.042 C 
HETATM   22  C13 UNL     1      -4.499  48.498 -27.275  1.00  0.00    -0.035 A 
HETATM   23  C14 UNL     1      -4.915  48.087 -28.541  1.00  0.00     0.010 A 
HETATM   24  C17 UNL     1      -5.355  48.284 -26.193  1.00  0.00     0.017 A 
HETATM   25  C15 UNL     1      -6.152  47.471 -28.683  1.00  0.00     0.018 A 
HETATM   26  C16 UNL     1      -6.933  47.295 -27.553  1.00  0.00     0.088 A 
HETATM   27  N5  UNL     1      -6.566  47.694 -26.317  1.00  0.00    -0.369 N 
ATOM     28  H5  UNL     1      -7.176  47.556 -25.510  1.00  0.00     0.165 HD
HETATM   29  C18 UNL     1      -4.974  48.814 -24.836  1.00  0.00     0.082 C 
ENDBRANCH  16  19
ENDBRANCH   7  13
BRANCH   1  30
HETATM   30  C4  UNL     1       1.060  51.159 -16.044  1.00  0.00    -0.004 A 
HETATM   31  C3  UNL     1       1.706  51.829 -15.003  1.00  0.00     0.038 A 
HETATM   32  C2  UNL     1       1.890  51.170 -13.791  1.00  0.00     0.005 A 
HETATM   33  C1  UNL     1       2.575  51.866 -12.653  1.00  0.00     0.068 C 
HETATM   34  N7  UNL     1       1.469  49.901 -13.578  1.00  0.00    -0.369 N 
HETATM   35  C22 UNL     1       0.830  49.281 -14.592  1.00  0.00     0.089 A 
ATOM     36  H7  UNL     1       1.629  49.433 -12.687  1.00  0.00     0.165 HD
HETATM   37  C21 UNL     1       0.602  49.860 -15.827  1.00  0.00     0.031 A 
ENDBRANCH   1  30
TORSDOF 3
ENDMDL
MODEL 5
REMARK minimizedAffinity -9.37282085
REMARK  3 active torsions:
REMARK  status: ('A' for Active; 'I' for Inactive)
REMARK    1  A    between atoms: C4_4  and  C5_5 
REMARK    2  A    between atoms: C8_11  and  N3_12 
REMARK       I    between atoms: N3_12  and  C9_13 
REMARK       I    between atoms: C9_13  and  N4_15 
REMARK    3  A    between atoms: N4_15  and  C10_16 
ROOT
HETATM    1  C5  UNL     1      -6.775  47.222 -29.334  1.00  0.00     0.072 A 
HETATM    2  N1  UNL     1      -7.927  46.893 -28.725  1.00  0.00    -0.299 N 
ATOM      3  H1  UNL     1      -8.789  46.560 -29.157  1.00  0.00     0.187 HD
HETATM    4  N2  UNL     1      -7.688  47.101 -27.420  1.00  0.00    -0.299 N 
HETATM    5  C6  UNL     1      -6.440  47.584 -27.153  1.00  0.00     0.065 A 
HETATM    6  C7  UNL     1      -5.820  47.942 -25.956  1.00  0.00     0.080 A 
HETATM    7  C8  UNL     1      -4.524  48.424 -26.082  1.00  0.00     0.111 A 
HETATM    8  N6  UNL     1      -3.878  48.536 -27.267  1.00  0.00    -0.351 N 
ATOM      9  H6  UNL     1      -2.919  48.885 -27.295  1.00  0.00     0.166 HD
HETATM   10  C19 UNL     1      -4.508  48.183 -28.419  1.00  0.00     0.105 A 
HETATM   11  C20 UNL     1      -5.811  47.685 -28.386  1.00  0.00     0.036 A 
HETATM   12  H5  UNL     1      -8.429  46.900 -26.757  1.00  0.00     0.187 HD
ENDROOT
BRANCH   7  13
HETATM   13  N3  UNL     1      -3.748  48.837 -24.998  1.00  0.00    -0.295 N 
HETATM   14  C9  UNL     1      -3.514  50.115 -24.565  1.00  0.00     0.322 C 
HETATM   15  O1  UNL     1      -3.924  51.145 -25.083  1.00  0.00    -0.247 OA
HETATM   16  N4  UNL     1      -2.718  50.120 -23.436  1.00  0.00    -0.338 N 
HETATM   17  H8  UNL     1      -2.791  49.295 -22.856  1.00  0.00     0.164 HD
HETATM   18  H7  UNL     1      -3.186  48.092 -24.620  1.00  0.00     0.172 HD
BRANCH  16  19
HETATM   19  C10 UNL     1      -2.397  51.380 -22.755  1.00  0.00     0.092 C 
HETATM   20  C11 UNL     1      -1.509  52.251 -23.662  1.00  0.00     0.030 C 
HETATM   21  C12 UNL     1      -0.028  52.177 -23.307  1.00  0.00     0.042 C 
HETATM   22  C13 UNL     1       0.149  52.562 -21.869  1.00  0.00    -0.035 A 
HETATM   23  C14 UNL     1       1.192  53.380 -21.438  1.00  0.00     0.010 A 
HETATM   24  C17 UNL     1      -0.751  52.076 -20.919  1.00  0.00     0.017 A 
HETATM   25  C15 UNL     1       1.296  53.694 -20.089  1.00  0.00     0.018 A 
HETATM   26  C16 UNL     1       0.354  53.172 -19.217  1.00  0.00     0.088 A 
HETATM   27  N5  UNL     1      -0.659  52.366 -19.601  1.00  0.00    -0.369 N 
ATOM     28  H5  UNL     1      -1.325  51.992 -18.925  1.00  0.00     0.165 HD
HETATM   29  C18 UNL     1      -1.821  51.108 -21.345  1.00  0.00     0.082 C 
ENDBRANCH  16  19
ENDBRANCH   7  13
BRANCH   1  30
HETATM   30  C4  UNL     1      -6.640  47.099 -30.785  1.00  0.00    -0.004 A 
HETATM   31  C3  UNL     1      -5.505  47.570 -31.448  1.00  0.00     0.038 A 
HETATM   32  C2  UNL     1      -5.427  47.429 -32.830  1.00  0.00     0.005 A 
HETATM   33  C1  UNL     1      -4.218  47.921 -33.569  1.00  0.00     0.068 C 
HETATM   34  N7  UNL     1      -6.409  46.853 -33.562  1.00  0.00    -0.369 N 
HETATM   35  C22 UNL     1      -7.488  46.388 -32.898  1.00  0.00     0.089 A 
ATOM     36  H7  UNL     1      -6.337  46.775 -34.577  1.00  0.00     0.165 HD
HETATM   37  C21 UNL     1      -7.647  46.483 -31.528  1.00  0.00     0.031 A 
ENDBRANCH   1  30
TORSDOF 3
ENDMDL
MODEL 6
REMARK minimizedAffinity -9.28570175
REMARK  3 active torsions:
REMARK  status: ('A' for Active; 'I' for Inactive)
REMARK    1  A    between atoms: C4_4  and  C5_5 
REMARK    2  A    between atoms: C8_11  and  N3_12 
REMARK       I    between atoms: N3_12  and  C9_13 
REMARK       I    between atoms: C9_13  and  N4_15 
REMARK    3  A    between atoms: N4_15  and  C10_16 
ROOT
HETATM    1  C5  UNL     1      -0.456  51.628 -24.264  1.00  0.00     0.072 A 
HETATM    2  N1  UNL     1       0.569  52.117 -24.983  1.00  0.00    -0.299 N 
ATOM      3  H1  UNL     1       1.420  52.560 -24.637  1.00  0.00     0.187 HD
HETATM    4  N2  UNL     1       0.219  51.892 -26.260  1.00  0.00    -0.299 N 
HETATM    5  C6  UNL     1      -1.005  51.306 -26.408  1.00  0.00     0.065 A 
HETATM    6  C7  UNL     1      -1.723  50.933 -27.543  1.00  0.00     0.080 A 
HETATM    7  C8  UNL     1      -2.971  50.374 -27.296  1.00  0.00     0.111 A 
HETATM    8  N6  UNL     1      -3.472  50.180 -26.053  1.00  0.00    -0.351 N 
ATOM      9  H6  UNL     1      -4.390  49.750 -25.934  1.00  0.00     0.166 HD
HETATM   10  C19 UNL     1      -2.750  50.557 -24.964  1.00  0.00     0.105 A 
HETATM   11  C20 UNL     1      -1.484  51.124 -25.118  1.00  0.00     0.036 A 
HETATM   12  H5  UNL     1       0.864  52.171 -26.991  1.00  0.00     0.187 HD
ENDROOT
BRANCH   7  13
HETATM   13  N3  UNL     1      -3.835  49.946 -28.304  1.00  0.00    -0.295 N 
HETATM   14  C9  UNL     1      -4.640  48.839 -28.312  1.00  0.00     0.322 C 
HETATM   15  O1  UNL     1      -4.719  47.991 -27.432  1.00  0.00    -0.247 OA
HETATM   16  N4  UNL     1      -5.379  48.767 -29.477  1.00  0.00    -0.338 N 
HETATM   17  H8  UNL     1      -5.582  49.658 -29.911  1.00  0.00     0.164 HD
HETATM   18  H7  UNL     1      -3.700  50.447 -29.167  1.00  0.00     0.172 HD
BRANCH  16  19
HETATM   19  C10 UNL     1      -6.365  47.699 -29.672  1.00  0.00     0.092 C 
HETATM   20  C11 UNL     1      -6.310  47.199 -31.127  1.00  0.00     0.030 C 
HETATM   21  C12 UNL     1      -7.406  47.787 -32.009  1.00  0.00     0.042 C 
HETATM   22  C13 UNL     1      -8.740  47.482 -31.397  1.00  0.00    -0.035 A 
HETATM   23  C14 UNL     1      -9.837  47.082 -32.158  1.00  0.00     0.010 A 
HETATM   24  C17 UNL     1      -8.903  47.617 -30.016  1.00  0.00     0.017 A 
HETATM   25  C15 UNL     1     -11.045  46.819 -31.523  1.00  0.00     0.018 A 
HETATM   26  C16 UNL     1     -11.113  46.974 -30.149  1.00  0.00     0.088 A 
HETATM   27  N5  UNL     1     -10.074  47.374 -29.385  1.00  0.00    -0.369 N 
ATOM     28  H5  UNL     1     -10.168  47.487 -28.376  1.00  0.00     0.165 HD
HETATM   29  C18 UNL     1      -7.763  48.150 -29.190  1.00  0.00     0.082 C 
ENDBRANCH  16  19
ENDBRANCH   7  13
BRANCH   1  30
HETATM   30  C4  UNL     1      -0.425  51.671 -22.803  1.00  0.00    -0.004 A 
HETATM   31  C3  UNL     1       0.177  52.733 -22.124  1.00  0.00     0.038 A 
HETATM   32  C2  UNL     1       0.180  52.727 -20.733  1.00  0.00     0.005 A 
HETATM   33  C1  UNL     1       0.815  53.855 -19.977  1.00  0.00     0.068 C 
HETATM   34  N7  UNL     1      -0.376  51.730 -20.005  1.00  0.00    -0.369 N 
HETATM   35  C22 UNL     1      -0.969  50.724 -20.683  1.00  0.00     0.089 A 
ATOM     36  H7  UNL     1      -0.348  51.738 -18.986  1.00  0.00     0.165 HD
HETATM   37  C21 UNL     1      -1.022  50.651 -22.062  1.00  0.00     0.031 A 
ENDBRANCH   1  30
TORSDOF 3
ENDMDL
MODEL 7
REMARK minimizedAffinity -9.26220417
REMARK  3 active torsions:
REMARK  status: ('A' for Active; 'I' for Inactive)
REMARK    1  A    between atoms: C4_4  and  C5_5 
REMARK    2  A    between atoms: C8_11  and  N3_12 
REMARK       I    between atoms: N3_12  and  C9_13 
REMARK       I    between atoms: C9_13  and  N4_15 
REMARK    3  A    between atoms: N4_15  and  C10_16 
ROOT
HETATM    1  C5  UNL     1       0.674  53.201 -23.678  1.00  0.00     0.072 A 
HETATM    2  N1  UNL     1       1.282  54.383 -23.881  1.00  0.00    -0.299 N 
ATOM      3  H1  UNL     1       1.463  54.848 -24.771  1.00  0.00     0.187 HD
HETATM    4  N2  UNL     1       1.595  54.814 -22.649  1.00  0.00    -0.299 N 
HETATM    5  C6  UNL     1       1.249  53.950 -21.651  1.00  0.00     0.065 A 
HETATM    6  C7  UNL     1       1.415  54.016 -20.268  1.00  0.00     0.080 A 
HETATM    7  C8  UNL     1       0.947  52.914 -19.564  1.00  0.00     0.111 A 
HETATM    8  N6  UNL     1       0.354  51.846 -20.150  1.00  0.00    -0.351 N 
ATOM      9  H6  UNL     1       0.017  51.071 -19.577  1.00  0.00     0.166 HD
HETATM   10  C19 UNL     1       0.209  51.807 -21.501  1.00  0.00     0.105 A 
HETATM   11  C20 UNL     1       0.649  52.873 -22.288  1.00  0.00     0.036 A 
HETATM   12  H5  UNL     1       2.057  55.713 -22.556  1.00  0.00     0.187 HD
ENDROOT
BRANCH   7  13
HETATM   13  N3  UNL     1       1.030  52.795 -18.175  1.00  0.00    -0.295 N 
HETATM   14  C9  UNL     1       0.433  51.863 -17.370  1.00  0.00     0.322 C 
HETATM   15  O1  UNL     1      -0.324  50.970 -17.729  1.00  0.00    -0.247 OA
HETATM   16  N4  UNL     1       0.780  52.052 -16.046  1.00  0.00    -0.338 N 
HETATM   17  H8  UNL     1       1.683  52.481 -15.898  1.00  0.00     0.164 HD
HETATM   18  H7  UNL     1       1.454  53.600 -17.744  1.00  0.00     0.172 HD
BRANCH  16  19
HETATM   19  C10 UNL     1       0.312  51.122 -15.012  1.00  0.00     0.092 C 
HETATM   20  C11 UNL     1       1.178  49.849 -15.027  1.00  0.00     0.030 C 
HETATM   21  C12 UNL     1       0.525  48.685 -15.764  1.00  0.00     0.042 C 
HETATM   22  C13 UNL     1      -0.813  48.406 -15.147  1.00  0.00    -0.035 A 
HETATM   23  C14 UNL     1      -1.273  47.111 -14.916  1.00  0.00     0.010 A 
HETATM   24  C17 UNL     1      -1.641  49.477 -14.804  1.00  0.00     0.017 A 
HETATM   25  C15 UNL     1      -2.526  46.928 -14.344  1.00  0.00     0.018 A 
HETATM   26  C16 UNL     1      -3.277  48.049 -14.030  1.00  0.00     0.088 A 
HETATM   27  N5  UNL     1      -2.866  49.315 -14.255  1.00  0.00    -0.369 N 
ATOM     28  H5  UNL     1      -3.454  50.114 -14.020  1.00  0.00     0.165 HD
HETATM   29  C18 UNL     1      -1.209  50.879 -15.142  1.00  0.00     0.082 C 
ENDBRANCH  16  19
ENDBRANCH   7  13
BRANCH   1  30
HETATM   30  C4  UNL     1       0.159  52.428 -24.807  1.00  0.00    -0.004 A 
HETATM   31  C3  UNL     1       0.796  52.452 -26.050  1.00  0.00     0.038 A 
HETATM   32  C2  UNL     1       0.265  51.698 -27.092  1.00  0.00     0.005 A 
HETATM   33  C1  UNL     1       0.930  51.701 -28.436  1.00  0.00     0.068 C 
HETATM   34  N7  UNL     1      -0.848  50.941 -26.953  1.00  0.00    -0.369 N 
HETATM   35  C22 UNL     1      -1.435  50.918 -25.738  1.00  0.00     0.089 A 
ATOM     36  H7  UNL     1      -1.228  50.409 -27.735  1.00  0.00     0.165 HD
HETATM   37  C21 UNL     1      -0.974  51.632 -24.647  1.00  0.00     0.031 A 
ENDBRANCH   1  30
TORSDOF 3
ENDMDL
MODEL 8
REMARK minimizedAffinity -9.22878838
REMARK  3 active torsions:
REMARK  status: ('A' for Active; 'I' for Inactive)
REMARK    1  A    between atoms: C4_4  and  C5_5 
REMARK    2  A    between atoms: C8_11  and  N3_12 
REMARK       I    between atoms: N3_12  and  C9_13 
REMARK       I    between atoms: C9_13  and  N4_15 
REMARK    3  A    between atoms: N4_15  and  C10_16 
ROOT
HETATM    1  C5  UNL     1      -7.318  47.073 -28.910  1.00  0.00     0.072 A 
HETATM    2  N1  UNL     1      -6.663  47.074 -30.084  1.00  0.00    -0.299 N 
ATOM      3  H1  UNL     1      -7.007  46.761 -30.992  1.00  0.00     0.187 HD
HETATM    4  N2  UNL     1      -5.454  47.580 -29.792  1.00  0.00    -0.299 N 
HETATM    5  C6  UNL     1      -5.278  47.878 -28.472  1.00  0.00     0.065 A 
HETATM    6  C7  UNL     1      -4.186  48.392 -27.775  1.00  0.00     0.080 A 
HETATM    7  C8  UNL     1      -4.375  48.543 -26.407  1.00  0.00     0.111 A 
HETATM    8  N6  UNL     1      -5.532  48.236 -25.772  1.00  0.00    -0.351 N 
ATOM      9  H6  UNL     1      -5.617  48.382 -24.766  1.00  0.00     0.166 HD
HETATM   10  C19 UNL     1      -6.580  47.733 -26.477  1.00  0.00     0.105 A 
HETATM   11  C20 UNL     1      -6.479  47.551 -27.858  1.00  0.00     0.036 A 
HETATM   12  H5  UNL     1      -4.783  47.689 -30.546  1.00  0.00     0.187 HD
ENDROOT
BRANCH   7  13
HETATM   13  N3  UNL     1      -3.395  49.035 -25.544  1.00  0.00    -0.295 N 
HETATM   14  C9  UNL     1      -3.369  50.242 -24.898  1.00  0.00     0.322 C 
HETATM   15  O1  UNL     1      -4.200  51.136 -24.992  1.00  0.00    -0.247 OA
HETATM   16  N4  UNL     1      -2.247  50.356 -24.101  1.00  0.00    -0.338 N 
HETATM   17  H8  UNL     1      -1.879  49.482 -23.752  1.00  0.00     0.164 HD
HETATM   18  H7  UNL     1      -2.557  48.478 -25.553  1.00  0.00     0.172 HD
BRANCH  16  19
HETATM   19  C10 UNL     1      -2.046  51.540 -23.258  1.00  0.00     0.092 C 
HETATM   20  C11 UNL     1      -1.130  52.545 -23.980  1.00  0.00     0.030 C 
HETATM   21  C12 UNL     1       0.318  52.490 -23.506  1.00  0.00     0.042 C 
HETATM   22  C13 UNL     1       0.354  52.714 -22.024  1.00  0.00    -0.035 A 
HETATM   23  C14 UNL     1       1.316  53.517 -21.414  1.00  0.00     0.010 A 
HETATM   24  C17 UNL     1      -0.597  52.086 -21.217  1.00  0.00     0.017 A 
HETATM   25  C15 UNL     1       1.291  53.677 -20.034  1.00  0.00     0.018 A 
HETATM   26  C16 UNL     1       0.307  53.021 -19.313  1.00  0.00     0.088 A 
HETATM   27  N5  UNL     1      -0.629  52.225 -19.872  1.00  0.00    -0.369 N 
ATOM     28  H5  UNL     1      -1.331  51.750 -19.304  1.00  0.00     0.165 HD
HETATM   29  C18 UNL     1      -1.578  51.131 -21.842  1.00  0.00     0.082 C 
ENDBRANCH  16  19
ENDBRANCH   7  13
BRANCH   1  30
HETATM   30  C4  UNL     1      -8.701  46.605 -28.833  1.00  0.00    -0.004 A 
HETATM   31  C3  UNL     1      -9.758  47.398 -29.287  1.00  0.00     0.038 A 
HETATM   32  C2  UNL     1     -11.056  46.906 -29.190  1.00  0.00     0.005 A 
HETATM   33  C1  UNL     1     -12.211  47.732 -29.674  1.00  0.00     0.068 C 
HETATM   34  N7  UNL     1     -11.340  45.689 -28.670  1.00  0.00    -0.369 N 
HETATM   35  C22 UNL     1     -10.301  44.933 -28.256  1.00  0.00     0.089 A 
ATOM     36  H7  UNL     1     -12.301  45.356 -28.594  1.00  0.00     0.165 HD
HETATM   37  C21 UNL     1      -8.981  45.340 -28.317  1.00  0.00     0.031 A 
ENDBRANCH   1  30
TORSDOF 3
ENDMDL
MODEL 9
REMARK minimizedAffinity -9.21546268
REMARK  3 active torsions:
REMARK  status: ('A' for Active; 'I' for Inactive)
REMARK    1  A    between atoms: C4_4  and  C5_5 
REMARK    2  A    between atoms: C8_11  and  N3_12 
REMARK       I    between atoms: N3_12  and  C9_13 
REMARK       I    between atoms: C9_13  and  N4_15 
REMARK    3  A    between atoms: N4_15  and  C10_16 
ROOT
HETATM    1  C5  UNL     1      -2.255  49.954 -24.128  1.00  0.00     0.072 A 
HETATM    2  N1  UNL     1      -2.737  48.883 -23.475  1.00  0.00    -0.299 N 
ATOM      3  H1  UNL     1      -3.377  48.171 -23.828  1.00  0.00     0.187 HD
HETATM    4  N2  UNL     1      -2.187  48.961 -22.253  1.00  0.00    -0.299 N 
HETATM    5  C6  UNL     1      -1.392  50.055 -22.068  1.00  0.00     0.065 A 
HETATM    6  C7  UNL     1      -0.671  50.501 -20.961  1.00  0.00     0.080 A 
HETATM    7  C8  UNL     1       0.017  51.694 -21.146  1.00  0.00     0.111 A 
HETATM    8  N6  UNL     1       0.016  52.387 -22.309  1.00  0.00    -0.351 N 
ATOM      9  H6  UNL     1       0.553  53.252 -22.389  1.00  0.00     0.166 HD
HETATM   10  C19 UNL     1      -0.700  51.931 -23.371  1.00  0.00     0.105 A 
HETATM   11  C20 UNL     1      -1.419  50.738 -23.276  1.00  0.00     0.036 A 
HETATM   12  H5  UNL     1      -2.402  48.232 -21.581  1.00  0.00     0.187 HD
ENDROOT
BRANCH   7  13
HETATM   13  N3  UNL     1       0.788  52.299 -20.152  1.00  0.00    -0.295 N 
HETATM   14  C9  UNL     1       0.693  52.139 -18.796  1.00  0.00     0.322 C 
HETATM   15  O1  UNL     1      -0.124  51.449 -18.200  1.00  0.00    -0.247 OA
HETATM   16  N4  UNL     1       1.654  52.883 -18.138  1.00  0.00    -0.338 N 
HETATM   17  H8  UNL     1       2.501  53.048 -18.664  1.00  0.00     0.164 HD
HETATM   18  H7  UNL     1       1.355  53.051 -20.508  1.00  0.00     0.172 HD
BRANCH  16  19
HETATM   19  C10 UNL     1       1.787  52.808 -16.679  1.00  0.00     0.092 C 
HETATM   20  C11 UNL     1       3.231  53.152 -16.269  1.00  0.00     0.030 C 
HETATM   21  C12 UNL     1       4.085  51.922 -15.982  1.00  0.00     0.042 C 
HETATM   22  C13 UNL     1       3.417  51.101 -14.920  1.00  0.00    -0.035 A 
HETATM   23  C14 UNL     1       4.127  50.506 -13.879  1.00  0.00     0.010 A 
HETATM   24  C17 UNL     1       2.035  50.908 -14.978  1.00  0.00     0.017 A 
HETATM   25  C15 UNL     1       3.442  49.755 -12.931  1.00  0.00     0.018 A 
HETATM   26  C16 UNL     1       2.070  49.622 -13.064  1.00  0.00     0.088 A 
HETATM   27  N5  UNL     1       1.355  50.174 -14.068  1.00  0.00    -0.369 N 
ATOM     28  H5  UNL     1       0.346  50.042 -14.137  1.00  0.00     0.165 HD
HETATM   29  C18 UNL     1       1.264  51.452 -16.150  1.00  0.00     0.082 C 
ENDBRANCH  16  19
ENDBRANCH   7  13
BRANCH   1  30
HETATM   30  C4  UNL     1      -2.619  50.198 -25.524  1.00  0.00    -0.004 A 
HETATM   31  C3  UNL     1      -3.320  49.244 -26.265  1.00  0.00     0.038 A 
HETATM   32  C2  UNL     1      -3.641  49.525 -27.589  1.00  0.00     0.005 A 
HETATM   33  C1  UNL     1      -4.397  48.523 -28.409  1.00  0.00     0.068 C 
HETATM   34  N7  UNL     1      -3.300  50.688 -28.193  1.00  0.00    -0.369 N 
HETATM   35  C22 UNL     1      -2.640  51.602 -27.451  1.00  0.00     0.089 A 
ATOM     36  H7  UNL     1      -3.532  50.866 -29.170  1.00  0.00     0.165 HD
HETATM   37  C21 UNL     1      -2.284  51.408 -26.129  1.00  0.00     0.031 A 
ENDBRANCH   1  30
TORSDOF 3
ENDMDL
