MODEL 1
REMARK minimizedAffinity -8.10012913
REMARK  6 active torsions:
REMARK  status: ('A' for Active; 'I' for Inactive)
REMARK    1  A    between atoms: C2_2  and  C3_3 
REMARK       I    between atoms: C3_3  and  N1_5 
REMARK    2  A    between atoms: N1_5  and  C4_6 
REMARK    3  A    between atoms: C9_11  and  N2_12 
REMARK    4  A    between atoms: N2_12  and  C10_13 
REMARK    5  A    between atoms: C11_16  and  N4_17 
REMARK    6  A    between atoms: N4_17  and  C12_18 
ROOT
HETATM    1  C10 UNL     1      -2.474  50.726 -22.133  1.00  0.00     0.110 A 
HETATM    2  N3  UNL     1      -2.652  50.590 -23.464  1.00  0.00    -0.322 N 
ATOM      3  H3  UNL     1      -1.864  50.369 -24.074  1.00  0.00     0.169 HD
HETATM    4  C11 UNL     1      -3.882  50.750 -23.967  1.00  0.00     0.158 A 
HETATM    5  N5  UNL     1      -4.959  51.028 -23.225  1.00  0.00    -0.341 N 
ATOM      6  H5  UNL     1      -5.886  51.115 -23.641  1.00  0.00     0.167 HD
HETATM    7  C17 UNL     1      -4.761  51.188 -21.903  1.00  0.00     0.117 A 
HETATM    8  C18 UNL     1      -3.534  51.060 -21.299  1.00  0.00     0.088 A 
HETATM    9 CL1  UNL     1      -3.361  51.281 -19.603  1.00  0.00    -0.079 Cl
ENDROOT
BRANCH   1  10
HETATM   10  N2  UNL     1      -1.162  50.639 -21.585  1.00  0.00    -0.242 NA
HETATM   11  H9  UNL     1      -0.584  50.096 -22.228  1.00  0.00     0.135 HD
BRANCH  10  12
HETATM   12  C9  UNL     1      -0.362  51.732 -21.130  1.00  0.00     0.041 A 
HETATM   13  C4  UNL     1       0.410  52.445 -22.078  1.00  0.00     0.056 A 
HETATM   14  C5  UNL     1       1.086  53.604 -21.692  1.00  0.00     0.031 A 
HETATM   15  C6  UNL     1       0.998  54.065 -20.376  1.00  0.00     0.002 A 
HETATM   16  C7  UNL     1       0.227  53.378 -19.443  1.00  0.00     0.002 A 
HETATM   17  C8  UNL     1      -0.462  52.225 -19.821  1.00  0.00     0.026 A 
BRANCH  13  18
HETATM   18  N1  UNL     1       0.460  51.908 -23.385  1.00  0.00    -0.322 N 
HETATM   19  C3  UNL     1       0.622  52.576 -24.571  1.00  0.00     0.244 C 
HETATM   20  O1  UNL     1       0.757  53.783 -24.737  1.00  0.00    -0.268 OA
HETATM   21  H4  UNL     1       0.457  50.895 -23.403  1.00  0.00     0.169 HD
BRANCH  19  22
HETATM   22  C2  UNL     1       0.683  51.691 -25.769  1.00  0.00     0.064 C 
HETATM   23  C1  UNL     1       1.799  51.281 -26.385  1.00  0.00     0.017 C 
ENDBRANCH  19  22
ENDBRANCH  13  18
ENDBRANCH  10  12
ENDBRANCH   1  10
BRANCH   4  24
HETATM   24  N4  UNL     1      -3.980  50.606 -25.342  1.00  0.00    -0.259 NA
HETATM   25  H10 UNL     1      -4.071  51.554 -25.697  1.00  0.00     0.131 HD
BRANCH  24  26
HETATM   26  C12 UNL     1      -2.970  49.769 -25.990  1.00  0.00     0.067 C 
HETATM   27  C13 UNL     1      -3.553  48.404 -26.376  1.00  0.00     0.046 C 
HETATM   28  C14 UNL     1      -4.501  48.515 -27.561  1.00  0.00     0.169 C 
HETATM   29  O2  UNL     1      -3.844  49.124 -28.671  1.00  0.00    -0.391 OA
HETATM   30  C15 UNL     1      -3.449  50.462 -28.377  1.00  0.00     0.169 C 
HETATM   31  C16 UNL     1      -2.437  50.482 -27.240  1.00  0.00     0.046 C 
ENDBRANCH  24  26
ENDBRANCH   4  24
TORSDOF 6
ENDMDL
MODEL 2
REMARK minimizedAffinity -7.9978261
REMARK  6 active torsions:
REMARK  status: ('A' for Active; 'I' for Inactive)
REMARK    1  A    between atoms: C2_2  and  C3_3 
REMARK       I    between atoms: C3_3  and  N1_5 
REMARK    2  A    between atoms: N1_5  and  C4_6 
REMARK    3  A    between atoms: C9_11  and  N2_12 
REMARK    4  A    between atoms: N2_12  and  C10_13 
REMARK    5  A    between atoms: C11_16  and  N4_17 
REMARK    6  A    between atoms: N4_17  and  C12_18 
ROOT
HETATM    1  C10 UNL     1      -2.722  50.333 -26.480  1.00  0.00     0.110 A 
HETATM    2  N3  UNL     1      -3.273  50.133 -27.697  1.00  0.00    -0.322 N 
ATOM      3  H3  UNL     1      -3.073  50.770 -28.469  1.00  0.00     0.169 HD
HETATM    4  C11 UNL     1      -4.086  49.085 -27.869  1.00  0.00     0.158 A 
HETATM    5  N5  UNL     1      -4.381  48.206 -26.905  1.00  0.00    -0.341 N 
ATOM      6  H5  UNL     1      -4.983  47.402 -27.082  1.00  0.00     0.167 HD
HETATM    7  C17 UNL     1      -3.846  48.433 -25.691  1.00  0.00     0.117 A 
HETATM    8  C18 UNL     1      -3.014  49.491 -25.415  1.00  0.00     0.088 A 
HETATM    9 CL1  UNL     1      -2.371  49.715 -23.836  1.00  0.00    -0.079 Cl
ENDROOT
BRANCH   1  10
HETATM   10  N2  UNL     1      -1.918  51.486 -26.252  1.00  0.00    -0.242 NA
HETATM   11  H9  UNL     1      -1.951  51.704 -25.254  1.00  0.00     0.135 HD
BRANCH  10  12
HETATM   12  C9  UNL     1      -0.564  51.670 -26.671  1.00  0.00     0.041 A 
HETATM   13  C4  UNL     1       0.454  51.667 -25.688  1.00  0.00     0.056 A 
HETATM   14  C5  UNL     1       1.795  51.698 -26.077  1.00  0.00     0.031 A 
HETATM   15  C6  UNL     1       2.133  51.726 -27.432  1.00  0.00     0.002 A 
HETATM   16  C7  UNL     1       1.137  51.711 -28.404  1.00  0.00     0.002 A 
HETATM   17  C8  UNL     1      -0.205  51.668 -28.027  1.00  0.00     0.026 A 
BRANCH  13  18
HETATM   18  N1  UNL     1       0.030  51.652 -24.339  1.00  0.00    -0.322 N 
HETATM   19  C3  UNL     1       0.213  52.617 -23.382  1.00  0.00     0.244 C 
HETATM   20  O1  UNL     1       0.785  53.694 -23.506  1.00  0.00    -0.268 OA
HETATM   21  H4  UNL     1      -0.549  50.854 -24.109  1.00  0.00     0.169 HD
BRANCH  19  22
HETATM   22  C2  UNL     1      -0.412  52.300 -22.066  1.00  0.00     0.064 C 
HETATM   23  C1  UNL     1       0.145  52.503 -20.865  1.00  0.00     0.017 C 
ENDBRANCH  19  22
ENDBRANCH  13  18
ENDBRANCH  10  12
ENDBRANCH   1  10
BRANCH   4  24
HETATM   24  N4  UNL     1      -4.621  48.955 -29.141  1.00  0.00    -0.259 NA
HETATM   25  H10 UNL     1      -3.845  49.140 -29.770  1.00  0.00     0.131 HD
BRANCH  24  26
HETATM   26  C12 UNL     1      -5.393  47.742 -29.409  1.00  0.00     0.067 C 
HETATM   27  C13 UNL     1      -6.898  48.038 -29.413  1.00  0.00     0.046 C 
HETATM   28  C14 UNL     1      -7.313  48.811 -30.656  1.00  0.00     0.169 C 
HETATM   29  O2  UNL     1      -6.927  48.105 -31.835  1.00  0.00    -0.391 OA
HETATM   30  C15 UNL     1      -5.510  47.975 -31.927  1.00  0.00     0.169 C 
HETATM   31  C16 UNL     1      -4.973  47.154 -30.763  1.00  0.00     0.046 C 
ENDBRANCH  24  26
ENDBRANCH   4  24
TORSDOF 6
ENDMDL
MODEL 3
REMARK minimizedAffinity -7.85743666
REMARK  6 active torsions:
REMARK  status: ('A' for Active; 'I' for Inactive)
REMARK    1  A    between atoms: C2_2  and  C3_3 
REMARK       I    between atoms: C3_3  and  N1_5 
REMARK    2  A    between atoms: N1_5  and  C4_6 
REMARK    3  A    between atoms: C9_11  and  N2_12 
REMARK    4  A    between atoms: N2_12  and  C10_13 
REMARK    5  A    between atoms: C11_16  and  N4_17 
REMARK    6  A    between atoms: N4_17  and  C12_18 
ROOT
HETATM    1  C10 UNL     1       0.519  52.540 -21.964  1.00  0.00     0.110 A 
HETATM    2  N3  UNL     1       0.444  52.440 -23.309  1.00  0.00    -0.322 N 
ATOM      3  H3  UNL     1       0.041  51.611 -23.747  1.00  0.00     0.169 HD
HETATM    4  C11 UNL     1       0.907  53.450 -24.055  1.00  0.00     0.158 A 
HETATM    5  N5  UNL     1       1.435  54.570 -23.546  1.00  0.00    -0.341 N 
ATOM      6  H5  UNL     1       1.751  55.331 -24.147  1.00  0.00     0.167 HD
HETATM    7  C17 UNL     1       1.528  54.643 -22.206  1.00  0.00     0.117 A 
HETATM    8  C18 UNL     1       1.095  53.650 -21.360  1.00  0.00     0.088 A 
HETATM    9 CL1  UNL     1       1.251  53.818 -19.656  1.00  0.00    -0.079 Cl
ENDROOT
BRANCH   1  10
HETATM   10  N2  UNL     1       0.107  51.445 -21.152  1.00  0.00    -0.242 NA
HETATM   11  H9  UNL     1      -0.250  51.820 -20.271  1.00  0.00     0.135 HD
BRANCH  10  12
HETATM   12  C9  UNL     1      -0.772  50.388 -21.541  1.00  0.00     0.041 A 
HETATM   13  C4  UNL     1      -1.151  49.433 -20.567  1.00  0.00     0.056 A 
HETATM   14  C5  UNL     1      -2.120  48.475 -20.875  1.00  0.00     0.031 A 
HETATM   15  C6  UNL     1      -2.718  48.461 -22.138  1.00  0.00     0.002 A 
HETATM   16  C7  UNL     1      -2.362  49.408 -23.094  1.00  0.00     0.002 A 
HETATM   17  C8  UNL     1      -1.404  50.376 -22.793  1.00  0.00     0.026 A 
BRANCH  13  18
HETATM   18  N1  UNL     1      -0.490  49.505 -19.320  1.00  0.00    -0.322 N 
HETATM   19  C3  UNL     1      -0.693  50.403 -18.303  1.00  0.00     0.244 C 
HETATM   20  O1  UNL     1      -1.493  51.330 -18.273  1.00  0.00    -0.268 OA
HETATM   21  H4  UNL     1       0.145  48.733 -19.157  1.00  0.00     0.169 HD
BRANCH  19  22
HETATM   22  C2  UNL     1       0.146  50.159 -17.095  1.00  0.00     0.064 C 
HETATM   23  C1  UNL     1       0.134  49.050 -16.344  1.00  0.00     0.017 C 
ENDBRANCH  19  22
ENDBRANCH  13  18
ENDBRANCH  10  12
ENDBRANCH   1  10
BRANCH   4  24
HETATM   24  N4  UNL     1       0.805  53.267 -25.425  1.00  0.00    -0.259 NA
HETATM   25  H10 UNL     1       1.604  53.761 -25.813  1.00  0.00     0.131 HD
BRANCH  24  26
HETATM   26  C12 UNL     1       0.606  51.895 -25.892  1.00  0.00     0.067 C 
HETATM   27  C13 UNL     1      -0.286  51.864 -27.139  1.00  0.00     0.046 C 
HETATM   28  C14 UNL     1       0.449  52.382 -28.366  1.00  0.00     0.169 C 
HETATM   29  O2  UNL     1       1.651  51.642 -28.577  1.00  0.00    -0.391 OA
HETATM   30  C15 UNL     1       2.564  51.805 -27.494  1.00  0.00     0.169 C 
HETATM   31  C16 UNL     1       1.966  51.257 -26.205  1.00  0.00     0.046 C 
ENDBRANCH  24  26
ENDBRANCH   4  24
TORSDOF 6
ENDMDL
MODEL 4
REMARK minimizedAffinity -7.85429001
REMARK  6 active torsions:
REMARK  status: ('A' for Active; 'I' for Inactive)
REMARK    1  A    between atoms: C2_2  and  C3_3 
REMARK       I    between atoms: C3_3  and  N1_5 
REMARK    2  A    between atoms: N1_5  and  C4_6 
REMARK    3  A    between atoms: C9_11  and  N2_12 
REMARK    4  A    between atoms: N2_12  and  C10_13 
REMARK    5  A    between atoms: C11_16  and  N4_17 
REMARK    6  A    between atoms: N4_17  and  C12_18 
ROOT
HETATM    1  C10 UNL     1      -2.275  52.148 -25.078  1.00  0.00     0.110 A 
HETATM    2  N3  UNL     1      -2.261  52.085 -23.730  1.00  0.00    -0.322 N 
ATOM      3  H3  UNL     1      -1.641  52.689 -23.188  1.00  0.00     0.169 HD
HETATM    4  C11 UNL     1      -3.074  51.216 -23.118  1.00  0.00     0.158 A 
HETATM    5  N5  UNL     1      -3.919  50.406 -23.766  1.00  0.00    -0.341 N 
ATOM      6  H5  UNL     1      -4.545  49.777 -23.264  1.00  0.00     0.167 HD
HETATM    7  C17 UNL     1      -3.903  50.460 -25.111  1.00  0.00     0.117 A 
HETATM    8  C18 UNL     1      -3.090  51.307 -25.826  1.00  0.00     0.088 A 
HETATM    9 CL1  UNL     1      -3.126  51.316 -27.544  1.00  0.00    -0.079 Cl
ENDROOT
BRANCH   1  10
HETATM   10  N2  UNL     1      -1.361  53.006 -25.754  1.00  0.00    -0.242 NA
HETATM   11  H9  UNL     1      -1.136  53.784 -25.131  1.00  0.00     0.135 HD
BRANCH  10  12
HETATM   12  C9  UNL     1      -0.142  52.613 -26.386  1.00  0.00     0.041 A 
HETATM   13  C4  UNL     1       0.946  52.222 -25.570  1.00  0.00     0.056 A 
HETATM   14  C5  UNL     1       2.099  51.696 -26.155  1.00  0.00     0.031 A 
HETATM   15  C6  UNL     1       2.179  51.549 -27.542  1.00  0.00     0.002 A 
HETATM   16  C7  UNL     1       1.107  51.915 -28.350  1.00  0.00     0.002 A 
HETATM   17  C8  UNL     1      -0.055  52.432 -27.774  1.00  0.00     0.026 A 
BRANCH  13  18
HETATM   18  N1  UNL     1       0.793  52.415 -24.177  1.00  0.00    -0.322 N 
HETATM   19  C3  UNL     1       1.005  53.560 -23.451  1.00  0.00     0.244 C 
HETATM   20  O1  UNL     1       1.372  54.652 -23.868  1.00  0.00    -0.268 OA
HETATM   21  H4  UNL     1       0.397  51.614 -23.702  1.00  0.00     0.169 HD
BRANCH  19  22
HETATM   22  C2  UNL     1       0.697  53.429 -21.999  1.00  0.00     0.064 C 
HETATM   23  C1  UNL     1       1.355  54.032 -21.001  1.00  0.00     0.017 C 
ENDBRANCH  19  22
ENDBRANCH  13  18
ENDBRANCH  10  12
ENDBRANCH   1  10
BRANCH   4  24
HETATM   24  N4  UNL     1      -2.992  51.204 -21.735  1.00  0.00    -0.259 NA
HETATM   25  H10 UNL     1      -3.819  51.705 -21.421  1.00  0.00     0.131 HD
BRANCH  24  26
HETATM   26  C12 UNL     1      -2.745  49.908 -21.103  1.00  0.00     0.067 C 
HETATM   27  C13 UNL     1      -1.332  49.403 -21.420  1.00  0.00     0.046 C 
HETATM   28  C14 UNL     1      -0.272  50.192 -20.666  1.00  0.00     0.169 C 
HETATM   29  O2  UNL     1      -0.527  50.153 -19.262  1.00  0.00    -0.391 OA
HETATM   30  C15 UNL     1      -1.766  50.779 -18.936  1.00  0.00     0.169 C 
HETATM   31  C16 UNL     1      -2.926  50.034 -19.584  1.00  0.00     0.046 C 
ENDBRANCH  24  26
ENDBRANCH   4  24
TORSDOF 6
ENDMDL
MODEL 5
REMARK minimizedAffinity -7.80540466
REMARK  6 active torsions:
REMARK  status: ('A' for Active; 'I' for Inactive)
REMARK    1  A    between atoms: C2_2  and  C3_3 
REMARK       I    between atoms: C3_3  and  N1_5 
REMARK    2  A    between atoms: N1_5  and  C4_6 
REMARK    3  A    between atoms: C9_11  and  N2_12 
REMARK    4  A    between atoms: N2_12  and  C10_13 
REMARK    5  A    between atoms: C11_16  and  N4_17 
REMARK    6  A    between atoms: N4_17  and  C12_18 
ROOT
HETATM    1  C10 UNL     1       0.476  52.592 -22.080  1.00  0.00     0.110 A 
HETATM    2  N3  UNL     1       0.317  52.601 -23.421  1.00  0.00    -0.322 N 
ATOM      3  H3  UNL     1      -0.166  51.835 -23.893  1.00  0.00     0.169 HD
HETATM    4  C11 UNL     1       0.805  53.633 -24.119  1.00  0.00     0.158 A 
HETATM    5  N5  UNL     1       1.436  54.674 -23.565  1.00  0.00    -0.341 N 
ATOM      6  H5  UNL     1       1.769  55.457 -24.127  1.00  0.00     0.167 HD
HETATM    7  C17 UNL     1       1.611  54.638 -22.231  1.00  0.00     0.117 A 
HETATM    8  C18 UNL     1       1.160  53.613 -21.434  1.00  0.00     0.088 A 
HETATM    9 CL1  UNL     1       1.424  53.639 -19.735  1.00  0.00    -0.079 Cl
ENDROOT
BRANCH   1  10
HETATM   10  N2  UNL     1       0.036  51.467 -21.326  1.00  0.00    -0.242 NA
HETATM   11  H9  UNL     1       0.795  51.187 -20.702  1.00  0.00     0.135 HD
BRANCH  10  12
HETATM   12  C9  UNL     1      -1.175  51.374 -20.574  1.00  0.00     0.041 A 
HETATM   13  C4  UNL     1      -2.338  50.897 -21.225  1.00  0.00     0.056 A 
HETATM   14  C5  UNL     1      -3.498  50.657 -20.485  1.00  0.00     0.031 A 
HETATM   15  C6  UNL     1      -3.511  50.880 -19.106  1.00  0.00     0.002 A 
HETATM   16  C7  UNL     1      -2.366  51.332 -18.457  1.00  0.00     0.002 A 
HETATM   17  C8  UNL     1      -1.198  51.564 -19.185  1.00  0.00     0.026 A 
BRANCH  13  18
HETATM   18  N1  UNL     1      -2.249  50.711 -22.623  1.00  0.00    -0.322 N 
HETATM   19  C3  UNL     1      -2.588  49.600 -23.354  1.00  0.00     0.244 C 
HETATM   20  O1  UNL     1      -3.040  48.540 -22.937  1.00  0.00    -0.268 OA
HETATM   21  H4  UNL     1      -1.977  51.548 -23.124  1.00  0.00     0.169 HD
BRANCH  19  22
HETATM   22  C2  UNL     1      -2.416  49.761 -24.826  1.00  0.00     0.064 C 
HETATM   23  C1  UNL     1      -2.746  48.856 -25.757  1.00  0.00     0.017 C 
ENDBRANCH  19  22
ENDBRANCH  13  18
ENDBRANCH  10  12
ENDBRANCH   1  10
BRANCH   4  24
HETATM   24  N4  UNL     1       0.612  53.562 -25.490  1.00  0.00    -0.259 NA
HETATM   25  H10 UNL     1       1.474  53.919 -25.892  1.00  0.00     0.131 HD
BRANCH  24  26
HETATM   26  C12 UNL     1       0.132  52.287 -26.022  1.00  0.00     0.067 C 
HETATM   27  C13 UNL     1      -0.657  52.495 -27.320  1.00  0.00     0.046 C 
HETATM   28  C14 UNL     1       0.259  52.856 -28.480  1.00  0.00     0.169 C 
HETATM   29  O2  UNL     1       1.267  51.861 -28.648  1.00  0.00    -0.391 OA
HETATM   30  C15 UNL     1       2.119  51.780 -27.507  1.00  0.00     0.169 C 
HETATM   31  C16 UNL     1       1.325  51.356 -26.279  1.00  0.00     0.046 C 
ENDBRANCH  24  26
ENDBRANCH   4  24
TORSDOF 6
ENDMDL
MODEL 6
REMARK minimizedAffinity -7.80160189
REMARK  6 active torsions:
REMARK  status: ('A' for Active; 'I' for Inactive)
REMARK    1  A    between atoms: C2_2  and  C3_3 
REMARK       I    between atoms: C3_3  and  N1_5 
REMARK    2  A    between atoms: N1_5  and  C4_6 
REMARK    3  A    between atoms: C9_11  and  N2_12 
REMARK    4  A    between atoms: N2_12  and  C10_13 
REMARK    5  A    between atoms: C11_16  and  N4_17 
REMARK    6  A    between atoms: N4_17  and  C12_18 
ROOT
HETATM    1  C10 UNL     1       0.089  52.109 -21.411  1.00  0.00     0.110 A 
HETATM    2  N3  UNL     1      -0.243  51.626 -20.194  1.00  0.00    -0.322 N 
ATOM      3  H3  UNL     1      -0.748  50.744 -20.105  1.00  0.00     0.169 HD
HETATM    4  C11 UNL     1       0.103  52.328 -19.109  1.00  0.00     0.158 A 
HETATM    5  N5  UNL     1       0.775  53.484 -19.153  1.00  0.00    -0.341 N 
ATOM      6  H5  UNL     1       1.047  53.976 -18.302  1.00  0.00     0.167 HD
HETATM    7  C17 UNL     1       1.076  53.966 -20.373  1.00  0.00     0.117 A 
HETATM    8  C18 UNL     1       0.747  53.325 -21.544  1.00  0.00     0.088 A 
HETATM    9 CL1  UNL     1       1.164  54.007 -23.066  1.00  0.00    -0.079 Cl
ENDROOT
BRANCH   1  10
HETATM   10  N2  UNL     1      -0.339  51.421 -22.582  1.00  0.00    -0.242 NA
HETATM   11  H9  UNL     1      -0.437  50.431 -22.351  1.00  0.00     0.135 HD
BRANCH  10  12
HETATM   12  C9  UNL     1      -1.452  51.768 -23.407  1.00  0.00     0.041 A 
HETATM   13  C4  UNL     1      -1.322  51.632 -24.810  1.00  0.00     0.056 A 
HETATM   14  C5  UNL     1      -2.435  51.823 -25.632  1.00  0.00     0.031 A 
HETATM   15  C6  UNL     1      -3.675  52.141 -25.074  1.00  0.00     0.002 A 
HETATM   16  C7  UNL     1      -3.814  52.259 -23.694  1.00  0.00     0.002 A 
HETATM   17  C8  UNL     1      -2.712  52.059 -22.863  1.00  0.00     0.026 A 
BRANCH  13  18
HETATM   18  N1  UNL     1      -0.032  51.323 -25.298  1.00  0.00    -0.322 N 
HETATM   19  C3  UNL     1       0.819  52.125 -26.015  1.00  0.00     0.244 C 
HETATM   20  O1  UNL     1       0.629  53.279 -26.379  1.00  0.00    -0.268 OA
HETATM   21  H4  UNL     1       0.308  50.420 -24.990  1.00  0.00     0.169 HD
BRANCH  19  22
HETATM   22  C2  UNL     1       2.135  51.497 -26.327  1.00  0.00     0.064 C 
HETATM   23  C1  UNL     1       2.838  51.671 -27.453  1.00  0.00     0.017 C 
ENDBRANCH  19  22
ENDBRANCH  13  18
ENDBRANCH  10  12
ENDBRANCH   1  10
BRANCH   4  24
HETATM   24  N4  UNL     1      -0.284  51.773 -17.899  1.00  0.00    -0.259 NA
HETATM   25  H10 UNL     1      -1.232  51.442 -18.055  1.00  0.00     0.131 HD
BRANCH  24  26
HETATM   26  C12 UNL     1       0.640  50.817 -17.289  1.00  0.00     0.067 C 
HETATM   27  C13 UNL     1       1.430  51.468 -16.146  1.00  0.00     0.046 C 
HETATM   28  C14 UNL     1       0.556  51.700 -14.923  1.00  0.00     0.169 C 
HETATM   29  O2  UNL     1      -0.044  50.476 -14.499  1.00  0.00    -0.391 OA
HETATM   30  C15 UNL     1      -0.920  49.950 -15.493  1.00  0.00     0.169 C 
HETATM   31  C16 UNL     1      -0.146  49.609 -16.759  1.00  0.00     0.046 C 
ENDBRANCH  24  26
ENDBRANCH   4  24
TORSDOF 6
ENDMDL
MODEL 7
REMARK minimizedAffinity -7.74112797
REMARK  6 active torsions:
REMARK  status: ('A' for Active; 'I' for Inactive)
REMARK    1  A    between atoms: C2_2  and  C3_3 
REMARK       I    between atoms: C3_3  and  N1_5 
REMARK    2  A    between atoms: N1_5  and  C4_6 
REMARK    3  A    between atoms: C9_11  and  N2_12 
REMARK    4  A    between atoms: N2_12  and  C10_13 
REMARK    5  A    between atoms: C11_16  and  N4_17 
REMARK    6  A    between atoms: N4_17  and  C12_18 
ROOT
HETATM    1  C10 UNL     1      -1.824  50.179 -23.218  1.00  0.00     0.110 A 
HETATM    2  N3  UNL     1      -1.787  51.129 -24.176  1.00  0.00    -0.322 N 
ATOM      3  H3  UNL     1      -2.315  51.016 -25.042  1.00  0.00     0.169 HD
HETATM    4  C11 UNL     1      -1.044  52.223 -23.968  1.00  0.00     0.158 A 
HETATM    5  N5  UNL     1      -0.337  52.440 -22.853  1.00  0.00    -0.341 N 
ATOM      6  H5  UNL     1       0.195  53.300 -22.718  1.00  0.00     0.167 HD
HETATM    7  C17 UNL     1      -0.362  51.472 -21.918  1.00  0.00     0.117 A 
HETATM    8  C18 UNL     1      -1.082  50.309 -22.051  1.00  0.00     0.088 A 
HETATM    9 CL1  UNL     1      -1.062  49.117 -20.812  1.00  0.00    -0.079 Cl
ENDROOT
BRANCH   1  10
HETATM   10  N2  UNL     1      -2.543  48.971 -23.451  1.00  0.00    -0.242 NA
HETATM   11  H9  UNL     1      -3.181  48.825 -22.666  1.00  0.00     0.135 HD
BRANCH  10  12
HETATM   12  C9  UNL     1      -3.260  48.630 -24.638  1.00  0.00     0.041 A 
HETATM   13  C4  UNL     1      -4.660  48.439 -24.551  1.00  0.00     0.056 A 
HETATM   14  C5  UNL     1      -5.408  48.249 -25.714  1.00  0.00     0.031 A 
HETATM   15  C6  UNL     1      -4.781  48.252 -26.962  1.00  0.00     0.002 A 
HETATM   16  C7  UNL     1      -3.408  48.456 -27.057  1.00  0.00     0.002 A 
HETATM   17  C8  UNL     1      -2.652  48.659 -25.902  1.00  0.00     0.026 A 
BRANCH  13  18
HETATM   18  N1  UNL     1      -5.217  48.435 -23.252  1.00  0.00    -0.322 N 
HETATM   19  C3  UNL     1      -5.935  49.428 -22.633  1.00  0.00     0.244 C 
HETATM   20  O1  UNL     1      -6.238  50.525 -23.087  1.00  0.00    -0.268 OA
HETATM   21  H4  UNL     1      -5.129  47.543 -22.780  1.00  0.00     0.169 HD
BRANCH  19  22
HETATM   22  C2  UNL     1      -6.422  49.071 -21.270  1.00  0.00     0.064 C 
HETATM   23  C1  UNL     1      -6.819  49.938 -20.329  1.00  0.00     0.017 C 
ENDBRANCH  19  22
ENDBRANCH  13  18
ENDBRANCH  10  12
ENDBRANCH   1  10
BRANCH   4  24
HETATM   24  N4  UNL     1      -1.048  53.145 -25.002  1.00  0.00    -0.259 NA
HETATM   25  H10 UNL     1      -1.560  53.943 -24.636  1.00  0.00     0.131 HD
BRANCH  24  26
HETATM   26  C12 UNL     1       0.242  53.439 -25.626  1.00  0.00     0.067 C 
HETATM   27  C13 UNL     1       0.914  52.155 -26.128  1.00  0.00     0.046 C 
HETATM   28  C14 UNL     1       0.220  51.606 -27.366  1.00  0.00     0.169 C 
HETATM   29  O2  UNL     1       0.175  52.595 -28.393  1.00  0.00    -0.391 OA
HETATM   30  C15 UNL     1      -0.598  53.727 -27.998  1.00  0.00     0.169 C 
HETATM   31  C16 UNL     1       0.037  54.412 -26.795  1.00  0.00     0.046 C 
ENDBRANCH  24  26
ENDBRANCH   4  24
TORSDOF 6
ENDMDL
MODEL 8
REMARK minimizedAffinity -7.69146872
REMARK  6 active torsions:
REMARK  status: ('A' for Active; 'I' for Inactive)
REMARK    1  A    between atoms: C2_2  and  C3_3 
REMARK       I    between atoms: C3_3  and  N1_5 
REMARK    2  A    between atoms: N1_5  and  C4_6 
REMARK    3  A    between atoms: C9_11  and  N2_12 
REMARK    4  A    between atoms: N2_12  and  C10_13 
REMARK    5  A    between atoms: C11_16  and  N4_17 
REMARK    6  A    between atoms: N4_17  and  C12_18 
ROOT
HETATM    1  C10 UNL     1      -4.821  51.446 -23.698  1.00  0.00     0.110 A 
HETATM    2  N3  UNL     1      -4.062  51.929 -24.705  1.00  0.00    -0.322 N 
ATOM      3  H3  UNL     1      -4.421  51.953 -25.661  1.00  0.00     0.169 HD
HETATM    4  C11 UNL     1      -2.832  52.376 -24.426  1.00  0.00     0.158 A 
HETATM    5  N5  UNL     1      -2.305  52.385 -23.197  1.00  0.00    -0.341 N 
ATOM      6  H5  UNL     1      -1.374  52.761 -23.018  1.00  0.00     0.167 HD
HETATM    7  C17 UNL     1      -3.062  51.876 -22.207  1.00  0.00     0.117 A 
HETATM    8  C18 UNL     1      -4.329  51.379 -22.400  1.00  0.00     0.088 A 
HETATM    9 CL1  UNL     1      -5.233  50.742 -21.084  1.00  0.00    -0.079 Cl
ENDROOT
BRANCH   1  10
HETATM   10  N2  UNL     1      -6.101  50.891 -23.983  1.00  0.00    -0.242 NA
HETATM   11  H9  UNL     1      -6.222  50.875 -24.997  1.00  0.00     0.135 HD
BRANCH  10  12
HETATM   12  C9  UNL     1      -6.617  49.656 -23.483  1.00  0.00     0.041 A 
HETATM   13  C4  UNL     1      -5.992  48.451 -23.885  1.00  0.00     0.056 A 
HETATM   14  C5  UNL     1      -6.378  47.242 -23.303  1.00  0.00     0.031 A 
HETATM   15  C6  UNL     1      -7.373  47.219 -22.324  1.00  0.00     0.002 A 
HETATM   16  C7  UNL     1      -7.979  48.401 -21.911  1.00  0.00     0.002 A 
HETATM   17  C8  UNL     1      -7.594  49.617 -22.478  1.00  0.00     0.026 A 
BRANCH  13  18
HETATM   18  N1  UNL     1      -5.005  48.556 -24.891  1.00  0.00    -0.322 N 
HETATM   19  C3  UNL     1      -3.642  48.487 -24.753  1.00  0.00     0.244 C 
HETATM   20  O1  UNL     1      -3.003  48.318 -23.721  1.00  0.00    -0.268 OA
HETATM   21  H4  UNL     1      -5.389  48.604 -25.828  1.00  0.00     0.169 HD
BRANCH  19  22
HETATM   22  C2  UNL     1      -2.891  48.585 -26.037  1.00  0.00     0.064 C 
HETATM   23  C1  UNL     1      -3.429  48.565 -27.263  1.00  0.00     0.017 C 
ENDBRANCH  19  22
ENDBRANCH  13  18
ENDBRANCH  10  12
ENDBRANCH   1  10
BRANCH   4  24
HETATM   24  N4  UNL     1      -2.113  52.844 -25.515  1.00  0.00    -0.259 NA
HETATM   25  H10 UNL     1      -1.541  53.597 -25.144  1.00  0.00     0.131 HD
BRANCH  24  26
HETATM   26  C12 UNL     1      -1.416  51.843 -26.322  1.00  0.00     0.067 C 
HETATM   27  C13 UNL     1      -0.907  52.453 -27.634  1.00  0.00     0.046 C 
HETATM   28  C14 UNL     1       0.281  53.374 -27.399  1.00  0.00     0.169 C 
HETATM   29  O2  UNL     1       1.325  52.678 -26.718  1.00  0.00    -0.391 OA
HETATM   30  C15 UNL     1       0.913  52.255 -25.420  1.00  0.00     0.169 C 
HETATM   31  C16 UNL     1      -0.240  51.266 -25.522  1.00  0.00     0.046 C 
ENDBRANCH  24  26
ENDBRANCH   4  24
TORSDOF 6
ENDMDL
MODEL 9
REMARK minimizedAffinity -7.67504263
REMARK  6 active torsions:
REMARK  status: ('A' for Active; 'I' for Inactive)
REMARK    1  A    between atoms: C2_2  and  C3_3 
REMARK       I    between atoms: C3_3  and  N1_5 
REMARK    2  A    between atoms: N1_5  and  C4_6 
REMARK    3  A    between atoms: C9_11  and  N2_12 
REMARK    4  A    between atoms: N2_12  and  C10_13 
REMARK    5  A    between atoms: C11_16  and  N4_17 
REMARK    6  A    between atoms: N4_17  and  C12_18 
ROOT
HETATM    1  C10 UNL     1      -2.175  51.352 -23.957  1.00  0.00     0.110 A 
HETATM    2  N3  UNL     1      -1.349  51.116 -24.998  1.00  0.00    -0.322 N 
ATOM      3  H3  UNL     1      -0.422  50.718 -24.847  1.00  0.00     0.169 HD
HETATM    4  C11 UNL     1      -1.770  51.415 -26.233  1.00  0.00     0.158 A 
HETATM    5  N5  UNL     1      -2.976  51.928 -26.504  1.00  0.00    -0.341 N 
ATOM      6  H5  UNL     1      -3.273  52.116 -27.461  1.00  0.00     0.167 HD
HETATM    7  C17 UNL     1      -3.778  52.182 -25.453  1.00  0.00     0.117 A 
HETATM    8  C18 UNL     1      -3.426  51.924 -24.150  1.00  0.00     0.088 A 
HETATM    9 CL1  UNL     1      -4.507  52.280 -22.861  1.00  0.00    -0.079 Cl
ENDROOT
BRANCH   1  10
HETATM   10  N2  UNL     1      -1.719  51.117 -22.628  1.00  0.00    -0.242 NA
HETATM   11  H9  UNL     1      -2.233  51.738 -22.002  1.00  0.00     0.135 HD
BRANCH  10  12
HETATM   12  C9  UNL     1      -1.632  49.848 -21.977  1.00  0.00     0.041 A 
HETATM   13  C4  UNL     1      -0.940  49.769 -20.744  1.00  0.00     0.056 A 
HETATM   14  C5  UNL     1      -0.961  48.580 -20.012  1.00  0.00     0.031 A 
HETATM   15  C6  UNL     1      -1.666  47.472 -20.489  1.00  0.00     0.002 A 
HETATM   16  C7  UNL     1      -2.363  47.549 -21.692  1.00  0.00     0.002 A 
HETATM   17  C8  UNL     1      -2.358  48.736 -22.426  1.00  0.00     0.026 A 
BRANCH  13  18
HETATM   18  N1  UNL     1      -0.239  50.927 -20.336  1.00  0.00    -0.322 N 
HETATM   19  C3  UNL     1      -0.618  51.866 -19.411  1.00  0.00     0.244 C 
HETATM   20  O1  UNL     1      -1.648  51.889 -18.748  1.00  0.00    -0.268 OA
HETATM   21  H4  UNL     1       0.689  50.995 -20.735  1.00  0.00     0.169 HD
BRANCH  19  22
HETATM   22  C2  UNL     1       0.389  52.941 -19.183  1.00  0.00     0.064 C 
HETATM   23  C1  UNL     1       0.959  53.696 -20.132  1.00  0.00     0.017 C 
ENDBRANCH  19  22
ENDBRANCH  13  18
ENDBRANCH  10  12
ENDBRANCH   1  10
BRANCH   4  24
HETATM   24  N4  UNL     1      -0.861  51.156 -27.246  1.00  0.00    -0.259 NA
HETATM   25  H10 UNL     1      -1.384  50.624 -27.936  1.00  0.00     0.131 HD
BRANCH  24  26
HETATM   26  C12 UNL     1      -0.100  52.297 -27.755  1.00  0.00     0.067 C 
HETATM   27  C13 UNL     1       0.223  53.288 -26.629  1.00  0.00     0.046 C 
HETATM   28  C14 UNL     1       1.292  52.743 -25.694  1.00  0.00     0.169 C 
HETATM   29  O2  UNL     1       2.468  52.399 -26.425  1.00  0.00    -0.391 OA
HETATM   30  C15 UNL     1       2.216  51.352 -27.360  1.00  0.00     0.169 C 
HETATM   31  C16 UNL     1       1.200  51.800 -28.402  1.00  0.00     0.046 C 
ENDBRANCH  24  26
ENDBRANCH   4  24
TORSDOF 6
ENDMDL
