MODEL 1
REMARK minimizedAffinity -10.2955818
REMARK  6 active torsions:
REMARK  status: ('A' for Active; 'I' for Inactive)
REMARK    1  A    between atoms: O1_2  and  C2_3 
REMARK    2  A    between atoms: C7_9  and  C8_10 
REMARK    3  A    between atoms: C8_10  and  N1_11 
REMARK    4  A    between atoms: C12_15  and  N2_16 
REMARK       I    between atoms: N2_16  and  C13_17 
REMARK       I    between atoms: C13_17  and  N3_19 
REMARK    5  A    between atoms: N3_19  and  C14_20 
REMARK    6  A    between atoms: C17_26  and  C18_27 
ROOT
HETATM    1  N2  UNL     1       0.938  51.978 -16.081  1.00  0.00    -0.337 N 
HETATM    2  C13 UNL     1       0.702  51.754 -17.421  1.00  0.00     0.322 C 
HETATM    3  O2  UNL     1       0.256  50.695 -17.842  1.00  0.00    -0.247 OA
HETATM    4  N3  UNL     1       1.047  52.844 -18.171  1.00  0.00    -0.295 N 
HETATM    5  H16 UNL     1       0.924  52.943 -15.787  1.00  0.00     0.164 HD
HETATM    6  H17 UNL     1       1.495  53.625 -17.720  1.00  0.00     0.172 HD
ENDROOT
BRANCH   4   7
HETATM    7  C14 UNL     1       0.954  53.012 -19.553  1.00  0.00     0.111 A 
HETATM    8  C15 UNL     1       1.562  54.053 -20.245  1.00  0.00     0.080 A 
HETATM    9  C16 UNL     1       1.354  54.050 -21.624  1.00  0.00     0.065 A 
HETATM   10  N4  UNL     1       1.759  54.905 -22.608  1.00  0.00    -0.299 N 
HETATM   11  C24 UNL     1       0.612  53.073 -22.270  1.00  0.00     0.036 A 
HETATM   12  N5  UNL     1       1.337  54.567 -23.836  1.00  0.00    -0.299 N 
HETATM   13  H19 UNL     1       2.312  55.747 -22.504  1.00  0.00     0.187 HD
HETATM   14  C17 UNL     1       0.655  53.424 -23.654  1.00  0.00     0.072 A 
ATOM     15  H5  UNL     1       1.498  55.066 -24.712  1.00  0.00     0.187 HD
HETATM   16  C25 UNL     1       0.029  52.068 -21.495  1.00  0.00     0.105 A 
HETATM   17  N6  UNL     1       0.209  52.050 -20.148  1.00  0.00    -0.351 N 
ATOM     18  H6  UNL     1      -0.216  51.312 -19.585  1.00  0.00     0.166 HD
BRANCH  14  19
HETATM   19  C18 UNL     1       0.053  52.722 -24.785  1.00  0.00    -0.007 A 
HETATM   20  C19 UNL     1      -1.326  52.824 -25.021  1.00  0.00     0.017 A 
HETATM   21  C20 UNL     1      -1.914  52.152 -26.096  1.00  0.00     0.043 A 
HETATM   22  C21 UNL     1      -1.119  51.387 -26.940  1.00  0.00     0.116 A 
HETATM   23  F2  UNL     1      -1.679  50.746 -27.975  1.00  0.00    -0.206 F 
HETATM   24  C22 UNL     1       0.251  51.280 -26.730  1.00  0.00     0.043 A 
HETATM   25  C23 UNL     1       0.840  51.950 -25.654  1.00  0.00     0.017 A 
ENDBRANCH  14  19
ENDBRANCH   4   7
BRANCH   1  26
HETATM   26  C12 UNL     1       0.554  50.990 -15.077  1.00  0.00     0.114 C 
HETATM   27  C11 UNL     1       0.353  49.610 -15.725  1.00  0.00     0.029 C 
HETATM   28  C10 UNL     1      -0.582  48.712 -14.915  1.00  0.00     0.032 C 
HETATM   29  C9  UNL     1      -0.640  49.126 -13.445  1.00  0.00     0.273 C 
HETATM   30  N1  UNL     1      -1.165  50.491 -13.274  1.00  0.00     0.094 N 
HETATM   31  C26 UNL     1      -0.720  51.421 -14.326  1.00  0.00     0.297 C 
BRANCH  30  32
HETATM   32  C8  UNL     1      -0.872  51.024 -11.929  1.00  0.00     0.317 C 
BRANCH  32  33
HETATM   33  C7  UNL     1      -1.873  52.045 -11.441  1.00  0.00     0.042 A 
HETATM   34  C2  UNL     1      -1.478  53.293 -10.925  1.00  0.00     0.079 A 
HETATM   35  C3  UNL     1      -2.452  54.204 -10.495  1.00  0.00     0.037 A 
HETATM   36  C4  UNL     1      -3.810  53.890 -10.580  1.00  0.00     0.006 A 
HETATM   37  C5  UNL     1      -4.205  52.659 -11.086  1.00  0.00     0.043 A 
HETATM   38  C6  UNL     1      -3.241  51.752 -11.508  1.00  0.00     0.127 A 
HETATM   39  F1  UNL     1      -3.649  50.570 -11.990  1.00  0.00    -0.205 F 
BRANCH  34  40
HETATM   40  O1  UNL     1      -0.130  53.515 -10.850  1.00  0.00    -0.355 OA
HETATM   41  C1  UNL     1       0.298  54.831 -10.533  1.00  0.00     0.210 C 
ENDBRANCH  34  40
ENDBRANCH  32  33
ENDBRANCH  30  32
ENDBRANCH   1  26
TORSDOF 6
ENDMDL
MODEL 2
REMARK minimizedAffinity -10.0827427
REMARK  6 active torsions:
REMARK  status: ('A' for Active; 'I' for Inactive)
REMARK    1  A    between atoms: O1_2  and  C2_3 
REMARK    2  A    between atoms: C7_9  and  C8_10 
REMARK    3  A    between atoms: C8_10  and  N1_11 
REMARK    4  A    between atoms: C12_15  and  N2_16 
REMARK       I    between atoms: N2_16  and  C13_17 
REMARK       I    between atoms: C13_17  and  N3_19 
REMARK    5  A    between atoms: N3_19  and  C14_20 
REMARK    6  A    between atoms: C17_26  and  C18_27 
ROOT
HETATM    1  N2  UNL     1       1.662  52.867 -16.019  1.00  0.00    -0.337 N 
HETATM    2  C13 UNL     1       1.087  52.222 -17.094  1.00  0.00     0.322 C 
HETATM    3  O2  UNL     1       0.683  51.069 -17.030  1.00  0.00    -0.247 OA
HETATM    4  N3  UNL     1       1.058  53.031 -18.196  1.00  0.00    -0.295 N 
HETATM    5  H16 UNL     1       1.605  53.874 -16.029  1.00  0.00     0.164 HD
HETATM    6  H17 UNL     1       1.510  53.930 -18.153  1.00  0.00     0.172 HD
ENDROOT
BRANCH   4   7
HETATM    7  C14 UNL     1       0.556  52.750 -19.466  1.00  0.00     0.111 A 
HETATM    8  C15 UNL     1      -0.693  52.183 -19.693  1.00  0.00     0.080 A 
HETATM    9  C16 UNL     1      -1.017  51.978 -21.034  1.00  0.00     0.065 A 
HETATM   10  N4  UNL     1      -2.117  51.433 -21.631  1.00  0.00    -0.299 N 
HETATM   11  C24 UNL     1      -0.171  52.330 -22.074  1.00  0.00     0.036 A 
HETATM   12  N5  UNL     1      -2.051  51.396 -22.972  1.00  0.00    -0.299 N 
HETATM   13  H19 UNL     1      -2.939  51.051 -21.180  1.00  0.00     0.187 HD
HETATM   14  C17 UNL     1      -0.874  51.973 -23.265  1.00  0.00     0.072 A 
ATOM     15  H5  UNL     1      -2.739  51.015 -23.621  1.00  0.00     0.187 HD
HETATM   16  C25 UNL     1       1.069  52.888 -21.755  1.00  0.00     0.105 A 
HETATM   17  N6  UNL     1       1.415  53.091 -20.456  1.00  0.00    -0.351 N 
ATOM     18  H6  UNL     1       2.321  53.502 -20.227  1.00  0.00     0.166 HD
BRANCH  14  19
HETATM   19  C18 UNL     1      -0.449  52.144 -24.653  1.00  0.00    -0.007 A 
HETATM   20  C19 UNL     1      -0.242  53.432 -25.169  1.00  0.00     0.017 A 
HETATM   21  C20 UNL     1       0.159  53.609 -26.496  1.00  0.00     0.043 A 
HETATM   22  C21 UNL     1       0.363  52.496 -27.302  1.00  0.00     0.116 A 
HETATM   23  F2  UNL     1       0.752  52.662 -28.573  1.00  0.00    -0.206 F 
HETATM   24  C22 UNL     1       0.173  51.211 -26.808  1.00  0.00     0.043 A 
HETATM   25  C23 UNL     1      -0.230  51.032 -25.482  1.00  0.00     0.017 A 
ENDBRANCH  14  19
ENDBRANCH   4   7
BRANCH   1  26
HETATM   26  C12 UNL     1       1.712  52.233 -14.705  1.00  0.00     0.114 C 
HETATM   27  C11 UNL     1       2.374  50.848 -14.795  1.00  0.00     0.029 C 
HETATM   28  C10 UNL     1       1.946  49.918 -13.661  1.00  0.00     0.032 C 
HETATM   29  C9  UNL     1       1.453  50.694 -12.440  1.00  0.00     0.273 C 
HETATM   30  N1  UNL     1       0.266  51.509 -12.744  1.00  0.00     0.094 N 
HETATM   31  C26 UNL     1       0.305  52.116 -14.087  1.00  0.00     0.297 C 
BRANCH  30  32
HETATM   32  C8  UNL     1       0.022  52.528 -11.703  1.00  0.00     0.317 C 
BRANCH  32  33
HETATM   33  C7  UNL     1      -1.438  52.730 -11.372  1.00  0.00     0.042 A 
HETATM   34  C2  UNL     1      -1.915  53.916 -10.785  1.00  0.00     0.079 A 
HETATM   35  C3  UNL     1      -3.281  54.051 -10.507  1.00  0.00     0.037 A 
HETATM   36  C4  UNL     1      -4.177  53.024 -10.814  1.00  0.00     0.006 A 
HETATM   37  C5  UNL     1      -3.712  51.851 -11.391  1.00  0.00     0.043 A 
HETATM   38  C6  UNL     1      -2.356  51.712 -11.662  1.00  0.00     0.127 A 
HETATM   39  F1  UNL     1      -1.933  50.568 -12.218  1.00  0.00    -0.205 F 
BRANCH  34  40
HETATM   40  O1  UNL     1      -0.972  54.864 -10.491  1.00  0.00    -0.355 OA
HETATM   41  C1  UNL     1       0.353  54.629 -10.944  1.00  0.00     0.210 C 
ENDBRANCH  34  40
ENDBRANCH  32  33
ENDBRANCH  30  32
ENDBRANCH   1  26
TORSDOF 6
ENDMDL
MODEL 3
REMARK minimizedAffinity -9.94599915
REMARK  6 active torsions:
REMARK  status: ('A' for Active; 'I' for Inactive)
REMARK    1  A    between atoms: O1_2  and  C2_3 
REMARK    2  A    between atoms: C7_9  and  C8_10 
REMARK    3  A    between atoms: C8_10  and  N1_11 
REMARK    4  A    between atoms: C12_15  and  N2_16 
REMARK       I    between atoms: N2_16  and  C13_17 
REMARK       I    between atoms: C13_17  and  N3_19 
REMARK    5  A    between atoms: N3_19  and  C14_20 
REMARK    6  A    between atoms: C17_26  and  C18_27 
ROOT
HETATM    1  N2  UNL     1       0.818  52.120 -16.044  1.00  0.00    -0.337 N 
HETATM    2  C13 UNL     1       0.671  51.843 -17.387  1.00  0.00     0.322 C 
HETATM    3  O2  UNL     1       0.393  50.726 -17.802  1.00  0.00    -0.247 OA
HETATM    4  N3  UNL     1       0.894  52.958 -18.147  1.00  0.00    -0.295 N 
HETATM    5  H16 UNL     1       0.659  53.079 -15.773  1.00  0.00     0.164 HD
HETATM    6  H17 UNL     1       1.212  53.800 -17.696  1.00  0.00     0.172 HD
ENDROOT
BRANCH   4   7
HETATM    7  C14 UNL     1       0.838  53.088 -19.535  1.00  0.00     0.111 A 
HETATM    8  C15 UNL     1       1.502  54.083 -20.243  1.00  0.00     0.080 A 
HETATM    9  C16 UNL     1       1.324  54.047 -21.625  1.00  0.00     0.065 A 
HETATM   10  N4  UNL     1       1.784  54.855 -22.624  1.00  0.00    -0.299 N 
HETATM   11  C24 UNL     1       0.557  53.081 -22.260  1.00  0.00     0.036 A 
HETATM   12  N5  UNL     1       1.375  54.498 -23.852  1.00  0.00    -0.299 N 
HETATM   13  H19 UNL     1       2.368  55.678 -22.532  1.00  0.00     0.187 HD
HETATM   14  C17 UNL     1       0.644  53.389 -23.651  1.00  0.00     0.072 A 
ATOM     15  H5  UNL     1       1.574  54.964 -24.737  1.00  0.00     0.187 HD
HETATM   16  C25 UNL     1      -0.082  52.123 -21.469  1.00  0.00     0.105 A 
HETATM   17  N6  UNL     1       0.069  52.139 -20.119  1.00  0.00    -0.351 N 
ATOM     18  H6  UNL     1      -0.398  51.435 -19.544  1.00  0.00     0.166 HD
BRANCH  14  19
HETATM   19  C18 UNL     1       0.039  52.678 -24.776  1.00  0.00    -0.007 A 
HETATM   20  C19 UNL     1      -1.349  52.732 -24.975  1.00  0.00     0.017 A 
HETATM   21  C20 UNL     1      -1.940  52.052 -26.043  1.00  0.00     0.043 A 
HETATM   22  C21 UNL     1      -1.140  51.325 -26.916  1.00  0.00     0.116 A 
HETATM   23  F2  UNL     1      -1.703  50.676 -27.943  1.00  0.00    -0.206 F 
HETATM   24  C22 UNL     1       0.237  51.266 -26.742  1.00  0.00     0.043 A 
HETATM   25  C23 UNL     1       0.830  51.944 -25.674  1.00  0.00     0.017 A 
ENDBRANCH  14  19
ENDBRANCH   4   7
BRANCH   1  26
HETATM   26  C12 UNL     1       0.531  51.105 -15.034  1.00  0.00     0.114 C 
HETATM   27  C11 UNL     1       0.042  49.806 -15.695  1.00  0.00     0.029 C 
HETATM   28  C10 UNL     1      -0.809  48.953 -14.755  1.00  0.00     0.032 C 
HETATM   29  C9  UNL     1      -0.520  49.260 -13.286  1.00  0.00     0.273 C 
HETATM   30  N1  UNL     1      -0.835  50.655 -12.939  1.00  0.00     0.094 N 
HETATM   31  C26 UNL     1      -0.505  51.610 -14.012  1.00  0.00     0.297 C 
BRANCH  30  32
HETATM   32  C8  UNL     1      -0.215  51.053 -11.659  1.00  0.00     0.317 C 
BRANCH  32  33
HETATM   33  C7  UNL     1      -0.571  52.452 -11.214  1.00  0.00     0.042 A 
HETATM   34  C2  UNL     1      -1.868  52.796 -10.793  1.00  0.00     0.079 A 
HETATM   35  C3  UNL     1      -2.139  54.108 -10.382  1.00  0.00     0.037 A 
HETATM   36  C4  UNL     1      -1.132  55.076 -10.379  1.00  0.00     0.006 A 
HETATM   37  C5  UNL     1       0.150  54.743 -10.795  1.00  0.00     0.043 A 
HETATM   38  C6  UNL     1       0.418  53.444 -11.208  1.00  0.00     0.127 A 
HETATM   39  F1  UNL     1       1.663  53.149 -11.607  1.00  0.00    -0.205 F 
BRANCH  34  40
HETATM   40  O1  UNL     1      -2.804  51.799 -10.850  1.00  0.00    -0.355 OA
HETATM   41  C1  UNL     1      -4.171  52.186 -10.842  1.00  0.00     0.210 C 
ENDBRANCH  34  40
ENDBRANCH  32  33
ENDBRANCH  30  32
ENDBRANCH   1  26
TORSDOF 6
ENDMDL
MODEL 4
REMARK minimizedAffinity -9.71810055
REMARK  6 active torsions:
REMARK  status: ('A' for Active; 'I' for Inactive)
REMARK    1  A    between atoms: O1_2  and  C2_3 
REMARK    2  A    between atoms: C7_9  and  C8_10 
REMARK    3  A    between atoms: C8_10  and  N1_11 
REMARK    4  A    between atoms: C12_15  and  N2_16 
REMARK       I    between atoms: N2_16  and  C13_17 
REMARK       I    between atoms: C13_17  and  N3_19 
REMARK    5  A    between atoms: N3_19  and  C14_20 
REMARK    6  A    between atoms: C17_26  and  C18_27 
ROOT
HETATM    1  N2  UNL     1      -2.576  49.622 -23.225  1.00  0.00    -0.337 N 
HETATM    2  C13 UNL     1      -2.972  49.575 -24.545  1.00  0.00     0.322 C 
HETATM    3  O2  UNL     1      -2.426  50.235 -25.419  1.00  0.00    -0.247 OA
HETATM    4  N3  UNL     1      -4.033  48.729 -24.712  1.00  0.00    -0.295 N 
HETATM    5  H16 UNL     1      -2.792  48.805 -22.672  1.00  0.00     0.164 HD
HETATM    6  H17 UNL     1      -4.459  48.314 -23.899  1.00  0.00     0.172 HD
ENDROOT
BRANCH   4   7
HETATM    7  C14 UNL     1      -4.712  48.409 -25.887  1.00  0.00     0.111 A 
HETATM    8  C15 UNL     1      -6.002  47.892 -25.916  1.00  0.00     0.080 A 
HETATM    9  C16 UNL     1      -6.512  47.636 -27.189  1.00  0.00     0.065 A 
HETATM   10  N4  UNL     1      -7.703  47.116 -27.605  1.00  0.00    -0.299 N 
HETATM   11  C24 UNL     1      -5.798  47.895 -28.349  1.00  0.00     0.036 A 
HETATM   12  N5  UNL     1      -7.818  47.009 -28.938  1.00  0.00    -0.299 N 
HETATM   13  H19 UNL     1      -8.472  46.797 -27.028  1.00  0.00     0.187 HD
HETATM   14  C17 UNL     1      -6.668  47.513 -29.415  1.00  0.00     0.072 A 
ATOM     15  H5  UNL     1      -8.603  46.630 -29.469  1.00  0.00     0.187 HD
HETATM   16  C25 UNL     1      -4.505  48.407 -28.227  1.00  0.00     0.105 A 
HETATM   17  N6  UNL     1      -3.980  48.658 -26.999  1.00  0.00    -0.351 N 
ATOM     18  H6  UNL     1      -3.035  49.035 -26.914  1.00  0.00     0.166 HD
BRANCH  14  19
HETATM   19  C18 UNL     1      -6.426  47.593 -30.854  1.00  0.00    -0.007 A 
HETATM   20  C19 UNL     1      -5.111  47.653 -31.342  1.00  0.00     0.017 A 
HETATM   21  C20 UNL     1      -4.867  47.737 -32.716  1.00  0.00     0.043 A 
HETATM   22  C21 UNL     1      -5.939  47.750 -33.600  1.00  0.00     0.116 A 
HETATM   23  F2  UNL     1      -5.707  47.825 -34.918  1.00  0.00    -0.206 F 
HETATM   24  C22 UNL     1      -7.248  47.682 -33.139  1.00  0.00     0.043 A 
HETATM   25  C23 UNL     1      -7.494  47.600 -31.766  1.00  0.00     0.017 A 
ENDBRANCH  14  19
ENDBRANCH   4   7
BRANCH   1  26
HETATM   26  C12 UNL     1      -1.398  50.384 -22.823  1.00  0.00     0.114 C 
HETATM   27  C11 UNL     1      -1.495  50.792 -21.344  1.00  0.00     0.029 C 
HETATM   28  C10 UNL     1      -0.659  52.030 -21.021  1.00  0.00     0.032 C 
HETATM   29  C9  UNL     1       0.478  52.230 -22.023  1.00  0.00     0.273 C 
HETATM   30  N1  UNL     1      -0.022  52.444 -23.391  1.00  0.00     0.094 N 
HETATM   31  C26 UNL     1      -1.207  51.628 -23.711  1.00  0.00     0.297 C 
BRANCH  30  32
HETATM   32  C8  UNL     1       1.044  52.259 -24.396  1.00  0.00     0.317 C 
BRANCH  32  33
HETATM   33  C7  UNL     1       0.601  52.528 -25.816  1.00  0.00     0.042 A 
HETATM   34  C2  UNL     1       0.035  53.756 -26.203  1.00  0.00     0.079 A 
HETATM   35  C3  UNL     1      -0.349  53.952 -27.536  1.00  0.00     0.037 A 
HETATM   36  C4  UNL     1      -0.170  52.944 -28.486  1.00  0.00     0.006 A 
HETATM   37  C5  UNL     1       0.387  51.729 -28.109  1.00  0.00     0.043 A 
HETATM   38  C6  UNL     1       0.763  51.531 -26.786  1.00  0.00     0.127 A 
HETATM   39  F1  UNL     1       1.295  50.348 -26.448  1.00  0.00    -0.205 F 
BRANCH  34  40
HETATM   40  O1  UNL     1      -0.132  54.683 -25.210  1.00  0.00    -0.355 OA
HETATM   41  C1  UNL     1       0.636  55.875 -25.294  1.00  0.00     0.210 C 
ENDBRANCH  34  40
ENDBRANCH  32  33
ENDBRANCH  30  32
ENDBRANCH   1  26
TORSDOF 6
ENDMDL
MODEL 5
REMARK minimizedAffinity -9.71443939
REMARK  6 active torsions:
REMARK  status: ('A' for Active; 'I' for Inactive)
REMARK    1  A    between atoms: O1_2  and  C2_3 
REMARK    2  A    between atoms: C7_9  and  C8_10 
REMARK    3  A    between atoms: C8_10  and  N1_11 
REMARK    4  A    between atoms: C12_15  and  N2_16 
REMARK       I    between atoms: N2_16  and  C13_17 
REMARK       I    between atoms: C13_17  and  N3_19 
REMARK    5  A    between atoms: N3_19  and  C14_20 
REMARK    6  A    between atoms: C17_26  and  C18_27 
ROOT
HETATM    1  N2  UNL     1      -4.861  49.048 -28.984  1.00  0.00    -0.337 N 
HETATM    2  C13 UNL     1      -3.989  49.202 -27.927  1.00  0.00     0.322 C 
HETATM    3  O2  UNL     1      -3.822  48.335 -27.079  1.00  0.00    -0.247 OA
HETATM    4  N3  UNL     1      -3.382  50.427 -27.963  1.00  0.00    -0.295 N 
HETATM    5  H16 UNL     1      -4.659  49.599 -29.805  1.00  0.00     0.164 HD
HETATM    6  H17 UNL     1      -3.673  51.095 -28.658  1.00  0.00     0.172 HD
ENDROOT
BRANCH   4   7
HETATM    7  C14 UNL     1      -2.439  50.955 -27.081  1.00  0.00     0.111 A 
HETATM    8  C15 UNL     1      -1.283  51.609 -27.490  1.00  0.00     0.080 A 
HETATM    9  C16 UNL     1      -0.464  52.068 -26.459  1.00  0.00     0.065 A 
HETATM   10  N4  UNL     1       0.737  52.716 -26.470  1.00  0.00    -0.299 N 
HETATM   11  C24 UNL     1      -0.782  51.907 -25.119  1.00  0.00     0.036 A 
HETATM   12  N5  UNL     1       1.228  52.982 -25.249  1.00  0.00    -0.299 N 
HETATM   13  H19 UNL     1       1.283  52.989 -27.278  1.00  0.00     0.187 HD
HETATM   14  C17 UNL     1       0.292  52.520 -24.404  1.00  0.00     0.072 A 
ATOM     15  H5  UNL     1       2.113  53.434 -25.016  1.00  0.00     0.187 HD
HETATM   16  C25 UNL     1      -1.961  51.231 -24.798  1.00  0.00     0.105 A 
HETATM   17  N6  UNL     1      -2.774  50.766 -25.783  1.00  0.00    -0.351 N 
ATOM     18  H6  UNL     1      -3.636  50.274 -25.544  1.00  0.00     0.166 HD
BRANCH  14  19
HETATM   19  C18 UNL     1       0.457  52.654 -22.958  1.00  0.00    -0.007 A 
HETATM   20  C19 UNL     1       1.101  53.782 -22.427  1.00  0.00     0.017 A 
HETATM   21  C20 UNL     1       1.269  53.919 -21.046  1.00  0.00     0.043 A 
HETATM   22  C21 UNL     1       0.784  52.931 -20.198  1.00  0.00     0.116 A 
HETATM   23  F2  UNL     1       0.940  53.062 -18.874  1.00  0.00    -0.206 F 
HETATM   24  C22 UNL     1       0.135  51.811 -20.703  1.00  0.00     0.043 A 
HETATM   25  C23 UNL     1      -0.033  51.672 -22.083  1.00  0.00     0.017 A 
ENDBRANCH  14  19
ENDBRANCH   4   7
BRANCH   1  26
HETATM   26  C12 UNL     1      -5.551  47.781 -29.207  1.00  0.00     0.114 C 
HETATM   27  C11 UNL     1      -5.032  47.099 -30.484  1.00  0.00     0.029 C 
HETATM   28  C10 UNL     1      -6.051  46.136 -31.091  1.00  0.00     0.032 C 
HETATM   29  C9  UNL     1      -7.060  45.643 -30.054  1.00  0.00     0.273 C 
HETATM   30  N1  UNL     1      -7.854  46.745 -29.487  1.00  0.00     0.094 N 
HETATM   31  C26 UNL     1      -7.076  47.980 -29.288  1.00  0.00     0.297 C 
BRANCH  30  32
HETATM   32  C8  UNL     1      -8.542  46.339 -28.245  1.00  0.00     0.317 C 
BRANCH  32  33
HETATM   33  C7  UNL     1      -9.913  46.950 -28.074  1.00  0.00     0.042 A 
HETATM   34  C2  UNL     1     -10.301  47.595 -26.886  1.00  0.00     0.079 A 
HETATM   35  C3  UNL     1     -11.583  48.152 -26.786  1.00  0.00     0.037 A 
HETATM   36  C4  UNL     1     -12.477  48.079 -27.857  1.00  0.00     0.006 A 
HETATM   37  C5  UNL     1     -12.100  47.442 -29.031  1.00  0.00     0.043 A 
HETATM   38  C6  UNL     1     -10.831  46.885 -29.130  1.00  0.00     0.127 A 
HETATM   39  F1  UNL     1     -10.492  46.274 -30.273  1.00  0.00    -0.205 F 
BRANCH  34  40
HETATM   40  O1  UNL     1      -9.380  47.601 -25.874  1.00  0.00    -0.355 OA
HETATM   41  C1  UNL     1      -9.026  48.861 -25.321  1.00  0.00     0.210 C 
ENDBRANCH  34  40
ENDBRANCH  32  33
ENDBRANCH  30  32
ENDBRANCH   1  26
TORSDOF 6
ENDMDL
MODEL 6
REMARK minimizedAffinity -9.61052608
REMARK  6 active torsions:
REMARK  status: ('A' for Active; 'I' for Inactive)
REMARK    1  A    between atoms: O1_2  and  C2_3 
REMARK    2  A    between atoms: C7_9  and  C8_10 
REMARK    3  A    between atoms: C8_10  and  N1_11 
REMARK    4  A    between atoms: C12_15  and  N2_16 
REMARK       I    between atoms: N2_16  and  C13_17 
REMARK       I    between atoms: C13_17  and  N3_19 
REMARK    5  A    between atoms: N3_19  and  C14_20 
REMARK    6  A    between atoms: C17_26  and  C18_27 
ROOT
HETATM    1  N2  UNL     1       0.288  51.777 -16.305  1.00  0.00    -0.337 N 
HETATM    2  C13 UNL     1       0.859  52.340 -17.427  1.00  0.00     0.322 C 
HETATM    3  O2  UNL     1       1.905  52.974 -17.385  1.00  0.00    -0.247 OA
HETATM    4  N3  UNL     1       0.098  52.105 -18.538  1.00  0.00    -0.295 N 
HETATM    5  H16 UNL     1      -0.314  50.985 -16.469  1.00  0.00     0.164 HD
HETATM    6  H17 UNL     1      -0.795  51.652 -18.431  1.00  0.00     0.172 HD
ENDROOT
BRANCH   4   7
HETATM    7  C14 UNL     1       0.337  52.501 -19.854  1.00  0.00     0.111 A 
HETATM    8  C15 UNL     1       0.981  53.684 -20.197  1.00  0.00     0.080 A 
HETATM    9  C16 UNL     1       1.128  53.904 -21.566  1.00  0.00     0.065 A 
HETATM   10  N4  UNL     1       1.671  54.941 -22.268  1.00  0.00    -0.299 N 
HETATM   11  C24 UNL     1       0.684  53.005 -22.524  1.00  0.00     0.036 A 
HETATM   12  N5  UNL     1       1.611  54.792 -23.601  1.00  0.00    -0.299 N 
HETATM   13  H19 UNL     1       2.084  55.788 -21.898  1.00  0.00     0.187 HD
HETATM   14  C17 UNL     1       1.035  53.591 -23.778  1.00  0.00     0.072 A 
ATOM     15  H5  UNL     1       1.931  55.443 -24.318  1.00  0.00     0.187 HD
HETATM   16  C25 UNL     1       0.040  51.845 -22.090  1.00  0.00     0.105 A 
HETATM   17  N6  UNL     1      -0.123  51.608 -20.761  1.00  0.00    -0.351 N 
ATOM     18  H6  UNL     1      -0.593  50.757 -20.448  1.00  0.00     0.166 HD
BRANCH  14  19
HETATM   19  C18 UNL     1       0.817  53.055 -25.120  1.00  0.00    -0.007 A 
HETATM   20  C19 UNL     1      -0.042  53.719 -26.010  1.00  0.00     0.017 A 
HETATM   21  C20 UNL     1      -0.262  53.213 -27.294  1.00  0.00     0.043 A 
HETATM   22  C21 UNL     1       0.386  52.049 -27.689  1.00  0.00     0.116 A 
HETATM   23  F2  UNL     1       0.180  51.564 -28.921  1.00  0.00    -0.206 F 
HETATM   24  C22 UNL     1       1.247  51.381 -26.827  1.00  0.00     0.043 A 
HETATM   25  C23 UNL     1       1.467  51.885 -25.543  1.00  0.00     0.017 A 
ENDBRANCH  14  19
ENDBRANCH   4   7
BRANCH   1  26
HETATM   26  C12 UNL     1       0.973  51.815 -15.016  1.00  0.00     0.114 C 
HETATM   27  C11 UNL     1       1.994  50.670 -14.911  1.00  0.00     0.029 C 
HETATM   28  C10 UNL     1       2.297  50.285 -13.464  1.00  0.00     0.032 C 
HETATM   29  C9  UNL     1       2.000  51.429 -12.494  1.00  0.00     0.273 C 
HETATM   30  N1  UNL     1       0.578  51.809 -12.506  1.00  0.00     0.094 N 
HETATM   31  C26 UNL     1      -0.028  51.750 -13.848  1.00  0.00     0.297 C 
BRANCH  30  32
HETATM   32  C8  UNL     1       0.361  53.128 -11.877  1.00  0.00     0.317 C 
BRANCH  32  33
HETATM   33  C7  UNL     1      -0.353  53.063 -10.547  1.00  0.00     0.042 A 
HETATM   34  C2  UNL     1      -1.757  53.068 -10.451  1.00  0.00     0.079 A 
HETATM   35  C3  UNL     1      -2.365  52.998  -9.191  1.00  0.00     0.037 A 
HETATM   36  C4  UNL     1      -1.593  52.916  -8.030  1.00  0.00     0.006 A 
HETATM   37  C5  UNL     1      -0.208  52.913  -8.119  1.00  0.00     0.043 A 
HETATM   38  C6  UNL     1       0.397  52.989  -9.367  1.00  0.00     0.127 A 
HETATM   39  F1  UNL     1       1.736  52.986  -9.425  1.00  0.00    -0.205 F 
BRANCH  34  40
HETATM   40  O1  UNL     1      -2.442  53.176 -11.631  1.00  0.00    -0.355 OA
HETATM   41  C1  UNL     1      -3.859  53.100 -11.572  1.00  0.00     0.210 C 
ENDBRANCH  34  40
ENDBRANCH  32  33
ENDBRANCH  30  32
ENDBRANCH   1  26
TORSDOF 6
ENDMDL
MODEL 7
REMARK minimizedAffinity -9.51045418
REMARK  6 active torsions:
REMARK  status: ('A' for Active; 'I' for Inactive)
REMARK    1  A    between atoms: O1_2  and  C2_3 
REMARK    2  A    between atoms: C7_9  and  C8_10 
REMARK    3  A    between atoms: C8_10  and  N1_11 
REMARK    4  A    between atoms: C12_15  and  N2_16 
REMARK       I    between atoms: N2_16  and  C13_17 
REMARK       I    between atoms: C13_17  and  N3_19 
REMARK    5  A    between atoms: N3_19  and  C14_20 
REMARK    6  A    between atoms: C17_26  and  C18_27 
ROOT
HETATM    1  N2  UNL     1      -2.470  50.734 -20.630  1.00  0.00    -0.337 N 
HETATM    2  C13 UNL     1      -1.428  51.344 -19.964  1.00  0.00     0.322 C 
HETATM    3  O2  UNL     1      -0.844  52.323 -20.410  1.00  0.00    -0.247 OA
HETATM    4  N3  UNL     1      -1.150  50.700 -18.789  1.00  0.00    -0.295 N 
HETATM    5  H16 UNL     1      -3.119  50.219 -20.054  1.00  0.00     0.164 HD
HETATM    6  H17 UNL     1      -1.636  49.845 -18.575  1.00  0.00     0.172 HD
ENDROOT
BRANCH   4   7
HETATM    7  C14 UNL     1      -0.179  51.011 -17.838  1.00  0.00     0.111 A 
HETATM    8  C15 UNL     1       0.660  52.116 -17.926  1.00  0.00     0.080 A 
HETATM    9  C16 UNL     1       1.567  52.258 -16.876  1.00  0.00     0.065 A 
HETATM   10  N4  UNL     1       2.543  53.181 -16.634  1.00  0.00    -0.299 N 
HETATM   11  C24 UNL     1       1.622  51.377 -15.806  1.00  0.00     0.036 A 
HETATM   12  N5  UNL     1       3.231  52.969 -15.501  1.00  0.00    -0.299 N 
HETATM   13  H19 UNL     1       2.802  53.971 -17.213  1.00  0.00     0.187 HD
HETATM   14  C17 UNL     1       2.658  51.880 -14.961  1.00  0.00     0.072 A 
ATOM     15  H5  UNL     1       4.013  53.511 -15.133  1.00  0.00     0.187 HD
HETATM   16  C25 UNL     1       0.747  50.289 -15.803  1.00  0.00     0.105 A 
HETATM   17  N6  UNL     1      -0.142  50.122 -16.817  1.00  0.00    -0.351 N 
ATOM     18  H6  UNL     1      -0.782  49.326 -16.810  1.00  0.00     0.166 HD
BRANCH  14  19
HETATM   19  C18 UNL     1       3.123  51.345 -13.683  1.00  0.00    -0.007 A 
HETATM   20  C19 UNL     1       2.688  51.924 -12.480  1.00  0.00     0.017 A 
HETATM   21  C20 UNL     1       3.130  51.425 -11.252  1.00  0.00     0.043 A 
HETATM   22  C21 UNL     1       3.999  50.341 -11.229  1.00  0.00     0.116 A 
HETATM   23  F2  UNL     1       4.420  49.858 -10.052  1.00  0.00    -0.206 F 
HETATM   24  C22 UNL     1       4.434  49.747 -12.407  1.00  0.00     0.043 A 
HETATM   25  C23 UNL     1       3.994  50.246 -13.636  1.00  0.00     0.017 A 
ENDBRANCH  14  19
ENDBRANCH   4   7
BRANCH   1  26
HETATM   26  C12 UNL     1      -3.007  51.305 -21.861  1.00  0.00     0.114 C 
HETATM   27  C11 UNL     1      -4.449  50.826 -22.097  1.00  0.00     0.029 C 
HETATM   28  C10 UNL     1      -4.851  50.875 -23.570  1.00  0.00     0.032 C 
HETATM   29  C9  UNL     1      -4.006  51.876 -24.360  1.00  0.00     0.273 C 
HETATM   30  N1  UNL     1      -2.578  51.518 -24.357  1.00  0.00     0.094 N 
HETATM   31  C26 UNL     1      -2.122  50.958 -23.073  1.00  0.00     0.297 C 
BRANCH  30  32
HETATM   32  C8  UNL     1      -1.731  52.652 -24.778  1.00  0.00     0.317 C 
BRANCH  32  33
HETATM   33  C7  UNL     1      -0.655  52.278 -25.771  1.00  0.00     0.042 A 
HETATM   34  C2  UNL     1      -0.930  52.096 -27.139  1.00  0.00     0.079 A 
HETATM   35  C3  UNL     1       0.109  51.758 -28.016  1.00  0.00     0.037 A 
HETATM   36  C4  UNL     1       1.416  51.608 -27.548  1.00  0.00     0.006 A 
HETATM   37  C5  UNL     1       1.693  51.784 -26.199  1.00  0.00     0.043 A 
HETATM   38  C6  UNL     1       0.663  52.113 -25.327  1.00  0.00     0.127 A 
HETATM   39  F1  UNL     1       0.956  52.276 -24.030  1.00  0.00    -0.205 F 
BRANCH  34  40
HETATM   40  O1  UNL     1      -2.239  52.235 -27.514  1.00  0.00    -0.355 OA
HETATM   41  C1  UNL     1      -2.937  51.059 -27.896  1.00  0.00     0.210 C 
ENDBRANCH  34  40
ENDBRANCH  32  33
ENDBRANCH  30  32
ENDBRANCH   1  26
TORSDOF 6
ENDMDL
MODEL 8
REMARK minimizedAffinity -9.50808144
REMARK  6 active torsions:
REMARK  status: ('A' for Active; 'I' for Inactive)
REMARK    1  A    between atoms: O1_2  and  C2_3 
REMARK    2  A    between atoms: C7_9  and  C8_10 
REMARK    3  A    between atoms: C8_10  and  N1_11 
REMARK    4  A    between atoms: C12_15  and  N2_16 
REMARK       I    between atoms: N2_16  and  C13_17 
REMARK       I    between atoms: C13_17  and  N3_19 
REMARK    5  A    between atoms: N3_19  and  C14_20 
REMARK    6  A    between atoms: C17_26  and  C18_27 
ROOT
HETATM    1  N2  UNL     1      -1.098  50.435 -22.505  1.00  0.00    -0.337 N 
HETATM    2  C13 UNL     1      -2.130  50.466 -23.418  1.00  0.00     0.322 C 
HETATM    3  O2  UNL     1      -2.789  51.475 -23.632  1.00  0.00    -0.247 OA
HETATM    4  N3  UNL     1      -2.307  49.244 -24.005  1.00  0.00    -0.295 N 
HETATM    5  H16 UNL     1      -0.390  49.733 -22.666  1.00  0.00     0.164 HD
HETATM    6  H17 UNL     1      -1.764  48.462 -23.676  1.00  0.00     0.172 HD
ENDROOT
BRANCH   4   7
HETATM    7  C14 UNL     1      -3.238  48.873 -24.975  1.00  0.00     0.111 A 
HETATM    8  C15 UNL     1      -4.586  48.665 -24.709  1.00  0.00     0.080 A 
HETATM    9  C16 UNL     1      -5.359  48.299 -25.811  1.00  0.00     0.065 A 
HETATM   10  N4  UNL     1      -6.684  47.994 -25.933  1.00  0.00    -0.299 N 
HETATM   11  C24 UNL     1      -4.833  48.169 -27.088  1.00  0.00     0.036 A 
HETATM   12  N5  UNL     1      -7.059  47.669 -27.180  1.00  0.00    -0.299 N 
HETATM   13  H19 UNL     1      -7.381  47.971 -25.199  1.00  0.00     0.187 HD
HETATM   14  C17 UNL     1      -5.941  47.802 -27.912  1.00  0.00     0.072 A 
ATOM     15  H5  UNL     1      -7.986  47.386 -27.500  1.00  0.00     0.187 HD
HETATM   16  C25 UNL     1      -3.465  48.388 -27.263  1.00  0.00     0.105 A 
HETATM   17  N6  UNL     1      -2.687  48.738 -26.205  1.00  0.00    -0.351 N 
ATOM     18  H6  UNL     1      -1.688  48.901 -26.337  1.00  0.00     0.166 HD
BRANCH  14  19
HETATM   19  C18 UNL     1      -5.954  47.556 -29.352  1.00  0.00    -0.007 A 
HETATM   20  C19 UNL     1      -6.523  46.376 -29.858  1.00  0.00     0.017 A 
HETATM   21  C20 UNL     1      -6.537  46.127 -31.233  1.00  0.00     0.043 A 
HETATM   22  C21 UNL     1      -5.991  47.064 -32.101  1.00  0.00     0.116 A 
HETATM   23  F2  UNL     1      -6.007  46.830 -33.420  1.00  0.00    -0.206 F 
HETATM   24  C22 UNL     1      -5.431  48.243 -31.623  1.00  0.00     0.043 A 
HETATM   25  C23 UNL     1      -5.415  48.492 -30.248  1.00  0.00     0.017 A 
ENDBRANCH  14  19
ENDBRANCH   4   7
BRANCH   1  26
HETATM   26  C12 UNL     1      -0.661  51.652 -21.826  1.00  0.00     0.114 C 
HETATM   27  C11 UNL     1       0.237  52.494 -22.746  1.00  0.00     0.029 C 
HETATM   28  C10 UNL     1       1.175  53.415 -21.968  1.00  0.00     0.032 C 
HETATM   29  C9  UNL     1       0.646  53.717 -20.566  1.00  0.00     0.273 C 
HETATM   30  N1  UNL     1       0.527  52.500 -19.746  1.00  0.00     0.094 N 
HETATM   31  C26 UNL     1       0.073  51.326 -20.511  1.00  0.00     0.297 C 
BRANCH  30  32
HETATM   32  C8  UNL     1      -0.321  52.725 -18.558  1.00  0.00     0.317 C 
BRANCH  32  33
HETATM   33  C7  UNL     1      -0.638  51.466 -17.783  1.00  0.00     0.042 A 
HETATM   34  C2  UNL     1      -1.924  50.896 -17.777  1.00  0.00     0.079 A 
HETATM   35  C3  UNL     1      -2.158  49.723 -17.047  1.00  0.00     0.037 A 
HETATM   36  C4  UNL     1      -1.127  49.110 -16.332  1.00  0.00     0.006 A 
HETATM   37  C5  UNL     1       0.144  49.670 -16.334  1.00  0.00     0.043 A 
HETATM   38  C6  UNL     1       0.376  50.836 -17.052  1.00  0.00     0.127 A 
HETATM   39  F1  UNL     1       1.611  51.356 -17.035  1.00  0.00    -0.205 F 
BRANCH  34  40
HETATM   40  O1  UNL     1      -2.886  51.570 -18.479  1.00  0.00    -0.355 OA
HETATM   41  C1  UNL     1      -3.506  50.886 -19.558  1.00  0.00     0.210 C 
ENDBRANCH  34  40
ENDBRANCH  32  33
ENDBRANCH  30  32
ENDBRANCH   1  26
TORSDOF 6
ENDMDL
MODEL 9
REMARK minimizedAffinity -9.48742676
REMARK  6 active torsions:
REMARK  status: ('A' for Active; 'I' for Inactive)
REMARK    1  A    between atoms: O1_2  and  C2_3 
REMARK    2  A    between atoms: C7_9  and  C8_10 
REMARK    3  A    between atoms: C8_10  and  N1_11 
REMARK    4  A    between atoms: C12_15  and  N2_16 
REMARK       I    between atoms: N2_16  and  C13_17 
REMARK       I    between atoms: C13_17  and  N3_19 
REMARK    5  A    between atoms: N3_19  and  C14_20 
REMARK    6  A    between atoms: C17_26  and  C18_27 
ROOT
HETATM    1  N2  UNL     1      -2.710  49.359 -21.264  1.00  0.00    -0.337 N 
HETATM    2  C13 UNL     1      -1.765  50.142 -20.635  1.00  0.00     0.322 C 
HETATM    3  O2  UNL     1      -1.199  51.070 -21.196  1.00  0.00    -0.247 OA
HETATM    4  N3  UNL     1      -1.555  49.724 -19.349  1.00  0.00    -0.295 N 
HETATM    5  H16 UNL     1      -3.378  48.905 -20.659  1.00  0.00     0.164 HD
HETATM    6  H17 UNL     1      -2.011  48.885 -19.029  1.00  0.00     0.172 HD
ENDROOT
BRANCH   4   7
HETATM    7  C14 UNL     1      -0.689  50.254 -18.394  1.00  0.00     0.111 A 
HETATM    8  C15 UNL     1      -0.173  51.544 -18.454  1.00  0.00     0.080 A 
HETATM    9  C16 UNL     1       0.677  51.893 -17.405  1.00  0.00     0.065 A 
HETATM   10  N4  UNL     1       1.377  53.034 -17.141  1.00  0.00    -0.299 N 
HETATM   11  C24 UNL     1       0.977  51.029 -16.362  1.00  0.00     0.036 A 
HETATM   12  N5  UNL     1       2.111  52.980 -16.018  1.00  0.00    -0.299 N 
HETATM   13  H19 UNL     1       1.411  53.880 -17.697  1.00  0.00     0.187 HD
HETATM   14  C17 UNL     1       1.853  51.765 -15.507  1.00  0.00     0.072 A 
ATOM     15  H5  UNL     1       2.726  53.700 -15.638  1.00  0.00     0.187 HD
HETATM   16  C25 UNL     1       0.421  49.748 -16.386  1.00  0.00     0.105 A 
HETATM   17  N6  UNL     1      -0.405  49.379 -17.401  1.00  0.00    -0.351 N 
ATOM     18  H6  UNL     1      -0.812  48.443 -17.413  1.00  0.00     0.166 HD
BRANCH  14  19
HETATM   19  C18 UNL     1       2.459  51.338 -14.248  1.00  0.00    -0.007 A 
HETATM   20  C19 UNL     1       3.539  50.441 -14.258  1.00  0.00     0.017 A 
HETATM   21  C20 UNL     1       4.123  50.021 -13.060  1.00  0.00     0.043 A 
HETATM   22  C21 UNL     1       3.632  50.506 -11.854  1.00  0.00     0.116 A 
HETATM   23  F2  UNL     1       4.194  50.108 -10.704  1.00  0.00    -0.206 F 
HETATM   24  C22 UNL     1       2.570  51.402 -11.822  1.00  0.00     0.043 A 
HETATM   25  C23 UNL     1       1.984  51.822 -13.019  1.00  0.00     0.017 A 
ENDBRANCH  14  19
ENDBRANCH   4   7
BRANCH   1  26
HETATM   26  C12 UNL     1      -3.169  49.679 -22.612  1.00  0.00     0.114 C 
HETATM   27  C11 UNL     1      -4.208  48.651 -23.090  1.00  0.00     0.029 C 
HETATM   28  C10 UNL     1      -4.284  48.556 -24.612  1.00  0.00     0.032 C 
HETATM   29  C9  UNL     1      -3.779  49.830 -25.290  1.00  0.00     0.273 C 
HETATM   30  N1  UNL     1      -2.363  50.094 -24.986  1.00  0.00     0.094 N 
HETATM   31  C26 UNL     1      -1.991  49.750 -23.602  1.00  0.00     0.297 C 
BRANCH  30  32
HETATM   32  C8  UNL     1      -1.985  51.484 -25.312  1.00  0.00     0.317 C 
BRANCH  32  33
HETATM   33  C7  UNL     1      -0.676  51.606 -26.057  1.00  0.00     0.042 A 
HETATM   34  C2  UNL     1       0.537  51.876 -25.397  1.00  0.00     0.079 A 
HETATM   35  C3  UNL     1       1.723  51.970 -26.138  1.00  0.00     0.037 A 
HETATM   36  C4  UNL     1       1.714  51.791 -27.523  1.00  0.00     0.006 A 
HETATM   37  C5  UNL     1       0.520  51.526 -28.179  1.00  0.00     0.043 A 
HETATM   38  C6  UNL     1      -0.658  51.438 -27.447  1.00  0.00     0.127 A 
HETATM   39  F1  UNL     1      -1.797  51.184 -28.105  1.00  0.00    -0.205 F 
BRANCH  34  40
HETATM   40  O1  UNL     1       0.458  52.065 -24.044  1.00  0.00    -0.355 OA
HETATM   41  C1  UNL     1       0.705  53.375 -23.552  1.00  0.00     0.210 C 
ENDBRANCH  34  40
ENDBRANCH  32  33
ENDBRANCH  30  32
ENDBRANCH   1  26
TORSDOF 6
ENDMDL
