MODEL 1
REMARK minimizedAffinity -8.62266064
REMARK  6 active torsions:
REMARK  status: ('A' for Active; 'I' for Inactive)
REMARK    1  A    between atoms: O1_2  and  C2_3 
REMARK    2  A    between atoms: C2_3  and  C3_4 
REMARK    3  A    between atoms: C3_4  and  N1_5 
REMARK    4  A    between atoms: C3_4  and  C15_26 
REMARK       I    between atoms: N1_5  and  C4_6 
REMARK       I    between atoms: C4_6  and  N2_8 
REMARK    5  A    between atoms: N2_8  and  C5_9 
REMARK    6  A    between atoms: N5_16  and  C9_17 
ROOT
HETATM    1  C5  UNL     1       0.800  52.949 -19.673  1.00  0.00     0.111 A 
HETATM    2  C6  UNL     1       1.293  54.061 -20.344  1.00  0.00     0.080 A 
HETATM    3  C7  UNL     1       1.239  53.987 -21.735  1.00  0.00     0.067 A 
HETATM    4  N3  UNL     1       1.618  54.861 -22.713  1.00  0.00    -0.298 N 
HETATM    5  N4  UNL     1       1.398  54.418 -23.962  1.00  0.00    -0.284 N 
ATOM      6  H4  UNL     1       1.603  54.894 -24.840  1.00  0.00     0.188 HD
HETATM    7  C8  UNL     1       0.851  53.213 -23.791  1.00  0.00     0.130 A 
HETATM    8  N5  UNL     1       0.457  52.386 -24.787  1.00  0.00    -0.368 N 
HETATM    9  C13 UNL     1       0.727  52.888 -22.411  1.00  0.00     0.052 A 
HETATM   10  C14 UNL     1       0.244  51.819 -21.655  1.00  0.00     0.107 A 
HETATM   11  N6  UNL     1       0.288  51.862 -20.297  1.00  0.00    -0.351 N 
ATOM     12  H6  UNL     1      -0.065  51.077 -19.749  1.00  0.00     0.166 HD
HETATM   13  H10 UNL     1       2.036  55.777 -22.595  1.00  0.00     0.187 HD
HETATM   14  H11 UNL     1       0.314  51.404 -24.583  1.00  0.00     0.161 HD
ENDROOT
BRANCH   1  15
HETATM   15  N2  UNL     1       0.762  52.847 -18.282  1.00  0.00    -0.295 N 
HETATM   16  C4  UNL     1       0.465  51.751 -17.515  1.00  0.00     0.322 C 
HETATM   17  N1  UNL     1       0.607  52.037 -16.174  1.00  0.00    -0.332 N 
HETATM   18  O2  UNL     1       0.107  50.656 -17.930  1.00  0.00    -0.247 OA
HETATM   19  H7  UNL     1       1.270  52.761 -15.954  1.00  0.00     0.165 HD
HETATM   20  H8  UNL     1       0.851  53.741 -17.826  1.00  0.00     0.172 HD
BRANCH  17  21
HETATM   21  C3  UNL     1       0.437  50.992 -15.164  1.00  0.00     0.143 C 
BRANCH  21  22
HETATM   22  C2  UNL     1      -0.456  51.477 -13.998  1.00  0.00     0.197 C 
BRANCH  22  23
HETATM   23  O1  UNL     1      -0.038  52.779 -13.566  1.00  0.00    -0.394 OA
HETATM   24  C1  UNL     1      -0.068  52.898 -12.150  1.00  0.00     0.201 C 
ENDBRANCH  22  23
ENDBRANCH  21  22
BRANCH  21  25
HETATM   25  C15 UNL     1       1.805  50.521 -14.688  1.00  0.00    -0.033 A 
HETATM   26  C16 UNL     1       1.989  49.286 -14.044  1.00  0.00     0.009 A 
HETATM   27  C17 UNL     1       3.256  48.893 -13.607  1.00  0.00     0.001 A 
HETATM   28  C18 UNL     1       4.353  49.731 -13.795  1.00  0.00     0.000 A 
HETATM   29  C19 UNL     1       4.183  50.968 -14.412  1.00  0.00     0.001 A 
HETATM   30  C20 UNL     1       2.918  51.361 -14.852  1.00  0.00     0.009 A 
ENDBRANCH  21  25
ENDBRANCH  17  21
ENDBRANCH   1  15
BRANCH   8  31
HETATM   31  C9  UNL     1       0.826  52.671 -26.168  1.00  0.00     0.109 C 
HETATM   32  C10 UNL     1       0.945  51.407 -26.993  1.00  0.00     0.053 C 
HETATM   33  C11 UNL     1       0.679  51.920 -28.388  1.00  0.00     0.169 C 
HETATM   34  O3  UNL     1      -0.333  52.924 -28.256  1.00  0.00    -0.389 OA
HETATM   35  C12 UNL     1      -0.268  53.440 -26.914  1.00  0.00     0.192 C 
ENDBRANCH   8  31
TORSDOF 6
ENDMDL
MODEL 2
REMARK minimizedAffinity -8.41215134
REMARK  6 active torsions:
REMARK  status: ('A' for Active; 'I' for Inactive)
REMARK    1  A    between atoms: O1_2  and  C2_3 
REMARK    2  A    between atoms: C2_3  and  C3_4 
REMARK    3  A    between atoms: C3_4  and  N1_5 
REMARK    4  A    between atoms: C3_4  and  C15_26 
REMARK       I    between atoms: N1_5  and  C4_6 
REMARK       I    between atoms: C4_6  and  N2_8 
REMARK    5  A    between atoms: N2_8  and  C5_9 
REMARK    6  A    between atoms: N5_16  and  C9_17 
ROOT
HETATM    1  C5  UNL     1      -0.377  50.879 -20.816  1.00  0.00     0.111 A 
HETATM    2  C6  UNL     1       0.380  52.013 -20.544  1.00  0.00     0.080 A 
HETATM    3  C7  UNL     1       0.656  52.232 -19.195  1.00  0.00     0.067 A 
HETATM    4  N3  UNL     1       1.354  53.215 -18.553  1.00  0.00    -0.298 N 
HETATM    5  N4  UNL     1       1.398  53.074 -17.218  1.00  0.00    -0.284 N 
ATOM      6  H4  UNL     1       1.854  53.683 -16.539  1.00  0.00     0.188 HD
HETATM    7  C8  UNL     1       0.707  51.957 -16.983  1.00  0.00     0.130 A 
HETATM    8  N5  UNL     1       0.488  51.418 -15.760  1.00  0.00    -0.368 N 
HETATM    9  C13 UNL     1       0.216  51.384 -18.189  1.00  0.00     0.052 A 
HETATM   10  C14 UNL     1      -0.530  50.263 -18.555  1.00  0.00     0.107 A 
HETATM   11  N6  UNL     1      -0.818  50.025 -19.862  1.00  0.00    -0.351 N 
ATOM     12  H6  UNL     1      -1.365  49.205 -20.124  1.00  0.00     0.166 HD
HETATM   13  H10 UNL     1       1.823  54.012 -18.968  1.00  0.00     0.187 HD
HETATM   14  H11 UNL     1      -0.259  50.743 -15.648  1.00  0.00     0.161 HD
ENDROOT
BRANCH   1  15
HETATM   15  N2  UNL     1      -0.741  50.491 -22.105  1.00  0.00    -0.295 N 
HETATM   16  C4  UNL     1      -1.080  51.282 -23.170  1.00  0.00     0.322 C 
HETATM   17  N1  UNL     1      -1.305  50.520 -24.297  1.00  0.00    -0.332 N 
HETATM   18  O2  UNL     1      -1.189  52.502 -23.157  1.00  0.00    -0.247 OA
HETATM   19  H7  UNL     1      -0.809  49.645 -24.334  1.00  0.00     0.165 HD
HETATM   20  H8  UNL     1      -0.875  49.495 -22.185  1.00  0.00     0.172 HD
BRANCH  17  21
HETATM   21  C3  UNL     1      -1.588  51.153 -25.586  1.00  0.00     0.143 C 
BRANCH  21  22
HETATM   22  C2  UNL     1      -2.631  50.345 -26.392  1.00  0.00     0.197 C 
BRANCH  22  23
HETATM   23  O1  UNL     1      -2.557  48.956 -26.040  1.00  0.00    -0.394 OA
HETATM   24  C1  UNL     1      -3.848  48.386 -25.878  1.00  0.00     0.201 C 
ENDBRANCH  22  23
ENDBRANCH  21  22
BRANCH  21  25
HETATM   25  C15 UNL     1      -0.286  51.347 -26.351  1.00  0.00    -0.033 A 
HETATM   26  C16 UNL     1       0.971  51.162 -25.751  1.00  0.00     0.009 A 
HETATM   27  C17 UNL     1       2.145  51.363 -26.480  1.00  0.00     0.001 A 
HETATM   28  C18 UNL     1       2.081  51.763 -27.813  1.00  0.00     0.000 A 
HETATM   29  C19 UNL     1       0.843  51.971 -28.417  1.00  0.00     0.001 A 
HETATM   30  C20 UNL     1      -0.331  51.767 -27.691  1.00  0.00     0.009 A 
ENDBRANCH  21  25
ENDBRANCH  17  21
ENDBRANCH   1  15
BRANCH   8  31
HETATM   31  C9  UNL     1       0.810  52.172 -14.555  1.00  0.00     0.109 C 
HETATM   32  C10 UNL     1      -0.323  52.142 -13.551  1.00  0.00     0.053 C 
HETATM   33  C11 UNL     1       0.410  52.368 -12.250  1.00  0.00     0.169 C 
HETATM   34  O3  UNL     1       1.651  51.664 -12.365  1.00  0.00    -0.389 OA
HETATM   35  C12 UNL     1       1.958  51.540 -13.766  1.00  0.00     0.192 C 
ENDBRANCH   8  31
TORSDOF 6
ENDMDL
MODEL 3
REMARK minimizedAffinity -8.37640381
REMARK  6 active torsions:
REMARK  status: ('A' for Active; 'I' for Inactive)
REMARK    1  A    between atoms: O1_2  and  C2_3 
REMARK    2  A    between atoms: C2_3  and  C3_4 
REMARK    3  A    between atoms: C3_4  and  N1_5 
REMARK    4  A    between atoms: C3_4  and  C15_26 
REMARK       I    between atoms: N1_5  and  C4_6 
REMARK       I    between atoms: C4_6  and  N2_8 
REMARK    5  A    between atoms: N2_8  and  C5_9 
REMARK    6  A    between atoms: N5_16  and  C9_17 
ROOT
HETATM    1  C5  UNL     1      -3.259  48.731 -24.254  1.00  0.00     0.111 A 
HETATM    2  C6  UNL     1      -4.633  48.526 -24.225  1.00  0.00     0.080 A 
HETATM    3  C7  UNL     1      -5.226  48.307 -25.467  1.00  0.00     0.067 A 
HETATM    4  N3  UNL     1      -6.521  48.071 -25.834  1.00  0.00    -0.298 N 
HETATM    5  N4  UNL     1      -6.696  47.907 -27.155  1.00  0.00    -0.284 N 
ATOM      6  H4  UNL     1      -7.567  47.725 -27.653  1.00  0.00     0.188 HD
HETATM    7  C8  UNL     1      -5.471  48.035 -27.667  1.00  0.00     0.130 A 
HETATM    8  N5  UNL     1      -5.161  47.940 -28.981  1.00  0.00    -0.368 N 
HETATM    9  C13 UNL     1      -4.506  48.288 -26.653  1.00  0.00     0.052 A 
HETATM   10  C14 UNL     1      -3.127  48.494 -26.587  1.00  0.00     0.107 A 
HETATM   11  N6  UNL     1      -2.521  48.714 -25.390  1.00  0.00    -0.351 N 
ATOM     12  H6  UNL     1      -1.514  48.866 -25.347  1.00  0.00     0.166 HD
HETATM   13  H10 UNL     1      -7.333  48.013 -25.230  1.00  0.00     0.187 HD
HETATM   14  H11 UNL     1      -4.278  48.316 -29.306  1.00  0.00     0.161 HD
ENDROOT
BRANCH   1  15
HETATM   15  N2  UNL     1      -2.492  48.954 -23.110  1.00  0.00    -0.295 N 
HETATM   16  C4  UNL     1      -2.474  50.056 -22.297  1.00  0.00     0.322 C 
HETATM   17  N1  UNL     1      -1.632  49.860 -21.222  1.00  0.00    -0.332 N 
HETATM   18  O2  UNL     1      -3.098  51.094 -22.475  1.00  0.00    -0.247 OA
HETATM   19  H7  UNL     1      -1.509  48.903 -20.938  1.00  0.00     0.165 HD
HETATM   20  H8  UNL     1      -1.793  48.242 -22.969  1.00  0.00     0.172 HD
BRANCH  17  21
HETATM   21  C3  UNL     1      -1.523  50.865 -20.164  1.00  0.00     0.143 C 
BRANCH  21  22
HETATM   22  C2  UNL     1      -2.907  51.453 -19.803  1.00  0.00     0.197 C 
BRANCH  22  23
HETATM   23  O1  UNL     1      -3.001  51.655 -18.386  1.00  0.00    -0.394 OA
HETATM   24  C1  UNL     1      -2.479  50.551 -17.661  1.00  0.00     0.201 C 
ENDBRANCH  22  23
ENDBRANCH  21  22
BRANCH  21  25
HETATM   25  C15 UNL     1      -0.529  51.938 -20.585  1.00  0.00    -0.033 A 
HETATM   26  C16 UNL     1       0.068  51.949 -21.857  1.00  0.00     0.009 A 
HETATM   27  C17 UNL     1       0.988  52.941 -22.203  1.00  0.00     0.001 A 
HETATM   28  C18 UNL     1       1.334  53.928 -21.282  1.00  0.00     0.000 A 
HETATM   29  C19 UNL     1       0.767  53.919 -20.010  1.00  0.00     0.001 A 
HETATM   30  C20 UNL     1      -0.155  52.930 -19.663  1.00  0.00     0.009 A 
ENDBRANCH  21  25
ENDBRANCH  17  21
ENDBRANCH   1  15
BRANCH   8  31
HETATM   31  C9  UNL     1      -6.216  47.917 -29.986  1.00  0.00     0.109 C 
HETATM   32  C10 UNL     1      -5.727  48.417 -31.329  1.00  0.00     0.053 C 
HETATM   33  C11 UNL     1      -6.678  47.730 -32.281  1.00  0.00     0.169 C 
HETATM   34  O3  UNL     1      -6.913  46.427 -31.735  1.00  0.00    -0.389 OA
HETATM   35  C12 UNL     1      -6.670  46.494 -30.318  1.00  0.00     0.192 C 
ENDBRANCH   8  31
TORSDOF 6
ENDMDL
MODEL 4
REMARK minimizedAffinity -8.18313599
REMARK  6 active torsions:
REMARK  status: ('A' for Active; 'I' for Inactive)
REMARK    1  A    between atoms: O1_2  and  C2_3 
REMARK    2  A    between atoms: C2_3  and  C3_4 
REMARK    3  A    between atoms: C3_4  and  N1_5 
REMARK    4  A    between atoms: C3_4  and  C15_26 
REMARK       I    between atoms: N1_5  and  C4_6 
REMARK       I    between atoms: C4_6  and  N2_8 
REMARK    5  A    between atoms: N2_8  and  C5_9 
REMARK    6  A    between atoms: N5_16  and  C9_17 
ROOT
HETATM    1  C5  UNL     1       0.918  53.057 -19.638  1.00  0.00     0.111 A 
HETATM    2  C6  UNL     1       1.431  54.120 -20.371  1.00  0.00     0.080 A 
HETATM    3  C7  UNL     1       1.255  54.030 -21.751  1.00  0.00     0.067 A 
HETATM    4  N3  UNL     1       1.613  54.860 -22.775  1.00  0.00    -0.298 N 
HETATM    5  N4  UNL     1       1.258  54.415 -23.992  1.00  0.00    -0.284 N 
ATOM      6  H4  UNL     1       1.422  54.862 -24.894  1.00  0.00     0.188 HD
HETATM    7  C8  UNL     1       0.642  53.257 -23.751  1.00  0.00     0.130 A 
HETATM    8  N5  UNL     1       0.108  52.446 -24.695  1.00  0.00    -0.368 N 
HETATM    9  C13 UNL     1       0.611  52.962 -22.359  1.00  0.00     0.052 A 
HETATM   10  C14 UNL     1       0.118  51.942 -21.544  1.00  0.00     0.107 A 
HETATM   11  N6  UNL     1       0.278  52.001 -20.196  1.00  0.00    -0.351 N 
ATOM     12  H6  UNL     1      -0.083  51.252 -19.605  1.00  0.00     0.166 HD
HETATM   13  H10 UNL     1       2.104  55.744 -22.711  1.00  0.00     0.187 HD
HETATM   14  H11 UNL     1      -0.088  51.481 -24.459  1.00  0.00     0.161 HD
ENDROOT
BRANCH   1  15
HETATM   15  N2  UNL     1       0.989  52.978 -18.247  1.00  0.00    -0.295 N 
HETATM   16  C4  UNL     1       0.674  51.921 -17.436  1.00  0.00     0.322 C 
HETATM   17  N1  UNL     1       0.951  52.213 -16.117  1.00  0.00    -0.332 N 
HETATM   18  O2  UNL     1       0.201  50.850 -17.797  1.00  0.00    -0.247 OA
HETATM   19  H7  UNL     1       1.683  52.887 -15.968  1.00  0.00     0.165 HD
HETATM   20  H8  UNL     1       1.184  53.869 -17.819  1.00  0.00     0.172 HD
BRANCH  17  21
HETATM   21  C3  UNL     1       0.787  51.200 -15.075  1.00  0.00     0.143 C 
BRANCH  21  22
HETATM   22  C2  UNL     1       0.941  49.773 -15.650  1.00  0.00     0.197 C 
BRANCH  22  23
HETATM   23  O1  UNL     1       1.348  48.866 -14.616  1.00  0.00    -0.394 OA
HETATM   24  C1  UNL     1       1.117  47.513 -14.982  1.00  0.00     0.201 C 
ENDBRANCH  22  23
ENDBRANCH  21  22
BRANCH  21  25
HETATM   25  C15 UNL     1      -0.551  51.402 -14.377  1.00  0.00    -0.033 A 
HETATM   26  C16 UNL     1      -0.678  52.180 -13.214  1.00  0.00     0.009 A 
HETATM   27  C17 UNL     1      -1.920  52.331 -12.591  1.00  0.00     0.001 A 
HETATM   28  C18 UNL     1      -3.046  51.699 -13.113  1.00  0.00     0.000 A 
HETATM   29  C19 UNL     1      -2.932  50.908 -14.253  1.00  0.00     0.001 A 
HETATM   30  C20 UNL     1      -1.693  50.758 -14.879  1.00  0.00     0.009 A 
ENDBRANCH  21  25
ENDBRANCH  17  21
ENDBRANCH   1  15
BRANCH   8  31
HETATM   31  C9  UNL     1       0.379  52.683 -26.107  1.00  0.00     0.109 C 
HETATM   32  C10 UNL     1       1.531  51.839 -26.610  1.00  0.00     0.053 C 
HETATM   33  C11 UNL     1       1.221  51.738 -28.084  1.00  0.00     0.169 C 
HETATM   34  O3  UNL     1      -0.203  51.630 -28.184  1.00  0.00    -0.389 OA
HETATM   35  C12 UNL     1      -0.773  52.223 -27.003  1.00  0.00     0.192 C 
ENDBRANCH   8  31
TORSDOF 6
ENDMDL
MODEL 5
REMARK minimizedAffinity -8.14052963
REMARK  6 active torsions:
REMARK  status: ('A' for Active; 'I' for Inactive)
REMARK    1  A    between atoms: O1_2  and  C2_3 
REMARK    2  A    between atoms: C2_3  and  C3_4 
REMARK    3  A    between atoms: C3_4  and  N1_5 
REMARK    4  A    between atoms: C3_4  and  C15_26 
REMARK       I    between atoms: N1_5  and  C4_6 
REMARK       I    between atoms: C4_6  and  N2_8 
REMARK    5  A    between atoms: N2_8  and  C5_9 
REMARK    6  A    between atoms: N5_16  and  C9_17 
ROOT
HETATM    1  C5  UNL     1       0.828  52.867 -19.129  1.00  0.00     0.111 A 
HETATM    2  C6  UNL     1      -0.019  51.882 -19.623  1.00  0.00     0.080 A 
HETATM    3  C7  UNL     1      -0.124  51.832 -21.012  1.00  0.00     0.067 A 
HETATM    4  N3  UNL     1      -0.839  51.021 -21.847  1.00  0.00    -0.298 N 
HETATM    5  N4  UNL     1      -0.671  51.290 -23.152  1.00  0.00    -0.284 N 
ATOM      6  H4  UNL     1      -1.103  50.822 -23.948  1.00  0.00     0.188 HD
HETATM    7  C8  UNL     1       0.188  52.310 -23.168  1.00  0.00     0.130 A 
HETATM    8  N5  UNL     1       0.655  52.919 -24.283  1.00  0.00    -0.368 N 
HETATM    9  C13 UNL     1       0.567  52.694 -21.851  1.00  0.00     0.052 A 
HETATM   10  C14 UNL     1       1.404  53.646 -21.268  1.00  0.00     0.107 A 
HETATM   11  N6  UNL     1       1.523  53.722 -19.916  1.00  0.00    -0.351 N 
ATOM     12  H6  UNL     1       2.135  54.421 -19.495  1.00  0.00     0.166 HD
HETATM   13  H10 UNL     1      -1.464  50.265 -21.588  1.00  0.00     0.187 HD
HETATM   14  H11 UNL     1       1.075  53.838 -24.202  1.00  0.00     0.161 HD
ENDROOT
BRANCH   1  15
HETATM   15  N2  UNL     1       1.068  53.061 -17.768  1.00  0.00    -0.295 N 
HETATM   16  C4  UNL     1       1.024  52.141 -16.755  1.00  0.00     0.322 C 
HETATM   17  N1  UNL     1       1.397  52.711 -15.556  1.00  0.00    -0.332 N 
HETATM   18  O2  UNL     1       0.693  50.966 -16.861  1.00  0.00    -0.247 OA
HETATM   19  H7  UNL     1       2.022  53.496 -15.627  1.00  0.00     0.165 HD
HETATM   20  H8  UNL     1       1.163  54.034 -17.528  1.00  0.00     0.172 HD
BRANCH  17  21
HETATM   21  C3  UNL     1       1.519  51.898 -14.346  1.00  0.00     0.143 C 
BRANCH  21  22
HETATM   22  C2  UNL     1       1.798  50.416 -14.690  1.00  0.00     0.197 C 
BRANCH  22  23
HETATM   23  O1  UNL     1       2.611  49.818 -13.671  1.00  0.00    -0.394 OA
HETATM   24  C1  UNL     1       3.983  50.150 -13.830  1.00  0.00     0.201 C 
ENDBRANCH  22  23
ENDBRANCH  21  22
BRANCH  21  25
HETATM   25  C15 UNL     1       0.270  52.070 -13.492  1.00  0.00    -0.033 A 
HETATM   26  C16 UNL     1      -0.965  51.506 -13.851  1.00  0.00     0.009 A 
HETATM   27  C17 UNL     1      -2.094  51.698 -13.050  1.00  0.00     0.001 A 
HETATM   28  C18 UNL     1      -2.008  52.463 -11.890  1.00  0.00     0.000 A 
HETATM   29  C19 UNL     1      -0.795  53.046 -11.531  1.00  0.00     0.001 A 
HETATM   30  C20 UNL     1       0.335  52.853 -12.328  1.00  0.00     0.009 A 
ENDBRANCH  21  25
ENDBRANCH  17  21
ENDBRANCH   1  15
BRANCH   8  31
HETATM   31  C9  UNL     1       0.053  52.640 -25.580  1.00  0.00     0.109 C 
HETATM   32  C10 UNL     1       0.013  53.872 -26.460  1.00  0.00     0.053 C 
HETATM   33  C11 UNL     1      -0.006  53.264 -27.843  1.00  0.00     0.169 C 
HETATM   34  O3  UNL     1       0.848  52.116 -27.784  1.00  0.00    -0.389 OA
HETATM   35  C12 UNL     1       0.897  51.675 -26.415  1.00  0.00     0.192 C 
ENDBRANCH   8  31
TORSDOF 6
ENDMDL
MODEL 6
REMARK minimizedAffinity -8.13662052
REMARK  6 active torsions:
REMARK  status: ('A' for Active; 'I' for Inactive)
REMARK    1  A    between atoms: O1_2  and  C2_3 
REMARK    2  A    between atoms: C2_3  and  C3_4 
REMARK    3  A    between atoms: C3_4  and  N1_5 
REMARK    4  A    between atoms: C3_4  and  C15_26 
REMARK       I    between atoms: N1_5  and  C4_6 
REMARK       I    between atoms: C4_6  and  N2_8 
REMARK    5  A    between atoms: N2_8  and  C5_9 
REMARK    6  A    between atoms: N5_16  and  C9_17 
ROOT
HETATM    1  C5  UNL     1      -3.253  48.714 -24.162  1.00  0.00     0.111 A 
HETATM    2  C6  UNL     1      -2.799  48.677 -25.474  1.00  0.00     0.080 A 
HETATM    3  C7  UNL     1      -3.778  48.430 -26.434  1.00  0.00     0.067 A 
HETATM    4  N3  UNL     1      -3.719  48.323 -27.795  1.00  0.00    -0.298 N 
HETATM    5  N4  UNL     1      -4.903  48.074 -28.378  1.00  0.00    -0.284 N 
ATOM      6  H4  UNL     1      -5.098  47.953 -29.372  1.00  0.00     0.188 HD
HETATM    7  C8  UNL     1      -5.765  48.021 -27.362  1.00  0.00     0.130 A 
HETATM    8  N5  UNL     1      -7.094  47.791 -27.477  1.00  0.00    -0.368 N 
HETATM    9  C13 UNL     1      -5.115  48.236 -26.114  1.00  0.00     0.052 A 
HETATM   10  C14 UNL     1      -5.483  48.300 -24.770  1.00  0.00     0.107 A 
HETATM   11  N6  UNL     1      -4.549  48.536 -23.811  1.00  0.00    -0.351 N 
ATOM     12  H6  UNL     1      -4.824  48.580 -22.830  1.00  0.00     0.166 HD
HETATM   13  H10 UNL     1      -2.900  48.408 -28.386  1.00  0.00     0.187 HD
HETATM   14  H11 UNL     1      -7.615  47.498 -26.659  1.00  0.00     0.161 HD
ENDROOT
BRANCH   1  15
HETATM   15  N2  UNL     1      -2.422  48.961 -23.068  1.00  0.00    -0.295 N 
HETATM   16  C4  UNL     1      -2.446  50.022 -22.202  1.00  0.00     0.322 C 
HETATM   17  N1  UNL     1      -1.506  49.864 -21.206  1.00  0.00    -0.332 N 
HETATM   18  O2  UNL     1      -3.179  50.999 -22.279  1.00  0.00    -0.247 OA
HETATM   19  H7  UNL     1      -1.269  48.912 -20.982  1.00  0.00     0.165 HD
HETATM   20  H8  UNL     1      -1.649  48.318 -23.018  1.00  0.00     0.172 HD
BRANCH  17  21
HETATM   21  C3  UNL     1      -1.410  50.826 -20.107  1.00  0.00     0.143 C 
BRANCH  21  22
HETATM   22  C2  UNL     1      -2.803  51.373 -19.716  1.00  0.00     0.197 C 
BRANCH  22  23
HETATM   23  O1  UNL     1      -2.827  51.705 -18.321  1.00  0.00    -0.394 OA
HETATM   24  C1  UNL     1      -2.826  50.543 -17.504  1.00  0.00     0.201 C 
ENDBRANCH  22  23
ENDBRANCH  21  22
BRANCH  21  25
HETATM   25  C15 UNL     1      -0.438  51.934 -20.488  1.00  0.00    -0.033 A 
HETATM   26  C16 UNL     1      -0.081  52.957 -19.594  1.00  0.00     0.009 A 
HETATM   27  C17 UNL     1       0.802  53.967 -19.984  1.00  0.00     0.001 A 
HETATM   28  C18 UNL     1       1.331  53.976 -21.272  1.00  0.00     0.000 A 
HETATM   29  C19 UNL     1       0.971  52.981 -22.177  1.00  0.00     0.001 A 
HETATM   30  C20 UNL     1       0.091  51.969 -21.789  1.00  0.00     0.009 A 
ENDBRANCH  21  25
ENDBRANCH  17  21
ENDBRANCH   1  15
BRANCH   8  31
HETATM   31  C9  UNL     1      -7.656  47.345 -28.745  1.00  0.00     0.109 C 
HETATM   32  C10 UNL     1      -7.742  45.836 -28.824  1.00  0.00     0.053 C 
HETATM   33  C11 UNL     1      -8.866  45.640 -29.815  1.00  0.00     0.169 C 
HETATM   34  O3  UNL     1      -9.819  46.674 -29.543  1.00  0.00    -0.389 OA
HETATM   35  C12 UNL     1      -9.120  47.761 -28.908  1.00  0.00     0.192 C 
ENDBRANCH   8  31
TORSDOF 6
ENDMDL
MODEL 7
REMARK minimizedAffinity -8.06785774
REMARK  6 active torsions:
REMARK  status: ('A' for Active; 'I' for Inactive)
REMARK    1  A    between atoms: O1_2  and  C2_3 
REMARK    2  A    between atoms: C2_3  and  C3_4 
REMARK    3  A    between atoms: C3_4  and  N1_5 
REMARK    4  A    between atoms: C3_4  and  C15_26 
REMARK       I    between atoms: N1_5  and  C4_6 
REMARK       I    between atoms: C4_6  and  N2_8 
REMARK    5  A    between atoms: N2_8  and  C5_9 
REMARK    6  A    between atoms: N5_16  and  C9_17 
ROOT
HETATM    1  C5  UNL     1      -0.526  50.385 -20.549  1.00  0.00     0.111 A 
HETATM    2  C6  UNL     1      -0.800  49.325 -19.693  1.00  0.00     0.080 A 
HETATM    3  C7  UNL     1      -0.566  49.577 -18.342  1.00  0.00     0.067 A 
HETATM    4  N3  UNL     1      -0.714  48.801 -17.228  1.00  0.00    -0.298 N 
HETATM    5  N4  UNL     1      -0.377  49.415 -16.082  1.00  0.00    -0.284 N 
ATOM      6  H4  UNL     1      -0.403  49.034 -15.137  1.00  0.00     0.188 HD
HETATM    7  C8  UNL     1       0.000  50.636 -16.463  1.00  0.00     0.130 A 
HETATM    8  N5  UNL     1       0.426  51.617 -15.632  1.00  0.00    -0.368 N 
HETATM    9  C13 UNL     1      -0.097  50.796 -17.874  1.00  0.00     0.052 A 
HETATM   10  C14 UNL     1       0.142  51.808 -18.804  1.00  0.00     0.107 A 
HETATM   11  N6  UNL     1      -0.074  51.591 -20.128  1.00  0.00    -0.351 N 
ATOM     12  H6  UNL     1       0.104  52.334 -20.804  1.00  0.00     0.166 HD
HETATM   13  H10 UNL     1      -1.039  47.842 -17.182  1.00  0.00     0.187 HD
HETATM   14  H11 UNL     1       0.943  52.397 -16.018  1.00  0.00     0.161 HD
ENDROOT
BRANCH   1  15
HETATM   15  N2  UNL     1      -0.711  50.324 -21.930  1.00  0.00    -0.295 N 
HETATM   16  C4  UNL     1      -0.984  51.347 -22.800  1.00  0.00     0.322 C 
HETATM   17  N1  UNL     1      -1.022  50.889 -24.100  1.00  0.00    -0.332 N 
HETATM   18  O2  UNL     1      -1.182  52.517 -22.498  1.00  0.00    -0.247 OA
HETATM   19  H7  UNL     1      -0.462  50.075 -24.289  1.00  0.00     0.165 HD
HETATM   20  H8  UNL     1      -0.762  49.378 -22.272  1.00  0.00     0.172 HD
BRANCH  17  21
HETATM   21  C3  UNL     1      -1.201  51.818 -25.216  1.00  0.00     0.143 C 
BRANCH  21  22
HETATM   22  C2  UNL     1      -2.527  51.549 -25.964  1.00  0.00     0.197 C 
BRANCH  22  23
HETATM   23  O1  UNL     1      -3.516  52.513 -25.578  1.00  0.00    -0.394 OA
HETATM   24  C1  UNL     1      -4.398  51.996 -24.591  1.00  0.00     0.201 C 
ENDBRANCH  22  23
ENDBRANCH  21  22
BRANCH  21  25
HETATM   25  C15 UNL     1       0.010  51.743 -26.137  1.00  0.00    -0.033 A 
HETATM   26  C16 UNL     1       1.322  51.670 -25.643  1.00  0.00     0.009 A 
HETATM   27  C17 UNL     1       2.410  51.619 -26.517  1.00  0.00     0.001 A 
HETATM   28  C18 UNL     1       2.203  51.651 -27.895  1.00  0.00     0.000 A 
HETATM   29  C19 UNL     1       0.909  51.745 -28.400  1.00  0.00     0.001 A 
HETATM   30  C20 UNL     1      -0.179  51.794 -27.528  1.00  0.00     0.009 A 
ENDBRANCH  21  25
ENDBRANCH  17  21
ENDBRANCH   1  15
BRANCH   8  31
HETATM   31  C9  UNL     1       0.728  51.319 -14.238  1.00  0.00     0.109 C 
HETATM   32  C10 UNL     1       2.198  51.503 -13.927  1.00  0.00     0.053 C 
HETATM   33  C11 UNL     1       2.168  51.787 -12.444  1.00  0.00     0.169 C 
HETATM   34  O3  UNL     1       1.000  52.582 -12.215  1.00  0.00    -0.389 OA
HETATM   35  C12 UNL     1       0.068  52.311 -13.277  1.00  0.00     0.192 C 
ENDBRANCH   8  31
TORSDOF 6
ENDMDL
MODEL 8
REMARK minimizedAffinity -8.02990437
REMARK  6 active torsions:
REMARK  status: ('A' for Active; 'I' for Inactive)
REMARK    1  A    between atoms: O1_2  and  C2_3 
REMARK    2  A    between atoms: C2_3  and  C3_4 
REMARK    3  A    between atoms: C3_4  and  N1_5 
REMARK    4  A    between atoms: C3_4  and  C15_26 
REMARK       I    between atoms: N1_5  and  C4_6 
REMARK       I    between atoms: C4_6  and  N2_8 
REMARK    5  A    between atoms: N2_8  and  C5_9 
REMARK    6  A    between atoms: N5_16  and  C9_17 
ROOT
HETATM    1  C5  UNL     1      -0.230  51.751 -19.108  1.00  0.00     0.111 A 
HETATM    2  C6  UNL     1       0.550  52.713 -18.477  1.00  0.00     0.080 A 
HETATM    3  C7  UNL     1       1.028  52.356 -17.217  1.00  0.00     0.067 A 
HETATM    4  N3  UNL     1       1.808  53.019 -16.313  1.00  0.00    -0.298 N 
HETATM    5  N4  UNL     1       2.057  52.326 -15.190  1.00  0.00    -0.284 N 
ATOM      6  H4  UNL     1       2.608  52.619 -14.383  1.00  0.00     0.188 HD
HETATM    7  C8  UNL     1       1.421  51.168 -15.371  1.00  0.00     0.130 A 
HETATM    8  N5  UNL     1       1.397  50.144 -14.486  1.00  0.00    -0.368 N 
HETATM    9  C13 UNL     1       0.755  51.129 -16.628  1.00  0.00     0.052 A 
HETATM   10  C14 UNL     1      -0.029  50.220 -17.339  1.00  0.00     0.107 A 
HETATM   11  N6  UNL     1      -0.512  50.542 -18.568  1.00  0.00    -0.351 N 
ATOM     12  H6  UNL     1      -1.086  49.874 -19.083  1.00  0.00     0.166 HD
HETATM   13  H10 UNL     1       2.201  53.949 -16.401  1.00  0.00     0.187 HD
HETATM   14  H11 UNL     1       0.682  49.432 -14.578  1.00  0.00     0.161 HD
ENDROOT
BRANCH   1  15
HETATM   15  N2  UNL     1      -0.785  51.925 -20.376  1.00  0.00    -0.295 N 
HETATM   16  C4  UNL     1      -0.172  51.815 -21.597  1.00  0.00     0.322 C 
HETATM   17  N1  UNL     1      -1.081  51.988 -22.620  1.00  0.00    -0.332 N 
HETATM   18  O2  UNL     1       1.018  51.603 -21.790  1.00  0.00    -0.247 OA
HETATM   19  H7  UNL     1      -2.031  51.740 -22.401  1.00  0.00     0.165 HD
HETATM   20  H8  UNL     1      -1.721  52.293 -20.341  1.00  0.00     0.172 HD
BRANCH  17  21
HETATM   21  C3  UNL     1      -0.678  51.819 -24.016  1.00  0.00     0.143 C 
BRANCH  21  22
HETATM   22  C2  UNL     1      -0.806  53.145 -24.802  1.00  0.00     0.197 C 
BRANCH  22  23
HETATM   23  O1  UNL     1       0.431  53.447 -25.462  1.00  0.00    -0.394 OA
HETATM   24  C1  UNL     1       0.273  53.508 -26.873  1.00  0.00     0.201 C 
ENDBRANCH  22  23
ENDBRANCH  21  22
BRANCH  21  25
HETATM   25  C15 UNL     1      -1.487  50.692 -24.644  1.00  0.00    -0.033 A 
HETATM   26  C16 UNL     1      -1.489  50.453 -26.028  1.00  0.00     0.009 A 
HETATM   27  C17 UNL     1      -2.257  49.420 -26.570  1.00  0.00     0.001 A 
HETATM   28  C18 UNL     1      -3.040  48.619 -25.742  1.00  0.00     0.000 A 
HETATM   29  C19 UNL     1      -3.065  48.857 -24.369  1.00  0.00     0.001 A 
HETATM   30  C20 UNL     1      -2.297  49.887 -23.825  1.00  0.00     0.009 A 
ENDBRANCH  21  25
ENDBRANCH  17  21
ENDBRANCH   1  15
BRANCH   8  31
HETATM   31  C9  UNL     1       1.894  50.333 -13.129  1.00  0.00     0.109 C 
HETATM   32  C10 UNL     1       3.406  50.386 -13.084  1.00  0.00     0.053 C 
HETATM   33  C11 UNL     1       3.651  51.193 -11.831  1.00  0.00     0.169 C 
HETATM   34  O3  UNL     1       2.624  52.189 -11.793  1.00  0.00    -0.389 OA
HETATM   35  C12 UNL     1       1.506  51.697 -12.555  1.00  0.00     0.192 C 
ENDBRANCH   8  31
TORSDOF 6
ENDMDL
MODEL 9
REMARK minimizedAffinity -7.90965223
REMARK  6 active torsions:
REMARK  status: ('A' for Active; 'I' for Inactive)
REMARK    1  A    between atoms: O1_2  and  C2_3 
REMARK    2  A    between atoms: C2_3  and  C3_4 
REMARK    3  A    between atoms: C3_4  and  N1_5 
REMARK    4  A    between atoms: C3_4  and  C15_26 
REMARK       I    between atoms: N1_5  and  C4_6 
REMARK       I    between atoms: C4_6  and  N2_8 
REMARK    5  A    between atoms: N2_8  and  C5_9 
REMARK    6  A    between atoms: N5_16  and  C9_17 
ROOT
HETATM    1  C5  UNL     1      -3.534  49.065 -25.729  1.00  0.00     0.111 A 
HETATM    2  C6  UNL     1      -4.652  48.583 -25.060  1.00  0.00     0.080 A 
HETATM    3  C7  UNL     1      -5.648  48.051 -25.877  1.00  0.00     0.067 A 
HETATM    4  N3  UNL     1      -6.863  47.494 -25.593  1.00  0.00    -0.298 N 
HETATM    5  N4  UNL     1      -7.547  47.089 -26.676  1.00  0.00    -0.284 N 
ATOM      6  H4  UNL     1      -8.468  46.652 -26.706  1.00  0.00     0.188 HD
HETATM    7  C8  UNL     1      -6.748  47.389 -27.700  1.00  0.00     0.130 A 
HETATM    8  N5  UNL     1      -7.029  47.155 -29.004  1.00  0.00    -0.368 N 
HETATM    9  C13 UNL     1      -5.539  47.997 -27.259  1.00  0.00     0.052 A 
HETATM   10  C14 UNL     1      -4.376  48.495 -27.846  1.00  0.00     0.107 A 
HETATM   11  N6  UNL     1      -3.389  49.024 -27.075  1.00  0.00    -0.351 N 
ATOM     12  H6  UNL     1      -2.541  49.389 -27.509  1.00  0.00     0.166 HD
HETATM   13  H10 UNL     1      -7.284  47.362 -24.681  1.00  0.00     0.187 HD
HETATM   14  H11 UNL     1      -6.507  47.652 -29.716  1.00  0.00     0.161 HD
ENDROOT
BRANCH   1  15
HETATM   15  N2  UNL     1      -2.431  49.622 -25.079  1.00  0.00    -0.295 N 
HETATM   16  C4  UNL     1      -2.021  50.928 -25.064  1.00  0.00     0.322 C 
HETATM   17  N1  UNL     1      -0.924  51.090 -24.244  1.00  0.00    -0.332 N 
HETATM   18  O2  UNL     1      -2.527  51.851 -25.690  1.00  0.00    -0.247 OA
HETATM   19  H7  UNL     1      -0.847  50.428 -23.490  1.00  0.00     0.165 HD
HETATM   20  H8  UNL     1      -1.822  48.923 -24.684  1.00  0.00     0.172 HD
BRANCH  17  21
HETATM   21  C3  UNL     1      -0.366  52.419 -23.993  1.00  0.00     0.143 C 
BRANCH  21  22
HETATM   22  C2  UNL     1       0.832  52.710 -24.927  1.00  0.00     0.197 C 
BRANCH  22  23
HETATM   23  O1  UNL     1       0.585  53.900 -25.689  1.00  0.00    -0.394 OA
HETATM   24  C1  UNL     1       0.266  53.601 -27.041  1.00  0.00     0.201 C 
ENDBRANCH  22  23
ENDBRANCH  21  22
BRANCH  21  25
HETATM   25  C15 UNL     1       0.003  52.543 -22.521  1.00  0.00    -0.033 A 
HETATM   26  C16 UNL     1      -0.569  51.724 -21.534  1.00  0.00     0.009 A 
HETATM   27  C17 UNL     1      -0.218  51.877 -20.190  1.00  0.00     0.001 A 
HETATM   28  C18 UNL     1       0.697  52.857 -19.813  1.00  0.00     0.000 A 
HETATM   29  C19 UNL     1       1.257  53.692 -20.777  1.00  0.00     0.001 A 
HETATM   30  C20 UNL     1       0.910  53.538 -22.120  1.00  0.00     0.009 A 
ENDBRANCH  21  25
ENDBRANCH  17  21
ENDBRANCH   1  15
BRANCH   8  31
HETATM   31  C9  UNL     1      -8.371  46.753 -29.406  1.00  0.00     0.109 C 
HETATM   32  C10 UNL     1      -9.393  47.035 -28.325  1.00  0.00     0.053 C 
HETATM   33  C11 UNL     1     -10.665  47.171 -29.127  1.00  0.00     0.169 C 
HETATM   34  O3  UNL     1     -10.299  47.836 -30.341  1.00  0.00    -0.389 OA
HETATM   35  C12 UNL     1      -8.900  47.587 -30.575  1.00  0.00     0.192 C 
ENDBRANCH   8  31
TORSDOF 6
ENDMDL
