MODEL 1
REMARK minimizedAffinity -7.93173885
REMARK  7 active torsions:
REMARK  status: ('A' for Active; 'I' for Inactive)
REMARK    1  A    between atoms: O1_2  and  C2_3 
REMARK    2  A    between atoms: C2_3  and  C3_4 
REMARK    3  A    between atoms: C3_4  and  O2_5 
REMARK    4  A    between atoms: O2_5  and  C4_6 
REMARK    5  A    between atoms: C7_12  and  N3_13 
REMARK       I    between atoms: N3_13  and  C8_14 
REMARK       I    between atoms: C8_14  and  N4_16 
REMARK    6  A    between atoms: N4_16  and  C9_17 
REMARK    7  A    between atoms: C9_17  and  C10_18 
ROOT
HETATM    1  C4  UNL     1      -0.291  53.412 -25.649  1.00  0.00     0.171 A 
HETATM    2  N1  UNL     1       0.559  54.440 -25.593  1.00  0.00    -0.279 N 
ATOM      3  H1  UNL     1       0.781  55.120 -26.319  1.00  0.00     0.189 HD
HETATM    4  N2  UNL     1       1.051  54.361 -24.340  1.00  0.00    -0.298 N 
HETATM    5  C5  UNL     1       0.534  53.331 -23.601  1.00  0.00     0.067 A 
HETATM    6  C6  UNL     1       0.763  52.912 -22.291  1.00  0.00     0.080 A 
HETATM    7  C7  UNL     1       0.033  51.798 -21.891  1.00  0.00     0.111 A 
HETATM    8  N5  UNL     1      -0.849  51.149 -22.689  1.00  0.00    -0.351 N 
ATOM      9  H5  UNL     1      -1.359  50.340 -22.335  1.00  0.00     0.166 HD
HETATM   10  C16 UNL     1      -1.052  51.577 -23.965  1.00  0.00     0.108 A 
HETATM   11  C17 UNL     1      -0.359  52.684 -24.445  1.00  0.00     0.060 A 
HETATM   12  H8  UNL     1       1.740  55.046 -24.048  1.00  0.00     0.187 HD
ENDROOT
BRANCH   7  13
HETATM   13  N3  UNL     1       0.123  51.236 -20.617  1.00  0.00    -0.295 N 
HETATM   14  C8  UNL     1      -0.023  51.851 -19.402  1.00  0.00     0.322 C 
HETATM   15  O3  UNL     1      -0.222  53.044 -19.214  1.00  0.00    -0.247 OA
HETATM   16  N4  UNL     1       0.107  50.946 -18.370  1.00  0.00    -0.339 N 
HETATM   17  H11 UNL     1      -0.124  49.988 -18.587  1.00  0.00     0.164 HD
HETATM   18  H10 UNL     1       0.429  50.277 -20.640  1.00  0.00     0.172 HD
BRANCH  16  19
HETATM   19  C9  UNL     1      -0.102  51.345 -16.995  1.00  0.00     0.162 C 
BRANCH  19  20
HETATM   20  C10 UNL     1       1.213  51.527 -16.282  1.00  0.00    -0.040 A 
HETATM   21  C11 UNL     1       2.165  52.444 -16.754  1.00  0.00     0.009 A 
HETATM   22  C12 UNL     1       3.390  52.590 -16.101  1.00  0.00     0.001 A 
HETATM   23  C13 UNL     1       3.678  51.820 -14.976  1.00  0.00     0.000 A 
HETATM   24  C14 UNL     1       2.744  50.901 -14.502  1.00  0.00     0.001 A 
HETATM   25  C15 UNL     1       1.518  50.753 -15.153  1.00  0.00     0.009 A 
ENDBRANCH  19  20
ENDBRANCH  16  19
ENDBRANCH   7  13
BRANCH   1  26
HETATM   26  O2  UNL     1      -1.009  53.151 -26.764  1.00  0.00    -0.332 OA
BRANCH  26  27
HETATM   27  C3  UNL     1      -0.247  53.006 -27.969  1.00  0.00     0.203 C 
BRANCH  27  28
HETATM   28  C2  UNL     1       0.534  51.688 -28.015  1.00  0.00     0.193 C 
BRANCH  28  29
HETATM   29  O1  UNL     1       1.956  51.882 -27.974  1.00  0.00    -0.394 OA
HETATM   30  C1  UNL     1       2.543  51.477 -26.744  1.00  0.00     0.201 C 
ENDBRANCH  28  29
ENDBRANCH  27  28
ENDBRANCH  26  27
ENDBRANCH   1  26
TORSDOF 7
ENDMDL
MODEL 2
REMARK minimizedAffinity -7.81061745
REMARK  7 active torsions:
REMARK  status: ('A' for Active; 'I' for Inactive)
REMARK    1  A    between atoms: O1_2  and  C2_3 
REMARK    2  A    between atoms: C2_3  and  C3_4 
REMARK    3  A    between atoms: C3_4  and  O2_5 
REMARK    4  A    between atoms: O2_5  and  C4_6 
REMARK    5  A    between atoms: C7_12  and  N3_13 
REMARK       I    between atoms: N3_13  and  C8_14 
REMARK       I    between atoms: C8_14  and  N4_16 
REMARK    6  A    between atoms: N4_16  and  C9_17 
REMARK    7  A    between atoms: C9_17  and  C10_18 
ROOT
HETATM    1  C4  UNL     1      -0.524  52.849 -26.529  1.00  0.00     0.171 A 
HETATM    2  N1  UNL     1      -0.216  54.067 -26.980  1.00  0.00    -0.279 N 
ATOM      3  H1  UNL     1      -0.348  54.449 -27.917  1.00  0.00     0.189 HD
HETATM    4  N2  UNL     1       0.311  54.671 -25.896  1.00  0.00    -0.298 N 
HETATM    5  C5  UNL     1       0.334  53.884 -24.776  1.00  0.00     0.067 A 
HETATM    6  C6  UNL     1       0.778  54.121 -23.475  1.00  0.00     0.080 A 
HETATM    7  C7  UNL     1       0.635  53.051 -22.598  1.00  0.00     0.111 A 
HETATM    8  N5  UNL     1       0.100  51.856 -22.949  1.00  0.00    -0.351 N 
ATOM      9  H5  UNL     1       0.015  51.112 -22.257  1.00  0.00     0.166 HD
HETATM   10  C16 UNL     1      -0.324  51.651 -24.225  1.00  0.00     0.108 A 
HETATM   11  C17 UNL     1      -0.214  52.669 -25.167  1.00  0.00     0.060 A 
HETATM   12  H8  UNL     1       0.637  55.628 -25.986  1.00  0.00     0.187 HD
ENDROOT
BRANCH   7  13
HETATM   13  N3  UNL     1       1.016  53.100 -21.257  1.00  0.00    -0.295 N 
HETATM   14  C8  UNL     1       0.318  52.677 -20.156  1.00  0.00     0.322 C 
HETATM   15  O3  UNL     1      -0.813  52.209 -20.153  1.00  0.00    -0.247 OA
HETATM   16  N4  UNL     1       1.050  52.867 -19.004  1.00  0.00    -0.339 N 
HETATM   17  H11 UNL     1       2.053  52.873 -19.109  1.00  0.00     0.164 HD
HETATM   18  H10 UNL     1       1.877  53.603 -21.119  1.00  0.00     0.172 HD
BRANCH  16  19
HETATM   19  C9  UNL     1       0.557  52.410 -17.722  1.00  0.00     0.162 C 
BRANCH  19  20
HETATM   20  C10 UNL     1       1.693  52.178 -16.760  1.00  0.00    -0.040 A 
HETATM   21  C11 UNL     1       1.530  51.341 -15.645  1.00  0.00     0.009 A 
HETATM   22  C12 UNL     1       2.580  51.151 -14.746  1.00  0.00     0.001 A 
HETATM   23  C13 UNL     1       3.799  51.797 -14.946  1.00  0.00     0.000 A 
HETATM   24  C14 UNL     1       3.969  52.637 -16.045  1.00  0.00     0.001 A 
HETATM   25  C15 UNL     1       2.922  52.829 -16.946  1.00  0.00     0.009 A 
ENDBRANCH  19  20
ENDBRANCH  16  19
ENDBRANCH   7  13
BRANCH   1  26
HETATM   26  O2  UNL     1      -1.096  51.924 -27.331  1.00  0.00    -0.332 OA
BRANCH  26  27
HETATM   27  C3  UNL     1      -2.266  51.286 -26.802  1.00  0.00     0.203 C 
BRANCH  27  28
HETATM   28  C2  UNL     1      -3.079  50.564 -27.881  1.00  0.00     0.193 C 
BRANCH  28  29
HETATM   29  O1  UNL     1      -3.140  49.144 -27.675  1.00  0.00    -0.394 OA
HETATM   30  C1  UNL     1      -4.427  48.594 -27.925  1.00  0.00     0.201 C 
ENDBRANCH  28  29
ENDBRANCH  27  28
ENDBRANCH  26  27
ENDBRANCH   1  26
TORSDOF 7
ENDMDL
MODEL 3
REMARK minimizedAffinity -7.47540617
REMARK  7 active torsions:
REMARK  status: ('A' for Active; 'I' for Inactive)
REMARK    1  A    between atoms: O1_2  and  C2_3 
REMARK    2  A    between atoms: C2_3  and  C3_4 
REMARK    3  A    between atoms: C3_4  and  O2_5 
REMARK    4  A    between atoms: O2_5  and  C4_6 
REMARK    5  A    between atoms: C7_12  and  N3_13 
REMARK       I    between atoms: N3_13  and  C8_14 
REMARK       I    between atoms: C8_14  and  N4_16 
REMARK    6  A    between atoms: N4_16  and  C9_17 
REMARK    7  A    between atoms: C9_17  and  C10_18 
ROOT
HETATM    1  C4  UNL     1      -3.227  52.336 -25.377  1.00  0.00     0.171 A 
HETATM    2  N1  UNL     1      -4.432  51.918 -24.984  1.00  0.00    -0.279 N 
ATOM      3  H1  UNL     1      -5.283  51.820 -25.539  1.00  0.00     0.189 HD
HETATM    4  N2  UNL     1      -4.252  51.655 -23.674  1.00  0.00    -0.298 N 
HETATM    5  C5  UNL     1      -2.976  51.879 -23.230  1.00  0.00     0.067 A 
HETATM    6  C6  UNL     1      -2.381  51.729 -21.979  1.00  0.00     0.080 A 
HETATM    7  C7  UNL     1      -1.033  52.068 -21.920  1.00  0.00     0.111 A 
HETATM    8  N5  UNL     1      -0.321  52.508 -22.986  1.00  0.00    -0.351 N 
ATOM      9  H5  UNL     1       0.668  52.734 -22.881  1.00  0.00     0.166 HD
HETATM   10  C16 UNL     1      -0.927  52.646 -24.197  1.00  0.00     0.108 A 
HETATM   11  C17 UNL     1      -2.274  52.332 -24.340  1.00  0.00     0.060 A 
HETATM   12  H8  UNL     1      -5.045  51.322 -23.135  1.00  0.00     0.187 HD
ENDROOT
BRANCH   7  13
HETATM   13  N3  UNL     1      -0.267  51.979 -20.758  1.00  0.00    -0.295 N 
HETATM   14  C8  UNL     1      -0.693  51.941 -19.457  1.00  0.00     0.322 C 
HETATM   15  O3  UNL     1      -1.852  52.023 -19.073  1.00  0.00    -0.247 OA
HETATM   16  N4  UNL     1       0.373  51.818 -18.591  1.00  0.00    -0.339 N 
HETATM   17  H11 UNL     1       1.199  51.374 -18.962  1.00  0.00     0.164 HD
HETATM   18  H10 UNL     1       0.721  52.051 -20.942  1.00  0.00     0.172 HD
BRANCH  16  19
HETATM   19  C9  UNL     1       0.164  51.662 -17.168  1.00  0.00     0.162 C 
BRANCH  19  20
HETATM   20  C10 UNL     1       1.471  51.736 -16.420  1.00  0.00    -0.040 A 
HETATM   21  C11 UNL     1       1.663  51.007 -15.237  1.00  0.00     0.009 A 
HETATM   22  C12 UNL     1       2.868  51.099 -14.538  1.00  0.00     0.001 A 
HETATM   23  C13 UNL     1       3.889  51.922 -15.010  1.00  0.00     0.000 A 
HETATM   24  C14 UNL     1       3.706  52.657 -16.180  1.00  0.00     0.001 A 
HETATM   25  C15 UNL     1       2.503  52.567 -16.881  1.00  0.00     0.009 A 
ENDBRANCH  19  20
ENDBRANCH  16  19
ENDBRANCH   7  13
BRANCH   1  26
HETATM   26  O2  UNL     1      -2.989  52.694 -26.659  1.00  0.00    -0.332 OA
BRANCH  26  27
HETATM   27  C3  UNL     1      -2.519  51.646 -27.516  1.00  0.00     0.203 C 
BRANCH  27  28
HETATM   28  C2  UNL     1      -3.129  50.285 -27.166  1.00  0.00     0.193 C 
BRANCH  28  29
HETATM   29  O1  UNL     1      -3.580  49.563 -28.322  1.00  0.00    -0.394 OA
HETATM   30  C1  UNL     1      -4.260  48.356 -28.002  1.00  0.00     0.201 C 
ENDBRANCH  28  29
ENDBRANCH  27  28
ENDBRANCH  26  27
ENDBRANCH   1  26
TORSDOF 7
ENDMDL
MODEL 4
REMARK minimizedAffinity -7.25742579
REMARK  7 active torsions:
REMARK  status: ('A' for Active; 'I' for Inactive)
REMARK    1  A    between atoms: O1_2  and  C2_3 
REMARK    2  A    between atoms: C2_3  and  C3_4 
REMARK    3  A    between atoms: C3_4  and  O2_5 
REMARK    4  A    between atoms: O2_5  and  C4_6 
REMARK    5  A    between atoms: C7_12  and  N3_13 
REMARK       I    between atoms: N3_13  and  C8_14 
REMARK       I    between atoms: C8_14  and  N4_16 
REMARK    6  A    between atoms: N4_16  and  C9_17 
REMARK    7  A    between atoms: C9_17  and  C10_18 
ROOT
HETATM    1  C4  UNL     1       0.733  51.632 -16.088  1.00  0.00     0.171 A 
HETATM    2  N1  UNL     1       1.673  52.526 -15.775  1.00  0.00    -0.279 N 
ATOM      3  H1  UNL     1       2.120  52.686 -14.873  1.00  0.00     0.189 HD
HETATM    4  N2  UNL     1       1.889  53.164 -16.942  1.00  0.00    -0.298 N 
HETATM    5  C5  UNL     1       1.130  52.697 -17.982  1.00  0.00     0.067 A 
HETATM    6  C6  UNL     1       1.053  53.067 -19.324  1.00  0.00     0.080 A 
HETATM    7  C7  UNL     1       0.140  52.344 -20.086  1.00  0.00     0.111 A 
HETATM    8  N5  UNL     1      -0.627  51.344 -19.590  1.00  0.00    -0.351 N 
ATOM      9  H5  UNL     1      -1.275  50.846 -20.201  1.00  0.00     0.166 HD
HETATM   10  C16 UNL     1      -0.534  51.004 -18.276  1.00  0.00     0.108 A 
HETATM   11  C17 UNL     1       0.353  51.680 -17.444  1.00  0.00     0.060 A 
HETATM   12  H8  UNL     1       2.573  53.914 -16.964  1.00  0.00     0.187 HD
ENDROOT
BRANCH   7  13
HETATM   13  N3  UNL     1      -0.073  52.565 -21.446  1.00  0.00    -0.295 N 
HETATM   14  C8  UNL     1      -0.441  51.663 -22.409  1.00  0.00     0.322 C 
HETATM   15  O3  UNL     1      -0.611  50.462 -22.247  1.00  0.00    -0.247 OA
HETATM   16  N4  UNL     1      -0.582  52.278 -23.635  1.00  0.00    -0.339 N 
HETATM   17  H11 UNL     1      -0.813  53.260 -23.617  1.00  0.00     0.164 HD
HETATM   18  H10 UNL     1       0.179  53.498 -21.729  1.00  0.00     0.172 HD
BRANCH  16  19
HETATM   19  C9  UNL     1      -1.057  51.545 -24.788  1.00  0.00     0.162 C 
BRANCH  19  20
HETATM   20  C10 UNL     1      -0.056  51.603 -25.913  1.00  0.00    -0.040 A 
HETATM   21  C11 UNL     1       1.320  51.513 -25.655  1.00  0.00     0.009 A 
HETATM   22  C12 UNL     1       2.242  51.591 -26.700  1.00  0.00     0.001 A 
HETATM   23  C13 UNL     1       1.800  51.766 -28.010  1.00  0.00     0.000 A 
HETATM   24  C14 UNL     1       0.436  51.864 -28.278  1.00  0.00     0.001 A 
HETATM   25  C15 UNL     1      -0.487  51.786 -27.235  1.00  0.00     0.009 A 
ENDBRANCH  19  20
ENDBRANCH  16  19
ENDBRANCH   7  13
BRANCH   1  26
HETATM   26  O2  UNL     1       0.243  50.772 -15.168  1.00  0.00    -0.332 OA
BRANCH  26  27
HETATM   27  C3  UNL     1      -0.847  51.266 -14.379  1.00  0.00     0.203 C 
BRANCH  27  28
HETATM   28  C2  UNL     1      -2.185  50.621 -14.757  1.00  0.00     0.193 C 
BRANCH  28  29
HETATM   29  O1  UNL     1      -3.222  50.891 -13.802  1.00  0.00    -0.394 OA
HETATM   30  C1  UNL     1      -3.124  52.182 -13.215  1.00  0.00     0.201 C 
ENDBRANCH  28  29
ENDBRANCH  27  28
ENDBRANCH  26  27
ENDBRANCH   1  26
TORSDOF 7
ENDMDL
MODEL 5
REMARK minimizedAffinity -7.24315071
REMARK  7 active torsions:
REMARK  status: ('A' for Active; 'I' for Inactive)
REMARK    1  A    between atoms: O1_2  and  C2_3 
REMARK    2  A    between atoms: C2_3  and  C3_4 
REMARK    3  A    between atoms: C3_4  and  O2_5 
REMARK    4  A    between atoms: O2_5  and  C4_6 
REMARK    5  A    between atoms: C7_12  and  N3_13 
REMARK       I    between atoms: N3_13  and  C8_14 
REMARK       I    between atoms: C8_14  and  N4_16 
REMARK    6  A    between atoms: N4_16  and  C9_17 
REMARK    7  A    between atoms: C9_17  and  C10_18 
ROOT
HETATM    1  C4  UNL     1      -3.612  52.232 -24.888  1.00  0.00     0.171 A 
HETATM    2  N1  UNL     1      -4.816  51.835 -24.470  1.00  0.00    -0.279 N 
ATOM      3  H1  UNL     1      -5.691  51.803 -24.993  1.00  0.00     0.189 HD
HETATM    4  N2  UNL     1      -4.594  51.488 -23.186  1.00  0.00    -0.298 N 
HETATM    5  C5  UNL     1      -3.293  51.638 -22.785  1.00  0.00     0.067 A 
HETATM    6  C6  UNL     1      -2.655  51.391 -21.570  1.00  0.00     0.080 A 
HETATM    7  C7  UNL     1      -1.294  51.676 -21.549  1.00  0.00     0.111 A 
HETATM    8  N5  UNL     1      -0.608  52.153 -22.616  1.00  0.00    -0.351 N 
ATOM      9  H5  UNL     1       0.392  52.336 -22.540  1.00  0.00     0.166 HD
HETATM   10  C16 UNL     1      -1.256  52.386 -23.790  1.00  0.00     0.108 A 
HETATM   11  C17 UNL     1      -2.619  52.130 -23.895  1.00  0.00     0.060 A 
HETATM   12  H8  UNL     1      -5.376  51.152 -22.634  1.00  0.00     0.187 HD
ENDROOT
BRANCH   7  13
HETATM   13  N3  UNL     1      -0.486  51.490 -20.427  1.00  0.00    -0.295 N 
HETATM   14  C8  UNL     1      -0.778  51.746 -19.114  1.00  0.00     0.322 C 
HETATM   15  O3  UNL     1      -1.814  52.237 -18.686  1.00  0.00    -0.247 OA
HETATM   16  N4  UNL     1       0.275  51.397 -18.295  1.00  0.00    -0.339 N 
HETATM   17  H11 UNL     1       0.887  50.673 -18.641  1.00  0.00     0.164 HD
HETATM   18  H10 UNL     1       0.454  51.222 -20.670  1.00  0.00     0.172 HD
BRANCH  16  19
HETATM   19  C9  UNL     1       0.165  51.488 -16.856  1.00  0.00     0.162 C 
BRANCH  19  20
HETATM   20  C10 UNL     1       1.520  51.670 -16.222  1.00  0.00    -0.040 A 
HETATM   21  C11 UNL     1       2.497  52.470 -16.834  1.00  0.00     0.009 A 
HETATM   22  C12 UNL     1       3.757  52.615 -16.252  1.00  0.00     0.001 A 
HETATM   23  C13 UNL     1       4.056  51.959 -15.059  1.00  0.00     0.000 A 
HETATM   24  C14 UNL     1       3.096  51.156 -14.446  1.00  0.00     0.001 A 
HETATM   25  C15 UNL     1       1.835  51.010 -15.025  1.00  0.00     0.009 A 
ENDBRANCH  19  20
ENDBRANCH  16  19
ENDBRANCH   7  13
BRANCH   1  26
HETATM   26  O2  UNL     1      -3.411  52.657 -26.156  1.00  0.00    -0.332 OA
BRANCH  26  27
HETATM   27  C3  UNL     1      -2.665  51.767 -26.995  1.00  0.00     0.203 C 
BRANCH  27  28
HETATM   28  C2  UNL     1      -1.317  52.356 -27.425  1.00  0.00     0.193 C 
BRANCH  28  29
HETATM   29  O1  UNL     1      -0.343  51.349 -27.736  1.00  0.00    -0.394 OA
HETATM   30  C1  UNL     1       0.913  51.884 -28.132  1.00  0.00     0.201 C 
ENDBRANCH  28  29
ENDBRANCH  27  28
ENDBRANCH  26  27
ENDBRANCH   1  26
TORSDOF 7
ENDMDL
MODEL 6
REMARK minimizedAffinity -7.1506114
REMARK  7 active torsions:
REMARK  status: ('A' for Active; 'I' for Inactive)
REMARK    1  A    between atoms: O1_2  and  C2_3 
REMARK    2  A    between atoms: C2_3  and  C3_4 
REMARK    3  A    between atoms: C3_4  and  O2_5 
REMARK    4  A    between atoms: O2_5  and  C4_6 
REMARK    5  A    between atoms: C7_12  and  N3_13 
REMARK       I    between atoms: N3_13  and  C8_14 
REMARK       I    between atoms: C8_14  and  N4_16 
REMARK    6  A    between atoms: N4_16  and  C9_17 
REMARK    7  A    between atoms: C9_17  and  C10_18 
ROOT
HETATM    1  C4  UNL     1       0.652  51.560 -15.984  1.00  0.00     0.171 A 
HETATM    2  N1  UNL     1       1.542  52.495 -15.645  1.00  0.00    -0.279 N 
ATOM      3  H1  UNL     1       1.957  52.674 -14.731  1.00  0.00     0.189 HD
HETATM    4  N2  UNL     1       1.757  53.146 -16.806  1.00  0.00    -0.298 N 
HETATM    5  C5  UNL     1       1.048  52.647 -17.865  1.00  0.00     0.067 A 
HETATM    6  C6  UNL     1       0.989  53.016 -19.209  1.00  0.00     0.080 A 
HETATM    7  C7  UNL     1       0.131  52.254 -19.994  1.00  0.00     0.111 A 
HETATM    8  N5  UNL     1      -0.602  51.218 -19.520  1.00  0.00    -0.351 N 
ATOM      9  H5  UNL     1      -1.210  50.692 -20.149  1.00  0.00     0.166 HD
HETATM   10  C16 UNL     1      -0.528  50.880 -18.204  1.00  0.00     0.108 A 
HETATM   11  C17 UNL     1       0.305  51.594 -17.349  1.00  0.00     0.060 A 
HETATM   12  H8  UNL     1       2.406  53.926 -16.809  1.00  0.00     0.187 HD
ENDROOT
BRANCH   7  13
HETATM   13  N3  UNL     1      -0.057  52.469 -21.360  1.00  0.00    -0.295 N 
HETATM   14  C8  UNL     1      -0.420  51.565 -22.323  1.00  0.00     0.322 C 
HETATM   15  O3  UNL     1      -0.607  50.367 -22.156  1.00  0.00    -0.247 OA
HETATM   16  N4  UNL     1      -0.533  52.173 -23.555  1.00  0.00    -0.339 N 
HETATM   17  H11 UNL     1      -0.753  53.158 -23.546  1.00  0.00     0.164 HD
HETATM   18  H10 UNL     1       0.211  53.397 -21.644  1.00  0.00     0.172 HD
BRANCH  16  19
HETATM   19  C9  UNL     1      -0.997  51.437 -24.711  1.00  0.00     0.162 C 
BRANCH  19  20
HETATM   20  C10 UNL     1      -0.025  51.563 -25.856  1.00  0.00    -0.040 A 
HETATM   21  C11 UNL     1      -0.482  51.631 -27.181  1.00  0.00     0.009 A 
HETATM   22  C12 UNL     1       0.426  51.724 -28.237  1.00  0.00     0.001 A 
HETATM   23  C13 UNL     1       1.796  51.745 -27.981  1.00  0.00     0.000 A 
HETATM   24  C14 UNL     1       2.261  51.671 -26.670  1.00  0.00     0.001 A 
HETATM   25  C15 UNL     1       1.356  51.578 -25.612  1.00  0.00     0.009 A 
ENDBRANCH  19  20
ENDBRANCH  16  19
ENDBRANCH   7  13
BRANCH   1  26
HETATM   26  O2  UNL     1       0.178  50.675 -15.077  1.00  0.00    -0.332 OA
BRANCH  26  27
HETATM   27  C3  UNL     1       0.972  49.497 -14.892  1.00  0.00     0.203 C 
BRANCH  27  28
HETATM   28  C2  UNL     1       1.863  49.580 -13.647  1.00  0.00     0.193 C 
BRANCH  28  29
HETATM   29  O1  UNL     1       3.260  49.670 -13.967  1.00  0.00    -0.394 OA
HETATM   30  C1  UNL     1       4.081  49.924 -12.835  1.00  0.00     0.201 C 
ENDBRANCH  28  29
ENDBRANCH  27  28
ENDBRANCH  26  27
ENDBRANCH   1  26
TORSDOF 7
ENDMDL
MODEL 7
REMARK minimizedAffinity -7.14699888
REMARK  7 active torsions:
REMARK  status: ('A' for Active; 'I' for Inactive)
REMARK    1  A    between atoms: O1_2  and  C2_3 
REMARK    2  A    between atoms: C2_3  and  C3_4 
REMARK    3  A    between atoms: C3_4  and  O2_5 
REMARK    4  A    between atoms: O2_5  and  C4_6 
REMARK    5  A    between atoms: C7_12  and  N3_13 
REMARK       I    between atoms: N3_13  and  C8_14 
REMARK       I    between atoms: C8_14  and  N4_16 
REMARK    6  A    between atoms: N4_16  and  C9_17 
REMARK    7  A    between atoms: C9_17  and  C10_18 
ROOT
HETATM    1  C4  UNL     1      -5.873  47.636 -27.946  1.00  0.00     0.171 A 
HETATM    2  N1  UNL     1      -7.018  47.601 -27.262  1.00  0.00    -0.279 N 
ATOM      3  H1  UNL     1      -7.933  47.273 -27.572  1.00  0.00     0.189 HD
HETATM    4  N2  UNL     1      -6.672  48.105 -26.061  1.00  0.00    -0.298 N 
HETATM    5  C5  UNL     1      -5.350  48.443 -25.957  1.00  0.00     0.067 A 
HETATM    6  C6  UNL     1      -4.599  48.977 -24.911  1.00  0.00     0.080 A 
HETATM    7  C7  UNL     1      -3.254  49.189 -25.195  1.00  0.00     0.111 A 
HETATM    8  N5  UNL     1      -2.684  48.901 -26.390  1.00  0.00    -0.351 N 
ATOM      9  H5  UNL     1      -1.689  49.073 -26.535  1.00  0.00     0.166 HD
HETATM   10  C16 UNL     1      -3.439  48.382 -27.396  1.00  0.00     0.108 A 
HETATM   11  C17 UNL     1      -4.795  48.142 -27.195  1.00  0.00     0.060 A 
HETATM   12  H8  UNL     1      -7.390  48.192 -25.348  1.00  0.00     0.187 HD
ENDROOT
BRANCH   7  13
HETATM   13  N3  UNL     1      -2.346  49.710 -24.274  1.00  0.00    -0.295 N 
HETATM   14  C8  UNL     1      -1.574  50.837 -24.381  1.00  0.00     0.322 C 
HETATM   15  O3  UNL     1      -1.516  51.584 -25.349  1.00  0.00    -0.247 OA
HETATM   16  N4  UNL     1      -0.825  51.034 -23.241  1.00  0.00    -0.339 N 
HETATM   17  H11 UNL     1      -1.201  50.646 -22.389  1.00  0.00     0.164 HD
HETATM   18  H10 UNL     1      -2.199  49.097 -23.488  1.00  0.00     0.172 HD
BRANCH  16  19
HETATM   19  C9  UNL     1      -0.003  52.214 -23.082  1.00  0.00     0.162 C 
BRANCH  19  20
HETATM   20  C10 UNL     1       0.259  52.497 -21.625  1.00  0.00    -0.040 A 
HETATM   21  C11 UNL     1       1.183  53.480 -21.239  1.00  0.00     0.009 A 
HETATM   22  C12 UNL     1       1.437  53.719 -19.887  1.00  0.00     0.001 A 
HETATM   23  C13 UNL     1       0.776  52.977 -18.910  1.00  0.00     0.000 A 
HETATM   24  C14 UNL     1      -0.138  51.993 -19.282  1.00  0.00     0.001 A 
HETATM   25  C15 UNL     1      -0.394  51.752 -20.632  1.00  0.00     0.009 A 
ENDBRANCH  19  20
ENDBRANCH  16  19
ENDBRANCH   7  13
BRANCH   1  26
HETATM   26  O2  UNL     1      -5.799  47.195 -29.222  1.00  0.00    -0.332 OA
BRANCH  26  27
HETATM   27  C3  UNL     1      -5.573  48.205 -30.213  1.00  0.00     0.203 C 
BRANCH  27  28
HETATM   28  C2  UNL     1      -5.434  47.622 -31.624  1.00  0.00     0.193 C 
BRANCH  28  29
HETATM   29  O1  UNL     1      -4.422  48.281 -32.400  1.00  0.00    -0.394 OA
HETATM   30  C1  UNL     1      -4.587  48.109 -33.802  1.00  0.00     0.201 C 
ENDBRANCH  28  29
ENDBRANCH  27  28
ENDBRANCH  26  27
ENDBRANCH   1  26
TORSDOF 7
ENDMDL
MODEL 8
REMARK minimizedAffinity -7.11757088
REMARK  7 active torsions:
REMARK  status: ('A' for Active; 'I' for Inactive)
REMARK    1  A    between atoms: O1_2  and  C2_3 
REMARK    2  A    between atoms: C2_3  and  C3_4 
REMARK    3  A    between atoms: C3_4  and  O2_5 
REMARK    4  A    between atoms: O2_5  and  C4_6 
REMARK    5  A    between atoms: C7_12  and  N3_13 
REMARK       I    between atoms: N3_13  and  C8_14 
REMARK       I    between atoms: C8_14  and  N4_16 
REMARK    6  A    between atoms: N4_16  and  C9_17 
REMARK    7  A    between atoms: C9_17  and  C10_18 
ROOT
HETATM    1  C4  UNL     1       9.849  62.285 -34.121  1.00  0.00     0.171 A 
HETATM    2  N1  UNL     1       9.605  61.197 -33.387  1.00  0.00    -0.279 N 
ATOM      3  H1  UNL     1      10.272  60.581 -32.924  1.00  0.00     0.189 HD
HETATM    4  N2  UNL     1       8.260  61.111 -33.408  1.00  0.00    -0.298 N 
HETATM    5  C5  UNL     1       7.647  62.111 -34.114  1.00  0.00     0.067 A 
HETATM    6  C6  UNL     1       6.305  62.390 -34.370  1.00  0.00     0.080 A 
HETATM    7  C7  UNL     1       6.073  63.520 -35.148  1.00  0.00     0.111 A 
HETATM    8  N5  UNL     1       7.058  64.316 -35.631  1.00  0.00    -0.351 N 
ATOM      9  H5  UNL     1       6.823  65.135 -36.190  1.00  0.00     0.166 HD
HETATM   10  C16 UNL     1       8.360  64.021 -35.368  1.00  0.00     0.108 A 
HETATM   11  C17 UNL     1       8.678  62.905 -34.599  1.00  0.00     0.060 A 
HETATM   12  H8  UNL     1       7.817  60.342 -32.915  1.00  0.00     0.187 HD
ENDROOT
BRANCH   7  13
HETATM   13  N3  UNL     1       4.799  63.961 -35.504  1.00  0.00    -0.295 N 
HETATM   14  C8  UNL     1       4.332  65.246 -35.583  1.00  0.00     0.322 C 
HETATM   15  O3  UNL     1       4.959  66.261 -35.306  1.00  0.00    -0.247 OA
HETATM   16  N4  UNL     1       3.020  65.272 -36.003  1.00  0.00    -0.339 N 
HETATM   17  H11 UNL     1       2.718  64.491 -36.566  1.00  0.00     0.164 HD
HETATM   18  H10 UNL     1       4.146  63.202 -35.616  1.00  0.00     0.172 HD
BRANCH  16  19
HETATM   19  C9  UNL     1       2.339  66.524 -36.253  1.00  0.00     0.162 C 
BRANCH  19  20
HETATM   20  C10 UNL     1       2.309  66.836 -37.727  1.00  0.00    -0.040 A 
HETATM   21  C11 UNL     1       1.242  66.406 -38.530  1.00  0.00     0.009 A 
HETATM   22  C12 UNL     1       1.233  66.679 -39.899  1.00  0.00     0.001 A 
HETATM   23  C13 UNL     1       2.289  67.378 -40.479  1.00  0.00     0.000 A 
HETATM   24  C14 UNL     1       3.358  67.804 -39.692  1.00  0.00     0.001 A 
HETATM   25  C15 UNL     1       3.370  67.533 -38.324  1.00  0.00     0.009 A 
ENDBRANCH  19  20
ENDBRANCH  16  19
ENDBRANCH   7  13
BRANCH   1  26
HETATM   26  O2  UNL     1      11.110  62.723 -34.335  1.00  0.00    -0.332 OA
BRANCH  26  27
HETATM   27  C3  UNL     1      11.532  62.747 -35.704  1.00  0.00     0.203 C 
BRANCH  27  28
HETATM   28  C2  UNL     1      12.785  63.604 -35.917  1.00  0.00     0.193 C 
BRANCH  28  29
HETATM   29  O1  UNL     1      13.892  63.183 -35.105  1.00  0.00    -0.394 OA
HETATM   30  C1  UNL     1      15.018  62.763 -35.863  1.00  0.00     0.201 C 
ENDBRANCH  28  29
ENDBRANCH  27  28
ENDBRANCH  26  27
ENDBRANCH   1  26
TORSDOF 7
ENDMDL
MODEL 9
REMARK minimizedAffinity -7.10557604
REMARK  7 active torsions:
REMARK  status: ('A' for Active; 'I' for Inactive)
REMARK    1  A    between atoms: O1_2  and  C2_3 
REMARK    2  A    between atoms: C2_3  and  C3_4 
REMARK    3  A    between atoms: C3_4  and  O2_5 
REMARK    4  A    between atoms: O2_5  and  C4_6 
REMARK    5  A    between atoms: C7_12  and  N3_13 
REMARK       I    between atoms: N3_13  and  C8_14 
REMARK       I    between atoms: C8_14  and  N4_16 
REMARK    6  A    between atoms: N4_16  and  C9_17 
REMARK    7  A    between atoms: C9_17  and  C10_18 
ROOT
HETATM    1  C4  UNL     1       7.213  62.794 -34.583  1.00  0.00     0.171 A 
HETATM    2  N1  UNL     1       7.955  63.077 -35.656  1.00  0.00    -0.279 N 
ATOM      3  H1  UNL     1       8.899  62.762 -35.875  1.00  0.00     0.189 HD
HETATM    4  N2  UNL     1       7.151  63.882 -36.379  1.00  0.00    -0.298 N 
HETATM    5  C5  UNL     1       5.926  64.105 -35.809  1.00  0.00     0.067 A 
HETATM    6  C6  UNL     1       4.823  64.852 -36.222  1.00  0.00     0.080 A 
HETATM    7  C7  UNL     1       3.739  64.837 -35.352  1.00  0.00     0.111 A 
HETATM    8  N5  UNL     1       3.721  64.150 -34.184  1.00  0.00    -0.351 N 
ATOM      9  H5  UNL     1       2.891  64.173 -33.590  1.00  0.00     0.166 HD
HETATM   10  C16 UNL     1       4.811  63.430 -33.803  1.00  0.00     0.108 A 
HETATM   11  C17 UNL     1       5.940  63.395 -34.616  1.00  0.00     0.060 A 
HETATM   12  H8  UNL     1       7.498  64.248 -37.259  1.00  0.00     0.187 HD
ENDROOT
BRANCH   7  13
HETATM   13  N3  UNL     1       2.546  65.519 -35.595  1.00  0.00    -0.295 N 
HETATM   14  C8  UNL     1       2.313  66.540 -36.479  1.00  0.00     0.322 C 
HETATM   15  O3  UNL     1       3.144  67.075 -37.201  1.00  0.00    -0.247 OA
HETATM   16  N4  UNL     1       0.991  66.928 -36.449  1.00  0.00    -0.339 N 
HETATM   17  H11 UNL     1       0.327  66.225 -36.158  1.00  0.00     0.164 HD
HETATM   18  H10 UNL     1       1.817  65.261 -34.951  1.00  0.00     0.172 HD
BRANCH  16  19
HETATM   19  C9  UNL     1       0.485  67.927 -37.365  1.00  0.00     0.162 C 
BRANCH  19  20
HETATM   20  C10 UNL     1      -0.102  69.096 -36.616  1.00  0.00    -0.040 A 
HETATM   21  C11 UNL     1       0.544  69.623 -35.487  1.00  0.00     0.009 A 
HETATM   22  C12 UNL     1      -0.018  70.690 -34.786  1.00  0.00     0.001 A 
HETATM   23  C13 UNL     1      -1.231  71.237 -35.200  1.00  0.00     0.000 A 
HETATM   24  C14 UNL     1      -1.886  70.717 -36.314  1.00  0.00     0.001 A 
HETATM   25  C15 UNL     1      -1.326  69.651 -37.018  1.00  0.00     0.009 A 
ENDBRANCH  19  20
ENDBRANCH  16  19
ENDBRANCH   7  13
BRANCH   1  26
HETATM   26  O2  UNL     1       7.673  61.986 -33.601  1.00  0.00    -0.332 OA
BRANCH  26  27
HETATM   27  C3  UNL     1       8.988  61.455 -33.804  1.00  0.00     0.203 C 
BRANCH  27  28
HETATM   28  C2  UNL     1       9.884  61.619 -32.571  1.00  0.00     0.193 C 
BRANCH  28  29
HETATM   29  O1  UNL     1      10.191  62.992 -32.285  1.00  0.00    -0.394 OA
HETATM   30  C1  UNL     1      11.464  63.170 -31.679  1.00  0.00     0.201 C 
ENDBRANCH  28  29
ENDBRANCH  27  28
ENDBRANCH  26  27
ENDBRANCH   1  26
TORSDOF 7
ENDMDL
