MODEL 1
REMARK minimizedAffinity -7.41382027
REMARK  3 active torsions:
REMARK  status: ('A' for Active; 'I' for Inactive)
REMARK    1  A    between atoms: C3_4  and  C4_5 
REMARK    2  A    between atoms: C7_10  and  N3_11 
REMARK       I    between atoms: N3_11  and  C8_12 
REMARK       I    between atoms: C8_12  and  N4_14 
REMARK    3  A    between atoms: N4_14  and  C9_15 
ROOT
HETATM    1  C4  UNL     1      15.377  54.951   4.748  1.00  0.00    -0.005 A 
HETATM    2  C5  UNL     1      14.858  53.755   5.224  1.00  0.00     0.101 A 
HETATM    3  N2  UNL     1      15.593  52.640   5.451  1.00  0.00    -0.361 N 
ATOM      4  H2  UNL     1      15.163  51.784   5.800  1.00  0.00     0.165 HD
HETATM    5  C6  UNL     1      16.926  52.708   5.195  1.00  0.00     0.086 A 
HETATM    6  C7  UNL     1      17.749  51.595   5.411  1.00  0.00     0.066 A 
HETATM    7  C13 UNL     1      19.114  51.662   5.140  1.00  0.00     0.049 A 
HETATM    8  C14 UNL     1      19.623  52.854   4.665  1.00  0.00     0.090 A 
HETATM    9  N5  UNL     1      18.873  53.954   4.446  1.00  0.00    -0.364 N 
ATOM     10  H5  UNL     1      19.289  54.816   4.094  1.00  0.00     0.165 HD
HETATM   11  C15 UNL     1      17.555  53.871   4.708  1.00  0.00     0.062 A 
HETATM   12  C16 UNL     1      16.751  54.981   4.492  1.00  0.00     0.045 A 
ENDROOT
BRANCH   6  13
HETATM   13  N3  UNL     1      17.111  50.428   5.897  1.00  0.00    -0.307 N 
HETATM   14  C8  UNL     1      17.034  49.189   5.307  1.00  0.00     0.321 C 
HETATM   15  O1  UNL     1      17.565  48.862   4.255  1.00  0.00    -0.247 OA
HETATM   16  N4  UNL     1      16.268  48.336   6.076  1.00  0.00    -0.335 N 
HETATM   17  H7  UNL     1      15.562  48.811   6.619  1.00  0.00     0.165 HD
HETATM   18  H6  UNL     1      16.804  50.507   6.861  1.00  0.00     0.170 HD
BRANCH  16  19
HETATM   19  C9  UNL     1      15.950  46.948   5.704  1.00  0.00     0.023 C 
HETATM   20  C10 UNL     1      14.793  46.474   6.604  1.00  0.00     0.037 C 
HETATM   21  C11 UNL     1      15.498  46.864   4.238  1.00  0.00     0.037 C 
HETATM   22  C12 UNL     1      17.149  46.014   5.943  1.00  0.00     0.037 C 
ENDBRANCH  16  19
ENDBRANCH   6  13
BRANCH   1  23
HETATM   23  C3  UNL     1      14.523  56.104   4.524  1.00  0.00     0.009 A 
HETATM   24  C2  UNL     1      14.578  57.289   5.231  1.00  0.00     0.123 A 
HETATM   25  N1  UNL     1      13.604  58.093   4.714  1.00  0.00    -0.307 N 
HETATM   26  C1  UNL     1      13.272  59.435   5.128  1.00  0.00     0.177 C 
HETATM   27  N6  UNL     1      12.908  57.516   3.719  1.00  0.00    -0.310 N 
HETATM   28  C17 UNL     1      13.468  56.310   3.603  1.00  0.00     0.121 A 
ATOM     29  H6  UNL     1      12.135  57.908   3.180  1.00  0.00     0.186 HD
ENDBRANCH   1  23
TORSDOF 3
ENDMDL
MODEL 2
REMARK minimizedAffinity -7.26773548
REMARK  3 active torsions:
REMARK  status: ('A' for Active; 'I' for Inactive)
REMARK    1  A    between atoms: C3_4  and  C4_5 
REMARK    2  A    between atoms: C7_10  and  N3_11 
REMARK       I    between atoms: N3_11  and  C8_12 
REMARK       I    between atoms: C8_12  and  N4_14 
REMARK    3  A    between atoms: N4_14  and  C9_15 
ROOT
HETATM    1  C4  UNL     1      10.929  35.531  18.272  1.00  0.00    -0.005 A 
HETATM    2  C5  UNL     1      11.365  36.039  17.056  1.00  0.00     0.101 A 
HETATM    3  N2  UNL     1      12.636  35.939  16.599  1.00  0.00    -0.361 N 
ATOM      4  H2  UNL     1      12.907  36.332  15.697  1.00  0.00     0.165 HD
HETATM    5  C6  UNL     1      13.536  35.295  17.388  1.00  0.00     0.086 A 
HETATM    6  C7  UNL     1      14.867  35.149  16.977  1.00  0.00     0.066 A 
HETATM    7  C13 UNL     1      15.790  34.496  17.790  1.00  0.00     0.049 A 
HETATM    8  C14 UNL     1      15.350  33.995  18.999  1.00  0.00     0.090 A 
HETATM    9  N5  UNL     1      14.079  34.106  19.436  1.00  0.00    -0.364 N 
ATOM     10  H5  UNL     1      13.794  33.721  20.337  1.00  0.00     0.165 HD
HETATM   11  C15 UNL     1      13.200  34.743  18.641  1.00  0.00     0.062 A 
HETATM   12  C16 UNL     1      11.883  34.879  19.058  1.00  0.00     0.045 A 
ENDROOT
BRANCH   6  13
HETATM   13  N3  UNL     1      15.199  35.708  15.719  1.00  0.00    -0.307 N 
HETATM   14  C8  UNL     1      16.338  35.517  14.974  1.00  0.00     0.321 C 
HETATM   15  O1  UNL     1      17.262  34.767  15.257  1.00  0.00    -0.247 OA
HETATM   16  N4  UNL     1      16.303  36.293  13.832  1.00  0.00    -0.335 N 
HETATM   17  H7  UNL     1      15.764  37.140  13.940  1.00  0.00     0.165 HD
HETATM   18  H6  UNL     1      14.425  36.191  15.274  1.00  0.00     0.170 HD
BRANCH  16  19
HETATM   19  C9  UNL     1      17.390  36.356  12.841  1.00  0.00     0.023 C 
HETATM   20  C10 UNL     1      18.717  36.117  13.586  1.00  0.00     0.037 C 
HETATM   21  C11 UNL     1      17.222  35.265  11.774  1.00  0.00     0.037 C 
HETATM   22  C12 UNL     1      17.462  37.741  12.176  1.00  0.00     0.037 C 
ENDBRANCH  16  19
ENDBRANCH   6  13
BRANCH   1  23
HETATM   23  C3  UNL     1       9.549  35.682  18.698  1.00  0.00     0.009 A 
HETATM   24  C2  UNL     1       9.010  35.168  19.860  1.00  0.00     0.123 A 
HETATM   25  N1  UNL     1       7.693  35.526  19.867  1.00  0.00    -0.307 N 
HETATM   26  C1  UNL     1       6.713  35.217  20.880  1.00  0.00     0.177 C 
HETATM   27  N6  UNL     1       7.327  36.236  18.786  1.00  0.00    -0.310 N 
HETATM   28  C17 UNL     1       8.454  36.332  18.078  1.00  0.00     0.121 A 
ATOM     29  H6  UNL     1       6.406  36.612  18.560  1.00  0.00     0.186 HD
ENDBRANCH   1  23
TORSDOF 3
ENDMDL
MODEL 3
REMARK minimizedAffinity -7.01848078
REMARK  3 active torsions:
REMARK  status: ('A' for Active; 'I' for Inactive)
REMARK    1  A    between atoms: C3_4  and  C4_5 
REMARK    2  A    between atoms: C7_10  and  N3_11 
REMARK       I    between atoms: N3_11  and  C8_12 
REMARK       I    between atoms: C8_12  and  N4_14 
REMARK    3  A    between atoms: N4_14  and  C9_15 
ROOT
HETATM    1  C4  UNL     1      17.477  48.552   5.650  1.00  0.00    -0.005 A 
HETATM    2  C5  UNL     1      16.924  49.408   4.708  1.00  0.00     0.101 A 
HETATM    3  N2  UNL     1      17.034  50.758   4.746  1.00  0.00    -0.361 N 
ATOM      4  H2  UNL     1      16.607  51.344   4.029  1.00  0.00     0.165 HD
HETATM    5  C6  UNL     1      17.735  51.299   5.777  1.00  0.00     0.086 A 
HETATM    6  C7  UNL     1      17.894  52.688   5.877  1.00  0.00     0.066 A 
HETATM    7  C13 UNL     1      18.604  53.243   6.938  1.00  0.00     0.049 A 
HETATM    8  C14 UNL     1      19.150  52.385   7.873  1.00  0.00     0.090 A 
HETATM    9  N5  UNL     1      19.029  51.043   7.817  1.00  0.00    -0.364 N 
ATOM     10  H5  UNL     1      19.448  50.444   8.529  1.00  0.00     0.165 HD
HETATM   11  C15 UNL     1      18.335  50.523   6.788  1.00  0.00     0.062 A 
HETATM   12  C16 UNL     1      18.187  49.146   6.698  1.00  0.00     0.045 A 
ENDROOT
BRANCH   6  13
HETATM   13  N3  UNL     1      17.285  53.463   4.860  1.00  0.00    -0.307 N 
HETATM   14  C8  UNL     1      16.344  54.456   4.992  1.00  0.00     0.321 C 
HETATM   15  O1  UNL     1      15.898  54.885   6.047  1.00  0.00    -0.247 OA
HETATM   16  N4  UNL     1      15.961  54.925   3.751  1.00  0.00    -0.335 N 
HETATM   17  H7  UNL     1      16.037  54.232   3.021  1.00  0.00     0.165 HD
HETATM   18  H6  UNL     1      17.719  53.348   3.950  1.00  0.00     0.170 HD
BRANCH  16  19
HETATM   19  C9  UNL     1      14.935  55.958   3.538  1.00  0.00     0.023 C 
HETATM   20  C10 UNL     1      13.584  55.381   4.004  1.00  0.00     0.037 C 
HETATM   21  C11 UNL     1      15.243  57.215   4.366  1.00  0.00     0.037 C 
HETATM   22  C12 UNL     1      14.806  56.323   2.049  1.00  0.00     0.037 C 
ENDBRANCH  16  19
ENDBRANCH   6  13
BRANCH   1  23
HETATM   23  C3  UNL     1      17.313  47.113   5.546  1.00  0.00     0.009 A 
HETATM   24  C2  UNL     1      17.733  46.335   4.486  1.00  0.00     0.123 A 
HETATM   25  N1  UNL     1      17.373  45.052   4.781  1.00  0.00    -0.307 N 
HETATM   26  C1  UNL     1      17.598  43.877   3.974  1.00  0.00     0.177 C 
HETATM   27  N6  UNL     1      16.741  44.932   5.962  1.00  0.00    -0.310 N 
HETATM   28  C17 UNL     1      16.706  46.184   6.425  1.00  0.00     0.121 A 
ATOM     29  H6  UNL     1      16.375  44.087   6.399  1.00  0.00     0.186 HD
ENDBRANCH   1  23
TORSDOF 3
ENDMDL
MODEL 4
REMARK minimizedAffinity -6.88155317
REMARK  3 active torsions:
REMARK  status: ('A' for Active; 'I' for Inactive)
REMARK    1  A    between atoms: C3_4  and  C4_5 
REMARK    2  A    between atoms: C7_10  and  N3_11 
REMARK       I    between atoms: N3_11  and  C8_12 
REMARK       I    between atoms: C8_12  and  N4_14 
REMARK    3  A    between atoms: N4_14  and  C9_15 
ROOT
HETATM    1  C4  UNL     1      12.532  35.288  18.615  1.00  0.00    -0.005 A 
HETATM    2  C5  UNL     1      12.874  34.580  17.472  1.00  0.00     0.101 A 
HETATM    3  N2  UNL     1      13.732  35.029  16.524  1.00  0.00    -0.361 N 
ATOM      4  H2  UNL     1      13.949  34.470  15.699  1.00  0.00     0.165 HD
HETATM    5  C6  UNL     1      14.292  36.253  16.716  1.00  0.00     0.086 A 
HETATM    6  C7  UNL     1      15.192  36.778  15.781  1.00  0.00     0.066 A 
HETATM    7  C13 UNL     1      15.758  38.036  15.974  1.00  0.00     0.049 A 
HETATM    8  C14 UNL     1      15.412  38.735  17.113  1.00  0.00     0.090 A 
HETATM    9  N5  UNL     1      14.555  38.270  18.044  1.00  0.00    -0.364 N 
ATOM     10  H5  UNL     1      14.326  38.820  18.873  1.00  0.00     0.165 HD
HETATM   11  C15 UNL     1      14.013  37.055  17.841  1.00  0.00     0.062 A 
HETATM   12  C16 UNL     1      13.124  36.544  18.776  1.00  0.00     0.045 A 
ENDROOT
BRANCH   6  13
HETATM   13  N3  UNL     1      15.465  35.969  14.651  1.00  0.00    -0.307 N 
HETATM   14  C8  UNL     1      16.632  35.318  14.329  1.00  0.00     0.321 C 
HETATM   15  O1  UNL     1      17.647  35.287  15.012  1.00  0.00    -0.247 OA
HETATM   16  N4  UNL     1      16.509  34.683  13.109  1.00  0.00    -0.335 N 
HETATM   17  H7  UNL     1      15.857  35.136  12.486  1.00  0.00     0.165 HD
HETATM   18  H6  UNL     1      14.639  35.744  14.105  1.00  0.00     0.170 HD
BRANCH  16  19
HETATM   19  C9  UNL     1      17.594  33.935  12.454  1.00  0.00     0.023 C 
HETATM   20  C10 UNL     1      17.000  32.617  11.921  1.00  0.00     0.037 C 
HETATM   21  C11 UNL     1      18.168  34.728  11.270  1.00  0.00     0.037 C 
HETATM   22  C12 UNL     1      18.714  33.582  13.448  1.00  0.00     0.037 C 
ENDBRANCH  16  19
ENDBRANCH   6  13
BRANCH   1  23
HETATM   23  C3  UNL     1      11.599  34.743  19.585  1.00  0.00     0.009 A 
HETATM   24  C2  UNL     1      10.261  35.068  19.677  1.00  0.00     0.123 A 
HETATM   25  N1  UNL     1       9.759  34.348  20.722  1.00  0.00    -0.307 N 
HETATM   26  C1  UNL     1       8.400  34.352  21.209  1.00  0.00     0.177 C 
HETATM   27  N6  UNL     1      10.677  33.575  21.329  1.00  0.00    -0.310 N 
HETATM   28  C17 UNL     1      11.793  33.815  20.636  1.00  0.00     0.121 A 
ATOM     29  H6  UNL     1      10.550  32.954  22.127  1.00  0.00     0.186 HD
ENDBRANCH   1  23
TORSDOF 3
ENDMDL
MODEL 5
REMARK minimizedAffinity -6.57950687
REMARK  3 active torsions:
REMARK  status: ('A' for Active; 'I' for Inactive)
REMARK    1  A    between atoms: C3_4  and  C4_5 
REMARK    2  A    between atoms: C7_10  and  N3_11 
REMARK       I    between atoms: N3_11  and  C8_12 
REMARK       I    between atoms: C8_12  and  N4_14 
REMARK    3  A    between atoms: N4_14  and  C9_15 
ROOT
HETATM    1  C4  UNL     1      14.849  35.697  16.505  1.00  0.00    -0.005 A 
HETATM    2  C5  UNL     1      13.469  35.638  16.370  1.00  0.00     0.101 A 
HETATM    3  N2  UNL     1      12.622  35.240  17.351  1.00  0.00    -0.361 N 
ATOM      4  H2  UNL     1      11.614  35.212  17.201  1.00  0.00     0.165 HD
HETATM    5  C6  UNL     1      13.170  34.880  18.541  1.00  0.00     0.086 A 
HETATM    6  C7  UNL     1      12.356  34.462  19.602  1.00  0.00     0.066 A 
HETATM    7  C13 UNL     1      12.918  34.084  20.819  1.00  0.00     0.049 A 
HETATM    8  C14 UNL     1      14.292  34.144  20.945  1.00  0.00     0.090 A 
HETATM    9  N5  UNL     1      15.117  34.543  19.956  1.00  0.00    -0.364 N 
ATOM     10  H5  UNL     1      16.128  34.573  20.090  1.00  0.00     0.165 HD
HETATM   11  C15 UNL     1      14.558  34.901  18.785  1.00  0.00     0.062 A 
HETATM   12  C16 UNL     1      15.375  35.315  17.742  1.00  0.00     0.045 A 
ENDROOT
BRANCH   6  13
HETATM   13  N3  UNL     1      10.962  34.439  19.350  1.00  0.00    -0.307 N 
HETATM   14  C8  UNL     1      10.014  35.366  19.712  1.00  0.00     0.321 C 
HETATM   15  O1  UNL     1      10.229  36.425  20.284  1.00  0.00    -0.247 OA
HETATM   16  N4  UNL     1       8.756  34.943  19.329  1.00  0.00    -0.335 N 
HETATM   17  H7  UNL     1       8.664  33.939  19.298  1.00  0.00     0.165 HD
HETATM   18  H6  UNL     1      10.681  33.712  18.701  1.00  0.00     0.170 HD
BRANCH  16  19
HETATM   19  C9  UNL     1       7.515  35.683  19.608  1.00  0.00     0.023 C 
HETATM   20  C10 UNL     1       6.332  34.787  19.195  1.00  0.00     0.037 C 
HETATM   21  C11 UNL     1       7.391  35.999  21.107  1.00  0.00     0.037 C 
HETATM   22  C12 UNL     1       7.438  36.981  18.786  1.00  0.00     0.037 C 
ENDBRANCH  16  19
ENDBRANCH   6  13
BRANCH   1  23
HETATM   23  C3  UNL     1      15.693  36.130  15.406  1.00  0.00     0.009 A 
HETATM   24  C2  UNL     1      16.307  37.363  15.306  1.00  0.00     0.123 A 
HETATM   25  N1  UNL     1      16.987  37.361  14.123  1.00  0.00    -0.307 N 
HETATM   26  C1  UNL     1      17.784  38.433  13.577  1.00  0.00     0.177 C 
HETATM   27  N6  UNL     1      16.860  36.214  13.435  1.00  0.00    -0.310 N 
HETATM   28  C17 UNL     1      16.076  35.467  14.215  1.00  0.00     0.121 A 
ATOM     29  H6  UNL     1      17.266  35.971  12.532  1.00  0.00     0.186 HD
ENDBRANCH   1  23
TORSDOF 3
ENDMDL
MODEL 6
REMARK minimizedAffinity -6.5619669
REMARK  3 active torsions:
REMARK  status: ('A' for Active; 'I' for Inactive)
REMARK    1  A    between atoms: C3_4  and  C4_5 
REMARK    2  A    between atoms: C7_10  and  N3_11 
REMARK       I    between atoms: N3_11  and  C8_12 
REMARK       I    between atoms: C8_12  and  N4_14 
REMARK    3  A    between atoms: N4_14  and  C9_15 
ROOT
HETATM    1  C4  UNL     1      16.052  40.415  15.934  1.00  0.00    -0.005 A 
HETATM    2  C5  UNL     1      15.241  40.259  17.049  1.00  0.00     0.101 A 
HETATM    3  N2  UNL     1      14.685  39.084  17.431  1.00  0.00    -0.361 N 
ATOM      4  H2  UNL     1      14.094  39.022  18.259  1.00  0.00     0.165 HD
HETATM    5  C6  UNL     1      14.949  37.991  16.668  1.00  0.00     0.086 A 
HETATM    6  C7  UNL     1      14.413  36.741  17.005  1.00  0.00     0.066 A 
HETATM    7  C13 UNL     1      14.675  35.623  16.217  1.00  0.00     0.049 A 
HETATM    8  C14 UNL     1      15.482  35.786  15.109  1.00  0.00     0.090 A 
HETATM    9  N5  UNL     1      16.025  36.966  14.745  1.00  0.00    -0.364 N 
ATOM     10  H5  UNL     1      16.616  37.043  13.917  1.00  0.00     0.165 HD
HETATM   11  C15 UNL     1      15.758  38.038  15.514  1.00  0.00     0.062 A 
HETATM   12  C16 UNL     1      16.296  39.269  15.171  1.00  0.00     0.045 A 
ENDROOT
BRANCH   6  13
HETATM   13  N3  UNL     1      13.598  36.702  18.163  1.00  0.00    -0.307 N 
HETATM   14  C8  UNL     1      12.341  36.162  18.304  1.00  0.00     0.321 C 
HETATM   15  O1  UNL     1      11.719  35.560  17.440  1.00  0.00    -0.247 OA
HETATM   16  N4  UNL     1      11.862  36.383  19.580  1.00  0.00    -0.335 N 
HETATM   17  H7  UNL     1      12.231  37.220  20.006  1.00  0.00     0.165 HD
HETATM   18  H6  UNL     1      14.082  36.986  19.008  1.00  0.00     0.170 HD
BRANCH  16  19
HETATM   19  C9  UNL     1      10.527  35.973  20.045  1.00  0.00     0.023 C 
HETATM   20  C10 UNL     1      10.395  36.394  21.520  1.00  0.00     0.037 C 
HETATM   21  C11 UNL     1       9.426  36.673  19.233  1.00  0.00     0.037 C 
HETATM   22  C12 UNL     1      10.351  34.447  19.969  1.00  0.00     0.037 C 
ENDBRANCH  16  19
ENDBRANCH   6  13
BRANCH   1  23
HETATM   23  C3  UNL     1      16.608  41.710  15.584  1.00  0.00     0.009 A 
HETATM   24  C2  UNL     1      16.627  42.820  16.405  1.00  0.00     0.123 A 
HETATM   25  N1  UNL     1      17.222  43.819  15.689  1.00  0.00    -0.307 N 
HETATM   26  C1  UNL     1      17.468  45.172  16.125  1.00  0.00     0.177 C 
HETATM   27  N6  UNL     1      17.590  43.444  14.452  1.00  0.00    -0.310 N 
HETATM   28  C17 UNL     1      17.218  42.164  14.390  1.00  0.00     0.121 A 
ATOM     29  H6  UNL     1      18.045  44.005  13.732  1.00  0.00     0.186 HD
ENDBRANCH   1  23
TORSDOF 3
ENDMDL
MODEL 7
REMARK minimizedAffinity -6.42569113
REMARK  3 active torsions:
REMARK  status: ('A' for Active; 'I' for Inactive)
REMARK    1  A    between atoms: C3_4  and  C4_5 
REMARK    2  A    between atoms: C7_10  and  N3_11 
REMARK       I    between atoms: N3_11  and  C8_12 
REMARK       I    between atoms: C8_12  and  N4_14 
REMARK    3  A    between atoms: N4_14  and  C9_15 
ROOT
HETATM    1  C4  UNL     1       2.210  65.954  -2.728  1.00  0.00    -0.005 A 
HETATM    2  C5  UNL     1       3.078  64.872  -2.696  1.00  0.00     0.101 A 
HETATM    3  N2  UNL     1       3.984  64.591  -3.663  1.00  0.00    -0.361 N 
ATOM      4  H2  UNL     1       4.600  63.781  -3.593  1.00  0.00     0.165 HD
HETATM    5  C6  UNL     1       4.040  65.431  -4.730  1.00  0.00     0.086 A 
HETATM    6  C7  UNL     1       4.956  65.206  -5.766  1.00  0.00     0.066 A 
HETATM    7  C13 UNL     1       5.006  66.062  -6.863  1.00  0.00     0.049 A 
HETATM    8  C14 UNL     1       4.138  67.135  -6.889  1.00  0.00     0.090 A 
HETATM    9  N5  UNL     1       3.242  67.397  -5.916  1.00  0.00    -0.364 N 
ATOM     10  H5  UNL     1       2.618  68.202  -5.973  1.00  0.00     0.165 HD
HETATM   11  C15 UNL     1       3.203  66.557  -4.864  1.00  0.00     0.062 A 
HETATM   12  C16 UNL     1       2.293  66.792  -3.843  1.00  0.00     0.045 A 
ENDROOT
BRANCH   6  13
HETATM   13  N3  UNL     1       5.791  64.071  -5.628  1.00  0.00    -0.307 N 
HETATM   14  C8  UNL     1       7.041  63.861  -6.160  1.00  0.00     0.321 C 
HETATM   15  O1  UNL     1       7.683  64.666  -6.820  1.00  0.00    -0.247 OA
HETATM   16  N4  UNL     1       7.495  62.597  -5.840  1.00  0.00    -0.335 N 
HETATM   17  H7  UNL     1       6.752  61.926  -5.712  1.00  0.00     0.165 HD
HETATM   18  H6  UNL     1       5.463  63.410  -4.931  1.00  0.00     0.170 HD
BRANCH  16  19
HETATM   19  C9  UNL     1       8.779  62.040  -6.295  1.00  0.00     0.023 C 
HETATM   20  C10 UNL     1       9.905  62.847  -5.621  1.00  0.00     0.037 C 
HETATM   21  C11 UNL     1       8.915  60.567  -5.879  1.00  0.00     0.037 C 
HETATM   22  C12 UNL     1       8.943  62.177  -7.818  1.00  0.00     0.037 C 
ENDBRANCH  16  19
ENDBRANCH   6  13
BRANCH   1  23
HETATM   23  C3  UNL     1       1.260  66.187  -1.654  1.00  0.00     0.009 A 
HETATM   24  C2  UNL     1       1.173  67.341  -0.901  1.00  0.00     0.123 A 
HETATM   25  N1  UNL     1       0.167  67.140  -0.001  1.00  0.00    -0.307 N 
HETATM   26  C1  UNL     1      -0.299  68.064   1.004  1.00  0.00     0.177 C 
HETATM   27  N6  UNL     1      -0.411  65.930  -0.106  1.00  0.00    -0.310 N 
HETATM   28  C17 UNL     1       0.253  65.354  -1.111  1.00  0.00     0.121 A 
ATOM     29  H6  UNL     1      -1.174  65.545   0.449  1.00  0.00     0.186 HD
ENDBRANCH   1  23
TORSDOF 3
ENDMDL
MODEL 8
REMARK minimizedAffinity -6.36563635
REMARK  3 active torsions:
REMARK  status: ('A' for Active; 'I' for Inactive)
REMARK    1  A    between atoms: C3_4  and  C4_5 
REMARK    2  A    between atoms: C7_10  and  N3_11 
REMARK       I    between atoms: N3_11  and  C8_12 
REMARK       I    between atoms: C8_12  and  N4_14 
REMARK    3  A    between atoms: N4_14  and  C9_15 
ROOT
HETATM    1  C4  UNL     1       3.283  65.251  -4.402  1.00  0.00    -0.005 A 
HETATM    2  C5  UNL     1       4.624  64.932  -4.239  1.00  0.00     0.101 A 
HETATM    3  N2  UNL     1       5.559  65.046  -5.213  1.00  0.00    -0.361 N 
ATOM      4  H2  UNL     1       6.533  64.796  -5.043  1.00  0.00     0.165 HD
HETATM    5  C6  UNL     1       5.148  65.505  -6.424  1.00  0.00     0.086 A 
HETATM    6  C7  UNL     1       6.061  65.652  -7.476  1.00  0.00     0.066 A 
HETATM    7  C13 UNL     1       5.637  66.114  -8.720  1.00  0.00     0.049 A 
HETATM    8  C14 UNL     1       4.301  66.427  -8.875  1.00  0.00     0.090 A 
HETATM    9  N5  UNL     1       3.386  66.307  -7.893  1.00  0.00    -0.364 N 
ATOM     10  H5  UNL     1       2.407  66.549  -8.049  1.00  0.00     0.165 HD
HETATM   11  C15 UNL     1       3.810  65.855  -6.698  1.00  0.00     0.062 A 
HETATM   12  C16 UNL     1       2.897  65.715  -5.662  1.00  0.00     0.045 A 
ENDROOT
BRANCH   6  13
HETATM   13  N3  UNL     1       7.402  65.295  -7.196  1.00  0.00    -0.307 N 
HETATM   14  C8  UNL     1       8.546  65.701  -7.842  1.00  0.00     0.321 C 
HETATM   15  O1  UNL     1       8.602  66.504  -8.763  1.00  0.00    -0.247 OA
HETATM   16  N4  UNL     1       9.652  65.077  -7.301  1.00  0.00    -0.335 N 
HETATM   17  H7  UNL     1       9.447  64.169  -6.908  1.00  0.00     0.165 HD
HETATM   18  H6  UNL     1       7.512  64.792  -6.322  1.00  0.00     0.170 HD
BRANCH  16  19
HETATM   19  C9  UNL     1      11.027  65.256  -7.794  1.00  0.00     0.023 C 
HETATM   20  C10 UNL     1      11.380  66.750  -7.665  1.00  0.00     0.037 C 
HETATM   21  C11 UNL     1      12.022  64.442  -6.952  1.00  0.00     0.037 C 
HETATM   22  C12 UNL     1      11.147  64.867  -9.277  1.00  0.00     0.037 C 
ENDBRANCH  16  19
ENDBRANCH   6  13
BRANCH   1  23
HETATM   23  C3  UNL     1       2.337  65.098  -3.311  1.00  0.00     0.009 A 
HETATM   24  C2  UNL     1       1.202  64.313  -3.341  1.00  0.00     0.123 A 
HETATM   25  N1  UNL     1       0.595  64.463  -2.128  1.00  0.00    -0.307 N 
HETATM   26  C1  UNL     1      -0.628  63.840  -1.684  1.00  0.00     0.177 C 
HETATM   27  N6  UNL     1       1.250  65.298  -1.303  1.00  0.00    -0.310 N 
HETATM   28  C17 UNL     1       2.308  65.681  -2.022  1.00  0.00     0.121 A 
ATOM     29  H6  UNL     1       0.998  65.574  -0.354  1.00  0.00     0.186 HD
ENDBRANCH   1  23
TORSDOF 3
ENDMDL
MODEL 9
REMARK minimizedAffinity -6.31355095
REMARK  3 active torsions:
REMARK  status: ('A' for Active; 'I' for Inactive)
REMARK    1  A    between atoms: C3_4  and  C4_5 
REMARK    2  A    between atoms: C7_10  and  N3_11 
REMARK       I    between atoms: N3_11  and  C8_12 
REMARK       I    between atoms: C8_12  and  N4_14 
REMARK    3  A    between atoms: N4_14  and  C9_15 
ROOT
HETATM    1  C4  UNL     1       3.203  65.203  -4.152  1.00  0.00    -0.005 A 
HETATM    2  C5  UNL     1       4.517  64.833  -3.902  1.00  0.00     0.101 A 
HETATM    3  N2  UNL     1       5.520  64.919  -4.809  1.00  0.00    -0.361 N 
ATOM      4  H2  UNL     1       6.471  64.632  -4.576  1.00  0.00     0.165 HD
HETATM    5  C6  UNL     1       5.210  65.404  -6.040  1.00  0.00     0.086 A 
HETATM    6  C7  UNL     1       6.197  65.527  -7.026  1.00  0.00     0.066 A 
HETATM    7  C13 UNL     1       5.876  66.015  -8.290  1.00  0.00     0.049 A 
HETATM    8  C14 UNL     1       4.567  66.379  -8.532  1.00  0.00     0.090 A 
HETATM    9  N5  UNL     1       3.583  66.284  -7.615  1.00  0.00    -0.364 N 
ATOM     10  H5  UNL     1       2.626  66.565  -7.835  1.00  0.00     0.165 HD
HETATM   11  C15 UNL     1       3.908  65.806  -6.400  1.00  0.00     0.062 A 
HETATM   12  C16 UNL     1       2.921  65.692  -5.430  1.00  0.00     0.045 A 
ENDROOT
BRANCH   6  13
HETATM   13  N3  UNL     1       7.502  65.117  -6.660  1.00  0.00    -0.307 N 
HETATM   14  C8  UNL     1       8.102  63.896  -6.860  1.00  0.00     0.321 C 
HETATM   15  O1  UNL     1       7.610  62.946  -7.453  1.00  0.00    -0.247 OA
HETATM   16  N4  UNL     1       9.364  63.881  -6.300  1.00  0.00    -0.335 N 
HETATM   17  H7  UNL     1       9.456  64.497  -5.505  1.00  0.00     0.165 HD
HETATM   18  H6  UNL     1       8.091  65.880  -6.341  1.00  0.00     0.170 HD
BRANCH  16  19
HETATM   19  C9  UNL     1      10.253  62.708  -6.297  1.00  0.00     0.023 C 
HETATM   20  C10 UNL     1      10.757  62.499  -7.738  1.00  0.00     0.037 C 
HETATM   21  C11 UNL     1      11.465  62.943  -5.383  1.00  0.00     0.037 C 
HETATM   22  C12 UNL     1       9.504  61.436  -5.867  1.00  0.00     0.037 C 
ENDBRANCH  16  19
ENDBRANCH   6  13
BRANCH   1  23
HETATM   23  C3  UNL     1       2.180  65.076  -3.130  1.00  0.00     0.009 A 
HETATM   24  C2  UNL     1       1.051  64.286  -3.222  1.00  0.00     0.123 A 
HETATM   25  N1  UNL     1       0.356  64.467  -2.061  1.00  0.00    -0.307 N 
HETATM   26  C1  UNL     1      -0.895  63.852  -1.691  1.00  0.00     0.177 C 
HETATM   27  N6  UNL     1       0.948  65.326  -1.212  1.00  0.00    -0.310 N 
HETATM   28  C17 UNL     1       2.055  65.693  -1.862  1.00  0.00     0.121 A 
ATOM     29  H6  UNL     1       0.628  65.625  -0.292  1.00  0.00     0.186 HD
ENDBRANCH   1  23
TORSDOF 3
ENDMDL
