MODEL 1
REMARK minimizedAffinity -10.000329
REMARK  3 active torsions:
REMARK  status: ('A' for Active; 'I' for Inactive)
REMARK    1  A    between atoms: C4_4  and  C5_5 
REMARK    2  A    between atoms: C8_11  and  N3_12 
REMARK       I    between atoms: N3_12  and  C9_13 
REMARK       I    between atoms: C9_13  and  N4_15 
REMARK    3  A    between atoms: N4_15  and  C10_16 
ROOT
HETATM    1  C5  UNL     1      -5.905  47.822 -27.509  1.00  0.00     0.072 A 
HETATM    2  N1  UNL     1      -7.005  47.733 -26.741  1.00  0.00    -0.299 N 
ATOM      3  H1  UNL     1      -7.937  47.429 -27.018  1.00  0.00     0.187 HD
HETATM    4  N2  UNL     1      -6.600  48.135 -25.526  1.00  0.00    -0.299 N 
HETATM    5  C6  UNL     1      -5.274  48.450 -25.457  1.00  0.00     0.065 A 
HETATM    6  C7  UNL     1      -4.475  48.883 -24.398  1.00  0.00     0.080 A 
HETATM    7  C8  UNL     1      -3.140  49.099 -24.715  1.00  0.00     0.111 A 
HETATM    8  N6  UNL     1      -2.620  48.896 -25.947  1.00  0.00    -0.351 N 
ATOM      9  H6  UNL     1      -1.628  49.062 -26.115  1.00  0.00     0.166 HD
HETATM   10  C19 UNL     1      -3.420  48.470 -26.960  1.00  0.00     0.105 A 
HETATM   11  C20 UNL     1      -4.780  48.249 -26.738  1.00  0.00     0.036 A 
HETATM   12  H5  UNL     1      -7.283  48.167 -24.778  1.00  0.00     0.187 HD
ENDROOT
BRANCH   7  13
HETATM   13  N3  UNL     1      -2.188  49.527 -23.788  1.00  0.00    -0.295 N 
HETATM   14  C9  UNL     1      -1.947  50.799 -23.343  1.00  0.00     0.322 C 
HETATM   15  O1  UNL     1      -2.513  51.817 -23.720  1.00  0.00    -0.247 OA
HETATM   16  N4  UNL     1      -0.954  50.811 -22.388  1.00  0.00    -0.334 N 
HETATM   17  H8  UNL     1      -0.803  49.950 -21.883  1.00  0.00     0.165 HD
HETATM   18  H7  UNL     1      -1.545  48.795 -23.533  1.00  0.00     0.172 HD
BRANCH  16  19
HETATM   19  C10 UNL     1      -0.568  52.037 -21.700  1.00  0.00     0.121 C 
HETATM   20  C11 UNL     1       0.657  52.633 -22.418  1.00  0.00     0.030 C 
HETATM   21  C12 UNL     1       1.307  53.825 -21.702  1.00  0.00     0.008 C 
HETATM   22  C13 UNL     1       0.731  54.127 -20.320  1.00  0.00     0.057 C 
HETATM   23  C14 UNL     1       0.422  52.862 -19.565  1.00  0.00     0.017 A 
HETATM   24  N5  UNL     1       0.762  52.813 -18.257  1.00  0.00    -0.369 N 
HETATM   25  C18 UNL     1      -0.246  51.828 -20.235  1.00  0.00    -0.013 A 
HETATM   26  C15 UNL     1       0.415  51.701 -17.576  1.00  0.00     0.088 A 
ATOM     27  H5  UNL     1       1.258  53.582 -17.805  1.00  0.00     0.165 HD
HETATM   28  C16 UNL     1      -0.266  50.636 -18.139  1.00  0.00     0.018 A 
HETATM   29  C17 UNL     1      -0.606  50.705 -19.488  1.00  0.00     0.012 A 
ENDBRANCH  16  19
ENDBRANCH   7  13
BRANCH   1  30
HETATM   30  C4  UNL     1      -5.961  47.485 -28.930  1.00  0.00    -0.004 A 
HETATM   31  C3  UNL     1      -6.637  46.348 -29.378  1.00  0.00     0.038 A 
HETATM   32  C2  UNL     1      -6.666  46.075 -30.742  1.00  0.00     0.005 A 
HETATM   33  C1  UNL     1      -7.380  44.858 -31.251  1.00  0.00     0.068 C 
HETATM   34  N7  UNL     1      -6.062  46.867 -31.657  1.00  0.00    -0.369 N 
HETATM   35  C22 UNL     1      -5.397  47.949 -31.201  1.00  0.00     0.089 A 
ATOM     36  H7  UNL     1      -6.108  46.654 -32.653  1.00  0.00     0.165 HD
HETATM   37  C21 UNL     1      -5.317  48.295 -29.864  1.00  0.00     0.031 A 
ENDBRANCH   1  30
TORSDOF 3
ENDMDL
MODEL 2
REMARK minimizedAffinity -9.88477039
REMARK  3 active torsions:
REMARK  status: ('A' for Active; 'I' for Inactive)
REMARK    1  A    between atoms: C4_4  and  C5_5 
REMARK    2  A    between atoms: C8_11  and  N3_12 
REMARK       I    between atoms: N3_12  and  C9_13 
REMARK       I    between atoms: C9_13  and  N4_15 
REMARK    3  A    between atoms: N4_15  and  C10_16 
ROOT
HETATM    1  C5  UNL     1       0.185  52.773 -23.959  1.00  0.00     0.072 A 
HETATM    2  N1  UNL     1       1.024  53.384 -24.815  1.00  0.00    -0.299 N 
ATOM      3  H1  UNL     1       1.880  53.892 -24.594  1.00  0.00     0.187 HD
HETATM    4  N2  UNL     1       0.481  53.175 -26.024  1.00  0.00    -0.299 N 
HETATM    5  C6  UNL     1      -0.659  52.423 -26.001  1.00  0.00     0.065 A 
HETATM    6  C7  UNL     1      -1.498  51.977 -27.021  1.00  0.00     0.080 A 
HETATM    7  C8  UNL     1      -2.580  51.212 -26.604  1.00  0.00     0.111 A 
HETATM    8  N6  UNL     1      -2.819  50.894 -25.311  1.00  0.00    -0.351 N 
ATOM      9  H6  UNL     1      -3.626  50.320 -25.068  1.00  0.00     0.166 HD
HETATM   10  C19 UNL     1      -1.983  51.340 -24.337  1.00  0.00     0.105 A 
HETATM   11  C20 UNL     1      -0.881  52.133 -24.662  1.00  0.00     0.036 A 
HETATM   12  H5  UNL     1       0.944  53.570 -26.834  1.00  0.00     0.187 HD
ENDROOT
BRANCH   7  13
HETATM   13  N3  UNL     1      -3.526  50.673 -27.478  1.00  0.00    -0.295 N 
HETATM   14  C9  UNL     1      -3.705  49.363 -27.833  1.00  0.00     0.322 C 
HETATM   15  O1  UNL     1      -3.022  48.415 -27.469  1.00  0.00    -0.247 OA
HETATM   16  N4  UNL     1      -4.779  49.222 -28.685  1.00  0.00    -0.334 N 
HETATM   17  H8  UNL     1      -5.482  49.945 -28.648  1.00  0.00     0.165 HD
HETATM   18  H7  UNL     1      -4.039  51.384 -27.974  1.00  0.00     0.172 HD
BRANCH  16  19
HETATM   19  C10 UNL     1      -5.224  47.912 -29.145  1.00  0.00     0.121 C 
HETATM   20  C11 UNL     1      -5.785  48.061 -30.571  1.00  0.00     0.030 C 
HETATM   21  C12 UNL     1      -6.474  46.808 -31.127  1.00  0.00     0.008 C 
HETATM   22  C13 UNL     1      -6.630  45.670 -30.121  1.00  0.00     0.057 C 
HETATM   23  C14 UNL     1      -6.984  46.189 -28.754  1.00  0.00     0.017 A 
HETATM   24  N5  UNL     1      -7.940  45.530 -28.060  1.00  0.00    -0.369 N 
HETATM   25  C18 UNL     1      -6.274  47.287 -28.250  1.00  0.00    -0.013 A 
HETATM   26  C15 UNL     1      -8.196  45.964 -26.808  1.00  0.00     0.088 A 
ATOM     27  H5  UNL     1      -8.443  44.740 -28.464  1.00  0.00     0.165 HD
HETATM   28  C16 UNL     1      -7.535  47.023 -26.211  1.00  0.00     0.018 A 
HETATM   29  C17 UNL     1      -6.555  47.689 -26.942  1.00  0.00     0.012 A 
ENDBRANCH  16  19
ENDBRANCH   7  13
BRANCH   1  30
HETATM   30  C4  UNL     1       0.436  52.808 -22.520  1.00  0.00    -0.004 A 
HETATM   31  C3  UNL     1      -0.075  51.822 -21.672  1.00  0.00     0.038 A 
HETATM   32  C2  UNL     1       0.197  51.897 -20.309  1.00  0.00     0.005 A 
HETATM   33  C1  UNL     1      -0.342  50.856 -19.375  1.00  0.00     0.068 C 
HETATM   34  N7  UNL     1       0.937  52.892 -19.768  1.00  0.00    -0.369 N 
HETATM   35  C22 UNL     1       1.404  53.846 -20.601  1.00  0.00     0.089 A 
ATOM     36  H7  UNL     1       1.135  52.919 -18.768  1.00  0.00     0.165 HD
HETATM   37  C21 UNL     1       1.181  53.849 -21.966  1.00  0.00     0.031 A 
ENDBRANCH   1  30
TORSDOF 3
ENDMDL
MODEL 3
REMARK minimizedAffinity -9.72626114
REMARK  3 active torsions:
REMARK  status: ('A' for Active; 'I' for Inactive)
REMARK    1  A    between atoms: C4_4  and  C5_5 
REMARK    2  A    between atoms: C8_11  and  N3_12 
REMARK       I    between atoms: N3_12  and  C9_13 
REMARK       I    between atoms: C9_13  and  N4_15 
REMARK    3  A    between atoms: N4_15  and  C10_16 
ROOT
HETATM    1  C5  UNL     1      -0.393  51.746 -24.514  1.00  0.00     0.072 A 
HETATM    2  N1  UNL     1       0.609  52.220 -25.275  1.00  0.00    -0.299 N 
ATOM      3  H1  UNL     1       1.489  52.629 -24.965  1.00  0.00     0.187 HD
HETATM    4  N2  UNL     1       0.189  52.034 -26.536  1.00  0.00    -0.299 N 
HETATM    5  C6  UNL     1      -1.029  51.426 -26.634  1.00  0.00     0.065 A 
HETATM    6  C7  UNL     1      -1.792  51.047 -27.739  1.00  0.00     0.080 A 
HETATM    7  C8  UNL     1      -3.002  50.433 -27.438  1.00  0.00     0.111 A 
HETATM    8  N6  UNL     1      -3.427  50.193 -26.177  1.00  0.00    -0.351 N 
ATOM      9  H6  UNL     1      -4.322  49.730 -26.020  1.00  0.00     0.166 HD
HETATM   10  C19 UNL     1      -2.662  50.570 -25.119  1.00  0.00     0.105 A 
HETATM   11  C20 UNL     1      -1.441  51.213 -25.326  1.00  0.00     0.036 A 
HETATM   12  H5  UNL     1       0.790  52.341 -27.293  1.00  0.00     0.187 HD
ENDROOT
BRANCH   7  13
HETATM   13  N3  UNL     1      -3.898  49.980 -28.408  1.00  0.00    -0.295 N 
HETATM   14  C9  UNL     1      -4.610  48.811 -28.427  1.00  0.00     0.322 C 
HETATM   15  O1  UNL     1      -4.552  47.915 -27.595  1.00  0.00    -0.247 OA
HETATM   16  N4  UNL     1      -5.429  48.746 -29.534  1.00  0.00    -0.334 N 
HETATM   17  H8  UNL     1      -5.691  49.626 -29.952  1.00  0.00     0.165 HD
HETATM   18  H7  UNL     1      -3.899  50.561 -29.231  1.00  0.00     0.172 HD
BRANCH  16  19
HETATM   19  C10 UNL     1      -6.347  47.633 -29.741  1.00  0.00     0.121 C 
HETATM   20  C11 UNL     1      -6.653  46.993 -28.375  1.00  0.00     0.030 C 
HETATM   21  C12 UNL     1      -7.454  45.685 -28.440  1.00  0.00     0.008 C 
HETATM   22  C13 UNL     1      -7.682  45.150 -29.852  1.00  0.00     0.057 C 
HETATM   23  C14 UNL     1      -6.464  45.341 -30.716  1.00  0.00     0.017 A 
HETATM   24  N5  UNL     1      -6.098  44.315 -31.519  1.00  0.00    -0.369 N 
HETATM   25  C18 UNL     1      -5.810  46.579 -30.686  1.00  0.00    -0.013 A 
HETATM   26  C15 UNL     1      -5.047  44.527 -32.339  1.00  0.00     0.088 A 
ATOM     27  H5  UNL     1      -6.593  43.424 -31.505  1.00  0.00     0.165 HD
HETATM   28  C16 UNL     1      -4.349  45.720 -32.402  1.00  0.00     0.018 A 
HETATM   29  C17 UNL     1      -4.741  46.763 -31.568  1.00  0.00     0.012 A 
ENDBRANCH  16  19
ENDBRANCH   7  13
BRANCH   1  30
HETATM   30  C4  UNL     1      -0.310  51.803 -23.056  1.00  0.00    -0.004 A 
HETATM   31  C3  UNL     1       0.452  52.782 -22.412  1.00  0.00     0.038 A 
HETATM   32  C2  UNL     1       0.493  52.797 -21.022  1.00  0.00     0.005 A 
HETATM   33  C1  UNL     1       1.307  53.832 -20.304  1.00  0.00     0.068 C 
HETATM   34  N7  UNL     1      -0.174  51.898 -20.263  1.00  0.00    -0.369 N 
HETATM   35  C22 UNL     1      -0.888  50.949 -20.904  1.00  0.00     0.089 A 
ATOM     36  H7  UNL     1      -0.140  51.937 -19.245  1.00  0.00     0.165 HD
HETATM   37  C21 UNL     1      -0.984  50.859 -22.281  1.00  0.00     0.031 A 
ENDBRANCH   1  30
TORSDOF 3
ENDMDL
MODEL 4
REMARK minimizedAffinity -9.61235332
REMARK  3 active torsions:
REMARK  status: ('A' for Active; 'I' for Inactive)
REMARK    1  A    between atoms: C4_4  and  C5_5 
REMARK    2  A    between atoms: C8_11  and  N3_12 
REMARK       I    between atoms: N3_12  and  C9_13 
REMARK       I    between atoms: C9_13  and  N4_15 
REMARK    3  A    between atoms: N4_15  and  C10_16 
ROOT
HETATM    1  C5  UNL     1       0.686  53.166 -23.638  1.00  0.00     0.072 A 
HETATM    2  N1  UNL     1       1.240  54.370 -23.865  1.00  0.00    -0.299 N 
ATOM      3  H1  UNL     1       1.367  54.840 -24.761  1.00  0.00     0.187 HD
HETATM    4  N2  UNL     1       1.590  54.814 -22.647  1.00  0.00    -0.299 N 
HETATM    5  C6  UNL     1       1.256  53.969 -21.629  1.00  0.00     0.065 A 
HETATM    6  C7  UNL     1       1.424  54.066 -20.248  1.00  0.00     0.080 A 
HETATM    7  C8  UNL     1       0.940  52.989 -19.516  1.00  0.00     0.111 A 
HETATM    8  N6  UNL     1       0.330  51.918 -20.074  1.00  0.00    -0.351 N 
ATOM      9  H6  UNL     1      -0.013  51.162 -19.482  1.00  0.00     0.166 HD
HETATM   10  C19 UNL     1       0.176  51.851 -21.422  1.00  0.00     0.105 A 
HETATM   11  C20 UNL     1       0.652  52.878 -22.239  1.00  0.00     0.036 A 
HETATM   12  H5  UNL     1       2.052  55.714 -22.578  1.00  0.00     0.187 HD
ENDROOT
BRANCH   7  13
HETATM   13  N3  UNL     1       1.013  52.908 -18.124  1.00  0.00    -0.295 N 
HETATM   14  C9  UNL     1       0.617  51.880 -17.311  1.00  0.00     0.322 C 
HETATM   15  O1  UNL     1       0.077  50.841 -17.669  1.00  0.00    -0.247 OA
HETATM   16  N4  UNL     1       0.898  52.155 -15.991  1.00  0.00    -0.334 N 
HETATM   17  H8  UNL     1       1.637  52.820 -15.816  1.00  0.00     0.165 HD
HETATM   18  H7  UNL     1       1.286  53.781 -17.703  1.00  0.00     0.172 HD
BRANCH  16  19
HETATM   19  C10 UNL     1       0.644  51.182 -14.936  1.00  0.00     0.121 C 
HETATM   20  C11 UNL     1      -0.333  51.806 -13.923  1.00  0.00     0.030 C 
HETATM   21  C12 UNL     1      -0.553  50.982 -12.647  1.00  0.00     0.008 C 
HETATM   22  C13 UNL     1       0.349  49.756 -12.519  1.00  0.00     0.057 C 
HETATM   23  C14 UNL     1       1.743  50.047 -13.006  1.00  0.00     0.017 A 
HETATM   24  N5  UNL     1       2.776  49.580 -12.267  1.00  0.00    -0.369 N 
HETATM   25  C18 UNL     1       1.900  50.732 -14.218  1.00  0.00    -0.013 A 
HETATM   26  C15 UNL     1       4.018  49.787 -12.754  1.00  0.00     0.088 A 
ATOM     27  H5  UNL     1       2.623  49.095 -11.384  1.00  0.00     0.165 HD
HETATM   28  C16 UNL     1       4.277  50.431 -13.951  1.00  0.00     0.018 A 
HETATM   29  C17 UNL     1       3.201  50.904 -14.696  1.00  0.00     0.012 A 
ENDBRANCH  16  19
ENDBRANCH   7  13
BRANCH   1  30
HETATM   30  C4  UNL     1       0.199  52.350 -24.748  1.00  0.00    -0.004 A 
HETATM   31  C3  UNL     1       0.791  52.420 -26.011  1.00  0.00     0.038 A 
HETATM   32  C2  UNL     1       0.294  51.618 -27.034  1.00  0.00     0.005 A 
HETATM   33  C1  UNL     1       0.907  51.675 -28.401  1.00  0.00     0.068 C 
HETATM   34  N7  UNL     1      -0.745  50.770 -26.856  1.00  0.00    -0.369 N 
HETATM   35  C22 UNL     1      -1.316  50.733 -25.633  1.00  0.00     0.089 A 
ATOM     36  H7  UNL     1      -1.083  50.182 -27.617  1.00  0.00     0.165 HD
HETATM   37  C21 UNL     1      -0.887  51.496 -24.562  1.00  0.00     0.031 A 
ENDBRANCH   1  30
TORSDOF 3
ENDMDL
MODEL 5
REMARK minimizedAffinity -9.57380676
REMARK  3 active torsions:
REMARK  status: ('A' for Active; 'I' for Inactive)
REMARK    1  A    between atoms: C4_4  and  C5_5 
REMARK    2  A    between atoms: C8_11  and  N3_12 
REMARK       I    between atoms: N3_12  and  C9_13 
REMARK       I    between atoms: C9_13  and  N4_15 
REMARK    3  A    between atoms: N4_15  and  C10_16 
ROOT
HETATM    1  C5  UNL     1      -1.916  50.313 -24.954  1.00  0.00     0.072 A 
HETATM    2  N1  UNL     1      -2.210  49.752 -23.768  1.00  0.00    -0.299 N 
ATOM      3  H1  UNL     1      -1.752  49.911 -22.872  1.00  0.00     0.187 HD
HETATM    4  N2  UNL     1      -3.243  48.935 -24.030  1.00  0.00    -0.299 N 
HETATM    5  C6  UNL     1      -3.660  48.963 -25.329  1.00  0.00     0.065 A 
HETATM    6  C7  UNL     1      -4.689  48.292 -25.989  1.00  0.00     0.080 A 
HETATM    7  C8  UNL     1      -4.818  48.589 -27.340  1.00  0.00     0.111 A 
HETATM    8  N6  UNL     1      -4.028  49.473 -27.991  1.00  0.00    -0.351 N 
ATOM      9  H6  UNL     1      -4.178  49.657 -28.983  1.00  0.00     0.166 HD
HETATM   10  C19 UNL     1      -3.035  50.117 -27.322  1.00  0.00     0.105 A 
HETATM   11  C20 UNL     1      -2.818  49.863 -25.967  1.00  0.00     0.036 A 
HETATM   12  H5  UNL     1      -3.624  48.384 -23.269  1.00  0.00     0.187 HD
ENDROOT
BRANCH   7  13
HETATM   13  N3  UNL     1      -5.791  48.022 -28.165  1.00  0.00    -0.295 N 
HETATM   14  C9  UNL     1      -5.836  47.997 -29.533  1.00  0.00     0.322 C 
HETATM   15  O1  UNL     1      -5.031  48.518 -30.293  1.00  0.00    -0.247 OA
HETATM   16  N4  UNL     1      -6.936  47.297 -29.980  1.00  0.00    -0.334 N 
HETATM   17  H8  UNL     1      -7.326  46.616 -29.345  1.00  0.00     0.165 HD
HETATM   18  H7  UNL     1      -6.596  47.708 -27.647  1.00  0.00     0.172 HD
BRANCH  16  19
HETATM   19  C10 UNL     1      -7.166  47.060 -31.400  1.00  0.00     0.121 C 
HETATM   20  C11 UNL     1      -8.564  47.594 -31.762  1.00  0.00     0.030 C 
HETATM   21  C12 UNL     1      -9.039  47.247 -33.180  1.00  0.00     0.008 C 
HETATM   22  C13 UNL     1      -8.117  46.300 -33.945  1.00  0.00     0.057 C 
HETATM   23  C14 UNL     1      -7.561  45.229 -33.046  1.00  0.00     0.017 A 
HETATM   24  N5  UNL     1      -7.526  43.964 -33.525  1.00  0.00    -0.369 N 
HETATM   25  C18 UNL     1      -7.063  45.600 -31.790  1.00  0.00    -0.013 A 
HETATM   26  C15 UNL     1      -6.960  43.027 -32.735  1.00  0.00     0.088 A 
ATOM     27  H5  UNL     1      -7.908  43.729 -34.440  1.00  0.00     0.165 HD
HETATM   28  C16 UNL     1      -6.418  43.296 -31.490  1.00  0.00     0.018 A 
HETATM   29  C17 UNL     1      -6.466  44.604 -31.015  1.00  0.00     0.012 A 
ENDBRANCH  16  19
ENDBRANCH   7  13
BRANCH   1  30
HETATM   30  C4  UNL     1      -0.808  51.258 -25.076  1.00  0.00    -0.004 A 
HETATM   31  C3  UNL     1       0.256  51.018 -25.949  1.00  0.00     0.038 A 
HETATM   32  C2  UNL     1       1.283  51.952 -26.033  1.00  0.00     0.005 A 
HETATM   33  C1  UNL     1       2.440  51.718 -26.957  1.00  0.00     0.068 C 
HETATM   34  N7  UNL     1       1.297  53.087 -25.298  1.00  0.00    -0.369 N 
HETATM   35  C22 UNL     1       0.271  53.291 -24.445  1.00  0.00     0.089 A 
ATOM     36  H7  UNL     1       2.055  53.764 -25.386  1.00  0.00     0.165 HD
HETATM   37  C21 UNL     1      -0.790  52.416 -24.299  1.00  0.00     0.031 A 
ENDBRANCH   1  30
TORSDOF 3
ENDMDL
MODEL 6
REMARK minimizedAffinity -9.47047424
REMARK  3 active torsions:
REMARK  status: ('A' for Active; 'I' for Inactive)
REMARK    1  A    between atoms: C4_4  and  C5_5 
REMARK    2  A    between atoms: C8_11  and  N3_12 
REMARK       I    between atoms: N3_12  and  C9_13 
REMARK       I    between atoms: C9_13  and  N4_15 
REMARK    3  A    between atoms: N4_15  and  C10_16 
ROOT
HETATM    1  C5  UNL     1       0.703  53.598 -23.605  1.00  0.00     0.072 A 
HETATM    2  N1  UNL     1       1.502  54.676 -23.523  1.00  0.00    -0.299 N 
ATOM      3  H1  UNL     1       1.815  55.280 -24.281  1.00  0.00     0.187 HD
HETATM    4  N2  UNL     1       1.794  54.778 -22.217  1.00  0.00    -0.299 N 
HETATM    5  C6  UNL     1       1.192  53.834 -21.436  1.00  0.00     0.065 A 
HETATM    6  C7  UNL     1       1.223  53.610 -20.059  1.00  0.00     0.080 A 
HETATM    7  C8  UNL     1       0.462  52.535 -19.619  1.00  0.00     0.111 A 
HETATM    8  N6  UNL     1      -0.279  51.755 -20.439  1.00  0.00    -0.351 N 
ATOM      9  H6  UNL     1      -0.826  50.985 -20.054  1.00  0.00     0.166 HD
HETATM   10  C19 UNL     1      -0.293  51.998 -21.776  1.00  0.00     0.105 A 
HETATM   11  C20 UNL     1       0.460  53.045 -22.311  1.00  0.00     0.036 A 
HETATM   12  H5  UNL     1       2.411  55.525 -21.920  1.00  0.00     0.187 HD
ENDROOT
BRANCH   7  13
HETATM   13  N3  UNL     1       0.363  52.158 -18.278  1.00  0.00    -0.295 N 
HETATM   14  C9  UNL     1       1.275  52.342 -17.274  1.00  0.00     0.322 C 
HETATM   15  O1  UNL     1       2.384  52.845 -17.387  1.00  0.00    -0.247 OA
HETATM   16  N4  UNL     1       0.790  51.874 -16.071  1.00  0.00    -0.334 N 
HETATM   17  H8  UNL     1      -0.214  51.819 -15.981  1.00  0.00     0.165 HD
HETATM   18  H7  UNL     1      -0.443  51.580 -18.102  1.00  0.00     0.172 HD
BRANCH  16  19
HETATM   19  C10 UNL     1       1.542  52.026 -14.832  1.00  0.00     0.121 C 
HETATM   20  C11 UNL     1       2.572  50.885 -14.745  1.00  0.00     0.030 C 
HETATM   21  C12 UNL     1       3.315  50.788 -13.405  1.00  0.00     0.008 C 
HETATM   22  C13 UNL     1       2.803  51.738 -12.325  1.00  0.00     0.057 C 
HETATM   23  C14 UNL     1       1.302  51.848 -12.356  1.00  0.00     0.017 A 
HETATM   24  N5  UNL     1       0.647  51.831 -11.173  1.00  0.00    -0.369 N 
HETATM   25  C18 UNL     1       0.669  52.017 -13.595  1.00  0.00    -0.013 A 
HETATM   26  C15 UNL     1      -0.691  52.002 -11.213  1.00  0.00     0.088 A 
ATOM     27  H5  UNL     1       1.141  51.695 -10.291  1.00  0.00     0.165 HD
HETATM   28  C16 UNL     1      -1.407  52.199 -12.381  1.00  0.00     0.018 A 
HETATM   29  C17 UNL     1      -0.714  52.213 -13.588  1.00  0.00     0.012 A 
ENDBRANCH  16  19
ENDBRANCH   7  13
BRANCH   1  30
HETATM   30  C4  UNL     1       0.193  53.147 -24.899  1.00  0.00    -0.004 A 
HETATM   31  C3  UNL     1      -0.369  51.877 -25.053  1.00  0.00     0.038 A 
HETATM   32  C2  UNL     1      -0.846  51.499 -26.304  1.00  0.00     0.005 A 
HETATM   33  C1  UNL     1      -1.449  50.140 -26.500  1.00  0.00     0.068 C 
HETATM   34  N7  UNL     1      -0.786  52.311 -27.383  1.00  0.00    -0.369 N 
HETATM   35  C22 UNL     1      -0.221  53.526 -27.218  1.00  0.00     0.089 A 
ATOM     36  H7  UNL     1      -1.154  52.017 -28.287  1.00  0.00     0.165 HD
HETATM   37  C21 UNL     1       0.278  53.983 -26.012  1.00  0.00     0.031 A 
ENDBRANCH   1  30
TORSDOF 3
ENDMDL
MODEL 7
REMARK minimizedAffinity -9.3090353
REMARK  3 active torsions:
REMARK  status: ('A' for Active; 'I' for Inactive)
REMARK    1  A    between atoms: C4_4  and  C5_5 
REMARK    2  A    between atoms: C8_11  and  N3_12 
REMARK       I    between atoms: N3_12  and  C9_13 
REMARK       I    between atoms: C9_13  and  N4_15 
REMARK    3  A    between atoms: N4_15  and  C10_16 
ROOT
HETATM    1  C5  UNL     1       0.751  53.386 -23.612  1.00  0.00     0.072 A 
HETATM    2  N1  UNL     1       1.425  54.545 -23.713  1.00  0.00    -0.299 N 
ATOM      3  H1  UNL     1       1.650  55.065 -24.561  1.00  0.00     0.187 HD
HETATM    4  N2  UNL     1       1.735  54.864 -22.447  1.00  0.00    -0.299 N 
HETATM    5  C6  UNL     1       1.263  53.983 -21.518  1.00  0.00     0.065 A 
HETATM    6  C7  UNL     1       1.352  53.963 -20.126  1.00  0.00     0.080 A 
HETATM    7  C8  UNL     1       0.728  52.886 -19.509  1.00  0.00     0.111 A 
HETATM    8  N6  UNL     1       0.061  51.921 -20.182  1.00  0.00    -0.351 N 
ATOM      9  H6  UNL     1      -0.386  51.159 -19.672  1.00  0.00     0.166 HD
HETATM   10  C19 UNL     1      -0.013  51.967 -21.539  1.00  0.00     0.105 A 
HETATM   11  C20 UNL     1       0.603  53.001 -22.244  1.00  0.00     0.036 A 
HETATM   12  H5  UNL     1       2.271  55.709 -22.282  1.00  0.00     0.187 HD
ENDROOT
BRANCH   7  13
HETATM   13  N3  UNL     1       0.705  52.697 -18.127  1.00  0.00    -0.295 N 
HETATM   14  C9  UNL     1       0.499  51.537 -17.431  1.00  0.00     0.322 C 
HETATM   15  O1  UNL     1       0.249  50.439 -17.912  1.00  0.00    -0.247 OA
HETATM   16  N4  UNL     1       0.600  51.748 -16.072  1.00  0.00    -0.334 N 
HETATM   17  H8  UNL     1       1.145  52.545 -15.779  1.00  0.00     0.165 HD
HETATM   18  H7  UNL     1       0.730  53.568 -17.621  1.00  0.00     0.172 HD
BRANCH  16  19
HETATM   19  C10 UNL     1       0.498  50.651 -15.118  1.00  0.00     0.121 C 
HETATM   20  C11 UNL     1       0.787  49.332 -15.859  1.00  0.00     0.030 C 
HETATM   21  C12 UNL     1       0.530  48.061 -15.039  1.00  0.00     0.008 C 
HETATM   22  C13 UNL     1      -0.118  48.304 -13.678  1.00  0.00     0.057 C 
HETATM   23  C14 UNL     1      -1.162  49.387 -13.751  1.00  0.00     0.017 A 
HETATM   24  N5  UNL     1      -2.327  49.181 -13.096  1.00  0.00    -0.369 N 
HETATM   25  C18 UNL     1      -0.855  50.566 -14.443  1.00  0.00    -0.013 A 
HETATM   26  C15 UNL     1      -3.224  50.189 -13.112  1.00  0.00     0.088 A 
ATOM     27  H5  UNL     1      -2.519  48.304 -12.611  1.00  0.00     0.165 HD
HETATM   28  C16 UNL     1      -3.008  51.400 -13.745  1.00  0.00     0.018 A 
HETATM   29  C17 UNL     1      -1.803  51.592 -14.415  1.00  0.00     0.012 A 
ENDBRANCH  16  19
ENDBRANCH   7  13
BRANCH   1  30
HETATM   30  C4  UNL     1       0.264  52.702 -24.808  1.00  0.00    -0.004 A 
HETATM   31  C3  UNL     1      -1.101  52.645 -25.104  1.00  0.00     0.038 A 
HETATM   32  C2  UNL     1      -1.513  51.987 -26.258  1.00  0.00     0.005 A 
HETATM   33  C1  UNL     1      -2.972  51.905 -26.598  1.00  0.00     0.068 C 
HETATM   34  N7  UNL     1      -0.645  51.396 -27.110  1.00  0.00    -0.369 N 
HETATM   35  C22 UNL     1       0.667  51.445 -26.796  1.00  0.00     0.089 A 
ATOM     36  H7  UNL     1      -0.969  50.930 -27.957  1.00  0.00     0.165 HD
HETATM   37  C21 UNL     1       1.164  52.076 -25.670  1.00  0.00     0.031 A 
ENDBRANCH   1  30
TORSDOF 3
ENDMDL
MODEL 8
REMARK minimizedAffinity -9.29815769
REMARK  3 active torsions:
REMARK  status: ('A' for Active; 'I' for Inactive)
REMARK    1  A    between atoms: C4_4  and  C5_5 
REMARK    2  A    between atoms: C8_11  and  N3_12 
REMARK       I    between atoms: N3_12  and  C9_13 
REMARK       I    between atoms: C9_13  and  N4_15 
REMARK    3  A    between atoms: N4_15  and  C10_16 
ROOT
HETATM    1  C5  UNL     1       0.944  52.560 -18.469  1.00  0.00     0.072 A 
HETATM    2  N1  UNL     1       1.109  53.700 -19.164  1.00  0.00    -0.299 N 
ATOM      3  H1  UNL     1       1.616  54.537 -18.878  1.00  0.00     0.187 HD
HETATM    4  N2  UNL     1       0.457  53.488 -20.317  1.00  0.00    -0.299 N 
HETATM    5  C6  UNL     1      -0.098  52.246 -20.423  1.00  0.00     0.065 A 
HETATM    6  C7  UNL     1      -0.827  51.638 -21.446  1.00  0.00     0.080 A 
HETATM    7  C8  UNL     1      -1.228  50.333 -21.190  1.00  0.00     0.111 A 
HETATM    8  N6  UNL     1      -0.934  49.668 -20.049  1.00  0.00    -0.351 N 
ATOM      9  H6  UNL     1      -1.248  48.706 -19.923  1.00  0.00     0.166 HD
HETATM   10  C19 UNL     1      -0.219  50.283 -19.070  1.00  0.00     0.105 A 
HETATM   11  C20 UNL     1       0.207  51.603 -19.232  1.00  0.00     0.036 A 
HETATM   12  H5  UNL     1       0.433  54.237 -21.000  1.00  0.00     0.187 HD
ENDROOT
BRANCH   7  13
HETATM   13  N3  UNL     1      -1.960  49.560 -22.093  1.00  0.00    -0.295 N 
HETATM   14  C9  UNL     1      -3.300  49.613 -22.367  1.00  0.00     0.322 C 
HETATM   15  O1  UNL     1      -4.121  50.338 -21.822  1.00  0.00    -0.247 OA
HETATM   16  N4  UNL     1      -3.640  48.719 -23.360  1.00  0.00    -0.334 N 
HETATM   17  H8  UNL     1      -2.900  48.440 -23.987  1.00  0.00     0.165 HD
HETATM   18  H7  UNL     1      -1.415  48.806 -22.481  1.00  0.00     0.172 HD
BRANCH  16  19
HETATM   19  C10 UNL     1      -4.997  48.640 -23.886  1.00  0.00     0.121 C 
HETATM   20  C11 UNL     1      -5.740  47.512 -23.147  1.00  0.00     0.030 C 
HETATM   21  C12 UNL     1      -7.123  47.169 -23.719  1.00  0.00     0.008 C 
HETATM   22  C13 UNL     1      -7.470  47.893 -25.018  1.00  0.00     0.057 C 
HETATM   23  C14 UNL     1      -6.275  47.994 -25.927  1.00  0.00     0.017 A 
HETATM   24  N5  UNL     1      -6.466  47.747 -27.244  1.00  0.00    -0.369 N 
HETATM   25  C18 UNL     1      -5.048  48.389 -25.378  1.00  0.00    -0.013 A 
HETATM   26  C15 UNL     1      -5.401  47.911 -28.057  1.00  0.00     0.088 A 
ATOM     27  H5  UNL     1      -7.372  47.451 -27.605  1.00  0.00     0.165 HD
HETATM   28  C16 UNL     1      -4.154  48.320 -27.617  1.00  0.00     0.018 A 
HETATM   29  C17 UNL     1      -3.978  48.569 -26.259  1.00  0.00     0.012 A 
ENDBRANCH  16  19
ENDBRANCH   7  13
BRANCH   1  30
HETATM   30  C4  UNL     1       1.502  52.420 -17.126  1.00  0.00    -0.004 A 
HETATM   31  C3  UNL     1       0.692  52.082 -16.038  1.00  0.00     0.038 A 
HETATM   32  C2  UNL     1       1.272  51.955 -14.780  1.00  0.00     0.005 A 
HETATM   33  C1  UNL     1       0.428  51.598 -13.594  1.00  0.00     0.068 C 
HETATM   34  N7  UNL     1       2.593  52.149 -14.564  1.00  0.00    -0.369 N 
HETATM   35  C22 UNL     1       3.354  52.496 -15.624  1.00  0.00     0.089 A 
ATOM     36  H7  UNL     1       2.999  52.038 -13.635  1.00  0.00     0.165 HD
HETATM   37  C21 UNL     1       2.861  52.644 -16.907  1.00  0.00     0.031 A 
ENDBRANCH   1  30
TORSDOF 3
ENDMDL
MODEL 9
REMARK minimizedAffinity -9.12923431
REMARK  3 active torsions:
REMARK  status: ('A' for Active; 'I' for Inactive)
REMARK    1  A    between atoms: C4_4  and  C5_5 
REMARK    2  A    between atoms: C8_11  and  N3_12 
REMARK       I    between atoms: N3_12  and  C9_13 
REMARK       I    between atoms: C9_13  and  N4_15 
REMARK    3  A    between atoms: N4_15  and  C10_16 
ROOT
HETATM    1  C5  UNL     1      -0.847  51.069 -24.436  1.00  0.00     0.072 A 
HETATM    2  N1  UNL     1       0.044  51.308 -25.414  1.00  0.00    -0.299 N 
ATOM      3  H1  UNL     1       0.953  51.762 -25.333  1.00  0.00     0.187 HD
HETATM    4  N2  UNL     1      -0.533  50.815 -26.521  1.00  0.00    -0.299 N 
HETATM    5  C6  UNL     1      -1.748  50.232 -26.305  1.00  0.00     0.065 A 
HETATM    6  C7  UNL     1      -2.643  49.601 -27.169  1.00  0.00     0.080 A 
HETATM    7  C8  UNL     1      -3.798  49.115 -26.570  1.00  0.00     0.111 A 
HETATM    8  N6  UNL     1      -4.056  49.216 -25.246  1.00  0.00    -0.351 N 
ATOM      9  H6  UNL     1      -4.918  48.829 -24.863  1.00  0.00     0.166 HD
HETATM   10  C19 UNL     1      -3.164  49.833 -24.426  1.00  0.00     0.105 A 
HETATM   11  C20 UNL     1      -1.986  50.372 -24.945  1.00  0.00     0.036 A 
HETATM   12  H5  UNL     1      -0.037  50.904 -27.402  1.00  0.00     0.187 HD
ENDROOT
BRANCH   7  13
HETATM   13  N3  UNL     1      -4.807  48.450 -27.269  1.00  0.00    -0.295 N 
HETATM   14  C9  UNL     1      -5.047  48.446 -28.616  1.00  0.00     0.322 C 
HETATM   15  O1  UNL     1      -4.428  49.075 -29.463  1.00  0.00    -0.247 OA
HETATM   16  N4  UNL     1      -6.111  47.626 -28.928  1.00  0.00    -0.334 N 
HETATM   17  H8  UNL     1      -6.322  46.891 -28.270  1.00  0.00     0.165 HD
HETATM   18  H7  UNL     1      -5.487  48.031 -26.654  1.00  0.00     0.172 HD
BRANCH  16  19
HETATM   19  C10 UNL     1      -6.515  47.391 -30.309  1.00  0.00     0.121 C 
HETATM   20  C11 UNL     1      -7.553  48.459 -30.701  1.00  0.00     0.030 C 
HETATM   21  C12 UNL     1      -8.225  48.235 -32.063  1.00  0.00     0.008 C 
HETATM   22  C13 UNL     1      -7.872  46.911 -32.736  1.00  0.00     0.057 C 
HETATM   23  C14 UNL     1      -7.790  45.790 -31.734  1.00  0.00     0.017 A 
HETATM   24  N5  UNL     1      -8.351  44.605 -32.071  1.00  0.00    -0.369 N 
HETATM   25  C18 UNL     1      -7.097  46.011 -30.537  1.00  0.00    -0.013 A 
HETATM   26  C15 UNL     1      -8.208  43.590 -31.194  1.00  0.00     0.088 A 
ATOM     27  H5  UNL     1      -8.857  44.485 -32.948  1.00  0.00     0.165 HD
HETATM   28  C16 UNL     1      -7.522  43.699 -29.997  1.00  0.00     0.018 A 
HETATM   29  C17 UNL     1      -6.953  44.927 -29.668  1.00  0.00     0.012 A 
ENDBRANCH  16  19
ENDBRANCH   7  13
BRANCH   1  30
HETATM   30  C4  UNL     1      -0.578  51.496 -23.064  1.00  0.00    -0.004 A 
HETATM   31  C3  UNL     1       0.259  52.582 -22.795  1.00  0.00     0.038 A 
HETATM   32  C2  UNL     1       0.479  52.952 -21.472  1.00  0.00     0.005 A 
HETATM   33  C1  UNL     1       1.377  54.109 -21.153  1.00  0.00     0.068 C 
HETATM   34  N7  UNL     1      -0.085  52.300 -20.430  1.00  0.00    -0.369 N 
HETATM   35  C22 UNL     1      -0.874  51.241 -20.711  1.00  0.00     0.089 A 
ATOM     36  H7  UNL     1       0.080  52.597 -19.469  1.00  0.00     0.165 HD
HETATM   37  C21 UNL     1      -1.146  50.804 -21.995  1.00  0.00     0.031 A 
ENDBRANCH   1  30
TORSDOF 3
ENDMDL
