MODEL 1
REMARK minimizedAffinity -9.05758953
REMARK CNNscore 0.57982254
REMARK CNNaffinity 6.95695543
REMARK  4 active torsions:
REMARK  status: ('A' for Active; 'I' for Inactive)
REMARK    1  A    between atoms: C2_2  and  N1_3 
REMARK    2  A    between atoms: C2_2  and  C16_25 
REMARK       I    between atoms: N1_3  and  C3_4 
REMARK       I    between atoms: C3_4  and  N2_6 
REMARK    3  A    between atoms: N2_6  and  C4_7 
REMARK    4  A    between atoms: C7_13  and  C8_14 
ROOT
HETATM    1  C4  UNL     1       0.039  52.571 -19.975  1.00  0.00     0.111 A 
HETATM    2  C5  UNL     1       0.761  53.713 -20.294  1.00  0.00     0.080 A 
HETATM    3  C6  UNL     1       0.985  53.913 -21.655  1.00  0.00     0.065 A 
HETATM    4  N3  UNL     1       1.626  54.908 -22.336  1.00  0.00    -0.299 N 
HETATM    5  N4  UNL     1       1.623  54.752 -23.668  1.00  0.00    -0.299 N 
ATOM      6  H4  UNL     1       2.022  55.374 -24.371  1.00  0.00     0.187 HD
HETATM    7  C7  UNL     1       0.975  53.592 -23.869  1.00  0.00     0.072 A 
HETATM    8  C14 UNL     1       0.535  53.033 -22.630  1.00  0.00     0.036 A 
HETATM    9  C15 UNL     1      -0.190  51.914 -22.218  1.00  0.00     0.105 A 
HETATM   10  N5  UNL     1      -0.422  51.694 -20.898  1.00  0.00    -0.351 N 
ATOM     11  H5  UNL     1      -0.943  50.869 -20.602  1.00  0.00     0.166 HD
HETATM   12  H8  UNL     1       2.081  55.728 -21.950  1.00  0.00     0.187 HD
ENDROOT
BRANCH   1  13
HETATM   13  N2  UNL     1      -0.280  52.199 -18.668  1.00  0.00    -0.295 N 
HETATM   14  C3  UNL     1      -0.484  50.942 -18.168  1.00  0.00     0.322 C 
HETATM   15  N1  UNL     1      -0.817  50.984 -16.832  1.00  0.00    -0.335 N 
HETATM   16  O1  UNL     1      -0.384  49.889 -18.784  1.00  0.00    -0.247 OA
HETATM   17  H5  UNL     1      -1.201  51.850 -16.484  1.00  0.00     0.165 HD
HETATM   18  H6  UNL     1      -0.230  52.974 -18.027  1.00  0.00     0.172 HD
BRANCH  15  19
HETATM   19  C2  UNL     1      -1.142  49.773 -16.097  1.00  0.00     0.115 C 
HETATM   20  C1  UNL     1      -2.389  49.964 -15.227  1.00  0.00     0.037 C 
BRANCH  19  21
HETATM   21  C16 UNL     1       0.079  49.330 -15.306  1.00  0.00    -0.034 A 
HETATM   22  C17 UNL     1       0.280  47.960 -15.061  1.00  0.00     0.012 A 
HETATM   23  C18 UNL     1       1.402  47.515 -14.359  1.00  0.00     0.044 A 
HETATM   24  C19 UNL     1       2.340  48.435 -13.904  1.00  0.00     0.138 A 
HETATM   25  F2  UNL     1       3.412  47.987 -13.235  1.00  0.00    -0.204 F 
HETATM   26  C20 UNL     1       2.169  49.795 -14.148  1.00  0.00     0.073 A 
HETATM   27 CL1  UNL     1       3.334  50.938 -13.600  1.00  0.00    -0.081 Cl
HETATM   28  C21 UNL     1       1.047  50.243 -14.849  1.00  0.00     0.036 A 
ENDBRANCH  19  21
ENDBRANCH  15  19
ENDBRANCH   1  13
BRANCH   7  29
HETATM   29  C8  UNL     1       0.788  53.066 -25.222  1.00  0.00    -0.007 A 
HETATM   30  C9  UNL     1       1.381  51.858 -25.617  1.00  0.00     0.017 A 
HETATM   31  C10 UNL     1       1.190  51.368 -26.912  1.00  0.00     0.043 A 
HETATM   32  C11 UNL     1       0.411  52.088 -27.812  1.00  0.00     0.116 A 
HETATM   33  F1  UNL     1       0.230  51.616 -29.051  1.00  0.00    -0.206 F 
HETATM   34  C12 UNL     1      -0.176  53.292 -27.444  1.00  0.00     0.043 A 
HETATM   35  C13 UNL     1       0.015  53.783 -26.150  1.00  0.00     0.017 A 
ENDBRANCH   7  29
TORSDOF 4
ENDMDL
MODEL 2
REMARK minimizedAffinity -9.06873035
REMARK CNNscore 0.502674758
REMARK CNNaffinity 6.88738394
REMARK  4 active torsions:
REMARK  status: ('A' for Active; 'I' for Inactive)
REMARK    1  A    between atoms: C2_2  and  N1_3 
REMARK    2  A    between atoms: C2_2  and  C16_25 
REMARK       I    between atoms: N1_3  and  C3_4 
REMARK       I    between atoms: C3_4  and  N2_6 
REMARK    3  A    between atoms: N2_6  and  C4_7 
REMARK    4  A    between atoms: C7_13  and  C8_14 
ROOT
HETATM    1  C4  UNL     1       0.901  53.000 -19.467  1.00  0.00     0.111 A 
HETATM    2  C5  UNL     1       1.536  54.034 -20.141  1.00  0.00     0.080 A 
HETATM    3  C6  UNL     1       1.363  54.036 -21.524  1.00  0.00     0.065 A 
HETATM    4  N3  UNL     1       1.811  54.883 -22.497  1.00  0.00    -0.299 N 
HETATM    5  N4  UNL     1       1.416  54.553 -23.736  1.00  0.00    -0.299 N 
ATOM      6  H4  UNL     1       1.614  55.046 -24.607  1.00  0.00     0.187 HD
HETATM    7  C7  UNL     1       0.701  53.428 -23.573  1.00  0.00     0.072 A 
HETATM    8  C14 UNL     1       0.621  53.071 -22.192  1.00  0.00     0.036 A 
HETATM    9  C15 UNL     1       0.010  52.072 -21.433  1.00  0.00     0.105 A 
HETATM   10  N5  UNL     1       0.164  52.045 -20.083  1.00  0.00    -0.351 N 
ATOM     11  H5  UNL     1      -0.275  51.306 -19.534  1.00  0.00     0.166 HD
HETATM   12  H8  UNL     1       2.385  55.711 -22.380  1.00  0.00     0.187 HD
ENDROOT
BRANCH   1  13
HETATM   13  N2  UNL     1       0.963  52.827 -18.083  1.00  0.00    -0.295 N 
HETATM   14  C3  UNL     1       0.605  51.731 -17.347  1.00  0.00     0.322 C 
HETATM   15  N1  UNL     1       0.778  51.957 -15.999  1.00  0.00    -0.335 N 
HETATM   16  O1  UNL     1       0.190  50.665 -17.783  1.00  0.00    -0.247 OA
HETATM   17  H5  UNL     1       0.794  52.919 -15.696  1.00  0.00     0.165 HD
HETATM   18  H6  UNL     1       1.443  53.584 -17.625  1.00  0.00     0.172 HD
BRANCH  15  19
HETATM   19  C2  UNL     1       0.405  50.958 -15.012  1.00  0.00     0.115 C 
HETATM   20  C1  UNL     1      -0.827  51.394 -14.212  1.00  0.00     0.037 C 
BRANCH  19  21
HETATM   21  C16 UNL     1       1.610  50.651 -14.136  1.00  0.00    -0.034 A 
HETATM   22  C17 UNL     1       2.900  50.730 -14.691  1.00  0.00     0.012 A 
HETATM   23  C18 UNL     1       4.032  50.479 -13.910  1.00  0.00     0.044 A 
HETATM   24  C19 UNL     1       3.883  50.157 -12.566  1.00  0.00     0.138 A 
HETATM   25  F2  UNL     1       4.982  49.922 -11.834  1.00  0.00    -0.204 F 
HETATM   26  C20 UNL     1       2.617  50.087 -11.993  1.00  0.00     0.073 A 
HETATM   27 CL1  UNL     1       2.427  49.703 -10.325  1.00  0.00    -0.081 Cl
HETATM   28  C21 UNL     1       1.483  50.338 -12.771  1.00  0.00     0.036 A 
ENDBRANCH  19  21
ENDBRANCH  15  19
ENDBRANCH   1  13
BRANCH   7  29
HETATM   29  C8  UNL     1       0.112  52.744 -24.726  1.00  0.00    -0.007 A 
HETATM   30  C9  UNL     1      -1.251  52.880 -25.028  1.00  0.00     0.017 A 
HETATM   31  C10 UNL     1      -1.797  52.223 -26.135  1.00  0.00     0.043 A 
HETATM   32  C11 UNL     1      -0.982  51.429 -26.934  1.00  0.00     0.116 A 
HETATM   33  F1  UNL     1      -1.508  50.802 -27.993  1.00  0.00    -0.206 F 
HETATM   34  C12 UNL     1       0.368  51.273 -26.645  1.00  0.00     0.043 A 
HETATM   35  C13 UNL     1       0.915  51.927 -25.539  1.00  0.00     0.017 A 
ENDBRANCH   7  29
TORSDOF 4
ENDMDL
MODEL 3
REMARK minimizedAffinity -8.91780376
REMARK CNNscore 0.46296531
REMARK CNNaffinity 6.65678024
REMARK  4 active torsions:
REMARK  status: ('A' for Active; 'I' for Inactive)
REMARK    1  A    between atoms: C2_2  and  N1_3 
REMARK    2  A    between atoms: C2_2  and  C16_25 
REMARK       I    between atoms: N1_3  and  C3_4 
REMARK       I    between atoms: C3_4  and  N2_6 
REMARK    3  A    between atoms: N2_6  and  C4_7 
REMARK    4  A    between atoms: C7_13  and  C8_14 
ROOT
HETATM    1  C4  UNL     1       0.344  51.390 -17.520  1.00  0.00     0.111 A 
HETATM    2  C5  UNL     1       0.848  52.618 -17.928  1.00  0.00     0.080 A 
HETATM    3  C6  UNL     1       0.771  52.866 -19.297  1.00  0.00     0.065 A 
HETATM    4  N3  UNL     1       1.141  53.944 -20.050  1.00  0.00    -0.299 N 
HETATM    5  N4  UNL     1       0.890  53.810 -21.361  1.00  0.00    -0.299 N 
ATOM      6  H4  UNL     1       1.064  54.488 -22.103  1.00  0.00     0.187 HD
HETATM    7  C7  UNL     1       0.356  52.582 -21.477  1.00  0.00     0.072 A 
HETATM    8  C14 UNL     1       0.242  51.953 -20.200  1.00  0.00     0.036 A 
HETATM    9  C15 UNL     1      -0.249  50.747 -19.700  1.00  0.00     0.105 A 
HETATM   10  N5  UNL     1      -0.185  50.478 -18.369  1.00  0.00    -0.351 N 
ATOM     11  H5  UNL     1      -0.535  49.590 -18.011  1.00  0.00     0.166 HD
HETATM   12  H8  UNL     1       1.564  54.808 -19.727  1.00  0.00     0.187 HD
ENDROOT
BRANCH   1  13
HETATM   13  N2  UNL     1       0.339  50.960 -16.192  1.00  0.00    -0.295 N 
HETATM   14  C3  UNL     1      -0.727  50.818 -15.348  1.00  0.00     0.322 C 
HETATM   15  N1  UNL     1      -0.324  50.403 -14.098  1.00  0.00    -0.335 N 
HETATM   16  O1  UNL     1      -1.905  51.012 -15.624  1.00  0.00    -0.247 OA
HETATM   17  H5  UNL     1       0.636  50.583 -13.845  1.00  0.00     0.165 HD
HETATM   18  H6  UNL     1       1.239  50.615 -15.899  1.00  0.00     0.172 HD
BRANCH  15  19
HETATM   19  C2  UNL     1      -1.276  50.243 -13.012  1.00  0.00     0.115 C 
HETATM   20  C1  UNL     1      -2.643  49.781 -13.529  1.00  0.00     0.037 C 
BRANCH  19  21
HETATM   21  C16 UNL     1      -1.342  51.538 -12.216  1.00  0.00    -0.034 A 
HETATM   22  C17 UNL     1      -0.172  52.296 -12.039  1.00  0.00     0.012 A 
HETATM   23  C18 UNL     1      -0.200  53.502 -11.334  1.00  0.00     0.044 A 
HETATM   24  C19 UNL     1      -1.401  53.966 -10.810  1.00  0.00     0.138 A 
HETATM   25  F2  UNL     1      -1.406  55.127 -10.140  1.00  0.00    -0.204 F 
HETATM   26  C20 UNL     1      -2.575  53.239 -10.986  1.00  0.00     0.073 A 
HETATM   27 CL1  UNL     1      -4.068  53.815 -10.351  1.00  0.00    -0.081 Cl
HETATM   28  C21 UNL     1      -2.550  52.032 -11.690  1.00  0.00     0.036 A 
ENDBRANCH  19  21
ENDBRANCH  15  19
ENDBRANCH   1  13
BRANCH   7  29
HETATM   29  C8  UNL     1      -0.034  52.060 -22.788  1.00  0.00    -0.007 A 
HETATM   30  C9  UNL     1      -1.119  51.181 -22.922  1.00  0.00     0.017 A 
HETATM   31  C10 UNL     1      -1.482  50.694 -24.181  1.00  0.00     0.043 A 
HETATM   32  C11 UNL     1      -0.757  51.081 -25.302  1.00  0.00     0.116 A 
HETATM   33  F1  UNL     1      -1.107  50.613 -26.507  1.00  0.00    -0.206 F 
HETATM   34  C12 UNL     1       0.328  51.942 -25.190  1.00  0.00     0.043 A 
HETATM   35  C13 UNL     1       0.692  52.429 -23.932  1.00  0.00     0.017 A 
ENDBRANCH   7  29
TORSDOF 4
ENDMDL
MODEL 4
REMARK minimizedAffinity -9.69693184
REMARK CNNscore 0.392469466
REMARK CNNaffinity 6.71911955
REMARK  4 active torsions:
REMARK  status: ('A' for Active; 'I' for Inactive)
REMARK    1  A    between atoms: C2_2  and  N1_3 
REMARK    2  A    between atoms: C2_2  and  C16_25 
REMARK       I    between atoms: N1_3  and  C3_4 
REMARK       I    between atoms: C3_4  and  N2_6 
REMARK    3  A    between atoms: N2_6  and  C4_7 
REMARK    4  A    between atoms: C7_13  and  C8_14 
ROOT
HETATM    1  C4  UNL     1       0.916  53.004 -19.518  1.00  0.00     0.111 A 
HETATM    2  C5  UNL     1       1.528  54.038 -20.213  1.00  0.00     0.080 A 
HETATM    3  C6  UNL     1       1.331  54.025 -21.593  1.00  0.00     0.065 A 
HETATM    4  N3  UNL     1       1.753  54.866 -22.582  1.00  0.00    -0.299 N 
HETATM    5  N4  UNL     1       1.341  54.520 -23.811  1.00  0.00    -0.299 N 
ATOM      6  H4  UNL     1       1.519  55.006 -24.690  1.00  0.00     0.187 HD
HETATM    7  C7  UNL     1       0.640  53.388 -23.624  1.00  0.00     0.072 A 
HETATM    8  C14 UNL     1       0.588  53.045 -22.239  1.00  0.00     0.036 A 
HETATM    9  C15 UNL     1       0.001  52.047 -21.458  1.00  0.00     0.105 A 
HETATM   10  N5  UNL     1       0.179  52.036 -20.111  1.00  0.00    -0.351 N 
ATOM     11  H5  UNL     1      -0.243  51.298 -19.548  1.00  0.00     0.166 HD
HETATM   12  H8  UNL     1       2.320  55.701 -22.483  1.00  0.00     0.187 HD
ENDROOT
BRANCH   1  13
HETATM   13  N2  UNL     1       1.004  52.846 -18.134  1.00  0.00    -0.295 N 
HETATM   14  C3  UNL     1       0.726  51.735 -17.386  1.00  0.00     0.322 C 
HETATM   15  N1  UNL     1       0.899  51.982 -16.042  1.00  0.00    -0.335 N 
HETATM   16  O1  UNL     1       0.379  50.641 -17.811  1.00  0.00    -0.247 OA
HETATM   17  H5  UNL     1       0.853  52.945 -15.745  1.00  0.00     0.165 HD
HETATM   18  H6  UNL     1       1.437  53.638 -17.686  1.00  0.00     0.172 HD
BRANCH  15  19
HETATM   19  C2  UNL     1       0.602  50.968 -15.044  1.00  0.00     0.115 C 
HETATM   20  C1  UNL     1       0.452  49.583 -15.682  1.00  0.00     0.037 C 
BRANCH  19  21
HETATM   21  C16 UNL     1      -0.620  51.398 -14.248  1.00  0.00    -0.034 A 
HETATM   22  C17 UNL     1      -1.895  50.981 -14.667  1.00  0.00     0.012 A 
HETATM   23  C18 UNL     1      -3.038  51.336 -13.947  1.00  0.00     0.044 A 
HETATM   24  C19 UNL     1      -2.915  52.103 -12.794  1.00  0.00     0.138 A 
HETATM   25  F2  UNL     1      -4.024  52.430 -12.115  1.00  0.00    -0.204 F 
HETATM   26  C20 UNL     1      -1.661  52.514 -12.351  1.00  0.00     0.073 A 
HETATM   27 CL1  UNL     1      -1.500  53.452 -10.916  1.00  0.00    -0.081 Cl
HETATM   28  C21 UNL     1      -0.516  52.161 -13.070  1.00  0.00     0.036 A 
ENDBRANCH  19  21
ENDBRANCH  15  19
ENDBRANCH   1  13
BRANCH   7  29
HETATM   29  C8  UNL     1       0.039  52.687 -24.760  1.00  0.00    -0.007 A 
HETATM   30  C9  UNL     1       0.824  51.918 -25.632  1.00  0.00     0.017 A 
HETATM   31  C10 UNL     1       0.235  51.252 -26.709  1.00  0.00     0.043 A 
HETATM   32  C11 UNL     1      -1.136  51.358 -26.918  1.00  0.00     0.116 A 
HETATM   33  F1  UNL     1      -1.697  50.718 -27.950  1.00  0.00    -0.206 F 
HETATM   34  C12 UNL     1      -1.929  52.123 -26.072  1.00  0.00     0.043 A 
HETATM   35  C13 UNL     1      -1.342  52.791 -24.995  1.00  0.00     0.017 A 
ENDBRANCH   7  29
TORSDOF 4
ENDMDL
MODEL 5
REMARK minimizedAffinity -8.37996674
REMARK CNNscore 0.376031756
REMARK CNNaffinity 6.73181868
REMARK  4 active torsions:
REMARK  status: ('A' for Active; 'I' for Inactive)
REMARK    1  A    between atoms: C2_2  and  N1_3 
REMARK    2  A    between atoms: C2_2  and  C16_25 
REMARK       I    between atoms: N1_3  and  C3_4 
REMARK       I    between atoms: C3_4  and  N2_6 
REMARK    3  A    between atoms: N2_6  and  C4_7 
REMARK    4  A    between atoms: C7_13  and  C8_14 
ROOT
HETATM    1  C4  UNL     1       0.542  52.761 -18.872  1.00  0.00     0.111 A 
HETATM    2  C5  UNL     1       1.268  53.436 -19.844  1.00  0.00     0.080 A 
HETATM    3  C6  UNL     1       0.825  53.250 -21.153  1.00  0.00     0.065 A 
HETATM    4  N3  UNL     1       1.266  53.751 -22.344  1.00  0.00    -0.299 N 
HETATM    5  N4  UNL     1       0.559  53.342 -23.408  1.00  0.00    -0.299 N 
ATOM      6  H4  UNL     1       0.695  53.599 -24.385  1.00  0.00     0.187 HD
HETATM    7  C7  UNL     1      -0.370  52.516 -22.896  1.00  0.00     0.072 A 
HETATM    8  C14 UNL     1      -0.257  52.441 -21.475  1.00  0.00     0.036 A 
HETATM    9  C15 UNL     1      -0.933  51.807 -20.432  1.00  0.00     0.105 A 
HETATM   10  N5  UNL     1      -0.521  51.969 -19.147  1.00  0.00    -0.351 N 
ATOM     11  H5  UNL     1      -1.013  51.494 -18.390  1.00  0.00     0.166 HD
HETATM   12  H8  UNL     1       2.042  54.386 -22.499  1.00  0.00     0.187 HD
ENDROOT
BRANCH   1  13
HETATM   13  N2  UNL     1       0.837  52.818 -17.510  1.00  0.00    -0.295 N 
HETATM   14  C3  UNL     1       0.897  51.790 -16.609  1.00  0.00     0.322 C 
HETATM   15  N1  UNL     1       1.184  52.251 -15.343  1.00  0.00    -0.335 N 
HETATM   16  O1  UNL     1       0.735  50.601 -16.851  1.00  0.00    -0.247 OA
HETATM   17  H5  UNL     1       0.976  53.220 -15.152  1.00  0.00     0.165 HD
HETATM   18  H6  UNL     1       1.149  53.733 -17.224  1.00  0.00     0.172 HD
BRANCH  15  19
HETATM   19  C2  UNL     1       1.236  51.349 -14.205  1.00  0.00     0.115 C 
HETATM   20  C1  UNL     1      -0.007  50.455 -14.141  1.00  0.00     0.037 C 
BRANCH  19  21
HETATM   21  C16 UNL     1       1.457  52.161 -12.938  1.00  0.00    -0.034 A 
HETATM   22  C17 UNL     1       2.713  52.122 -12.307  1.00  0.00     0.012 A 
HETATM   23  C18 UNL     1       2.959  52.873 -11.155  1.00  0.00     0.044 A 
HETATM   24  C19 UNL     1       1.955  53.679 -10.631  1.00  0.00     0.138 A 
HETATM   25  F2  UNL     1       2.213  54.395  -9.527  1.00  0.00    -0.204 F 
HETATM   26  C20 UNL     1       0.709  53.745 -11.247  1.00  0.00     0.073 A 
HETATM   27 CL1  UNL     1      -0.534  54.752 -10.611  1.00  0.00    -0.081 Cl
HETATM   28  C21 UNL     1       0.460  52.994 -12.399  1.00  0.00     0.036 A 
ENDBRANCH  19  21
ENDBRANCH  15  19
ENDBRANCH   1  13
BRANCH   7  29
HETATM   29  C8  UNL     1      -1.333  51.844 -23.770  1.00  0.00    -0.007 A 
HETATM   30  C9  UNL     1      -2.142  52.576 -24.652  1.00  0.00     0.017 A 
HETATM   31  C10 UNL     1      -3.054  51.918 -25.483  1.00  0.00     0.043 A 
HETATM   32  C11 UNL     1      -3.161  50.533 -25.427  1.00  0.00     0.116 A 
HETATM   33  F1  UNL     1      -4.035  49.907 -26.224  1.00  0.00    -0.206 F 
HETATM   34  C12 UNL     1      -2.376  49.791 -24.553  1.00  0.00     0.043 A 
HETATM   35  C13 UNL     1      -1.465  50.446 -23.722  1.00  0.00     0.017 A 
ENDBRANCH   7  29
TORSDOF 4
ENDMDL
MODEL 6
REMARK minimizedAffinity -9.11597729
REMARK CNNscore 0.36927709
REMARK CNNaffinity 6.83859587
REMARK  4 active torsions:
REMARK  status: ('A' for Active; 'I' for Inactive)
REMARK    1  A    between atoms: C2_2  and  N1_3 
REMARK    2  A    between atoms: C2_2  and  C16_25 
REMARK       I    between atoms: N1_3  and  C3_4 
REMARK       I    between atoms: C3_4  and  N2_6 
REMARK    3  A    between atoms: N2_6  and  C4_7 
REMARK    4  A    between atoms: C7_13  and  C8_14 
ROOT
HETATM    1  C4  UNL     1       0.669  52.622 -18.926  1.00  0.00     0.111 A 
HETATM    2  C5  UNL     1       1.131  53.339 -20.022  1.00  0.00     0.080 A 
HETATM    3  C6  UNL     1       0.641  52.919 -21.257  1.00  0.00     0.065 A 
HETATM    4  N3  UNL     1       0.852  53.379 -22.525  1.00  0.00    -0.299 N 
HETATM    5  N4  UNL     1       0.180  52.707 -23.472  1.00  0.00    -0.299 N 
ATOM      6  H4  UNL     1       0.171  52.883 -24.477  1.00  0.00     0.187 HD
HETATM    7  C7  UNL     1      -0.480  51.749 -22.799  1.00  0.00     0.072 A 
HETATM    8  C14 UNL     1      -0.238  51.852 -21.396  1.00  0.00     0.036 A 
HETATM    9  C15 UNL     1      -0.657  51.194 -20.239  1.00  0.00     0.105 A 
HETATM   10  N5  UNL     1      -0.193  51.582 -19.022  1.00  0.00    -0.351 N 
ATOM     11  H5  UNL     1      -0.494  51.090 -18.181  1.00  0.00     0.166 HD
HETATM   12  H8  UNL     1       1.440  54.155 -22.812  1.00  0.00     0.187 HD
ENDROOT
BRANCH   1  13
HETATM   13  N2  UNL     1       1.050  52.890 -17.611  1.00  0.00    -0.295 N 
HETATM   14  C3  UNL     1       1.198  52.012 -16.573  1.00  0.00     0.322 C 
HETATM   15  N1  UNL     1       1.554  52.664 -15.413  1.00  0.00    -0.335 N 
HETATM   16  O1  UNL     1       1.055  50.796 -16.623  1.00  0.00    -0.247 OA
HETATM   17  H5  UNL     1       1.331  53.646 -15.356  1.00  0.00     0.165 HD
HETATM   18  H6  UNL     1       1.354  53.843 -17.488  1.00  0.00     0.172 HD
BRANCH  15  19
HETATM   19  C2  UNL     1       1.707  51.945 -14.160  1.00  0.00     0.115 C 
HETATM   20  C1  UNL     1       2.159  50.500 -14.395  1.00  0.00     0.037 C 
BRANCH  19  21
HETATM   21  C16 UNL     1       0.412  52.047 -13.368  1.00  0.00    -0.034 A 
HETATM   22  C17 UNL     1       0.321  52.974 -12.315  1.00  0.00     0.012 A 
HETATM   23  C18 UNL     1      -0.861  53.112 -11.583  1.00  0.00     0.044 A 
HETATM   24  C19 UNL     1      -1.965  52.331 -11.903  1.00  0.00     0.138 A 
HETATM   25  F2  UNL     1      -3.090  52.482 -11.190  1.00  0.00    -0.204 F 
HETATM   26  C20 UNL     1      -1.903  51.417 -12.951  1.00  0.00     0.073 A 
HETATM   27 CL1  UNL     1      -3.272  50.458 -13.363  1.00  0.00    -0.081 Cl
HETATM   28  C21 UNL     1      -0.722  51.277 -13.686  1.00  0.00     0.036 A 
ENDBRANCH  19  21
ENDBRANCH  15  19
ENDBRANCH   1  13
BRANCH   7  29
HETATM   29  C8  UNL     1      -1.322  50.784 -23.509  1.00  0.00    -0.007 A 
HETATM   30  C9  UNL     1      -2.047  49.806 -22.812  1.00  0.00     0.017 A 
HETATM   31  C10 UNL     1      -2.848  48.895 -23.504  1.00  0.00     0.043 A 
HETATM   32  C11 UNL     1      -2.921  48.957 -24.891  1.00  0.00     0.116 A 
HETATM   33  F1  UNL     1      -3.690  48.083 -25.552  1.00  0.00    -0.206 F 
HETATM   34  C12 UNL     1      -2.202  49.911 -25.602  1.00  0.00     0.043 A 
HETATM   35  C13 UNL     1      -1.400  50.822 -24.911  1.00  0.00     0.017 A 
ENDBRANCH   7  29
TORSDOF 4
ENDMDL
MODEL 7
REMARK minimizedAffinity -8.70368195
REMARK CNNscore 0.353810757
REMARK CNNaffinity 6.4683156
REMARK  4 active torsions:
REMARK  status: ('A' for Active; 'I' for Inactive)
REMARK    1  A    between atoms: C2_2  and  N1_3 
REMARK    2  A    between atoms: C2_2  and  C16_25 
REMARK       I    between atoms: N1_3  and  C3_4 
REMARK       I    between atoms: C3_4  and  N2_6 
REMARK    3  A    between atoms: N2_6  and  C4_7 
REMARK    4  A    between atoms: C7_13  and  C8_14 
ROOT
HETATM    1  C4  UNL     1       0.571  53.008 -19.448  1.00  0.00     0.111 A 
HETATM    2  C5  UNL     1       1.297  54.040 -20.028  1.00  0.00     0.080 A 
HETATM    3  C6  UNL     1       1.260  54.082 -21.420  1.00  0.00     0.065 A 
HETATM    4  N3  UNL     1       1.824  54.940 -22.321  1.00  0.00    -0.299 N 
HETATM    5  N4  UNL     1       1.545  54.654 -23.601  1.00  0.00    -0.299 N 
ATOM      6  H4  UNL     1       1.840  55.162 -24.434  1.00  0.00     0.187 HD
HETATM    7  C7  UNL     1       0.787  53.545 -23.540  1.00  0.00     0.072 A 
HETATM    8  C14 UNL     1       0.562  53.156 -22.184  1.00  0.00     0.036 A 
HETATM    9  C15 UNL     1      -0.146  52.157 -21.516  1.00  0.00     0.105 A 
HETATM   10  N5  UNL     1      -0.126  52.091 -20.159  1.00  0.00    -0.351 N 
ATOM     11  H5  UNL     1      -0.637  51.352 -19.676  1.00  0.00     0.166 HD
HETATM   12  H8  UNL     1       2.405  55.748 -22.125  1.00  0.00     0.187 HD
ENDROOT
BRANCH   1  13
HETATM   13  N2  UNL     1       0.493  52.799 -18.070  1.00  0.00    -0.295 N 
HETATM   14  C3  UNL     1       1.495  52.460 -17.203  1.00  0.00     0.322 C 
HETATM   15  N1  UNL     1       1.016  52.305 -15.921  1.00  0.00    -0.335 N 
HETATM   16  O1  UNL     1       2.679  52.312 -17.481  1.00  0.00    -0.247 OA
HETATM   17  H5  UNL     1       0.031  52.111 -15.822  1.00  0.00     0.165 HD
HETATM   18  H6  UNL     1      -0.408  53.051 -17.696  1.00  0.00     0.172 HD
BRANCH  15  19
HETATM   19  C2  UNL     1       1.886  51.884 -14.836  1.00  0.00     0.115 C 
HETATM   20  C1  UNL     1       3.360  51.929 -15.251  1.00  0.00     0.037 C 
BRANCH  19  21
HETATM   21  C16 UNL     1       1.441  50.514 -14.348  1.00  0.00    -0.034 A 
HETATM   22  C17 UNL     1       0.108  50.328 -13.942  1.00  0.00     0.012 A 
HETATM   23  C18 UNL     1      -0.342  49.077 -13.510  1.00  0.00     0.044 A 
HETATM   24  C19 UNL     1       0.536  47.999 -13.492  1.00  0.00     0.138 A 
HETATM   25  F2  UNL     1       0.083  46.807 -13.078  1.00  0.00    -0.204 F 
HETATM   26  C20 UNL     1       1.856  48.156 -13.904  1.00  0.00     0.073 A 
HETATM   27 CL1  UNL     1       2.943  46.821 -13.897  1.00  0.00    -0.081 Cl
HETATM   28  C21 UNL     1       2.308  49.406 -14.335  1.00  0.00     0.036 A 
ENDBRANCH  19  21
ENDBRANCH  15  19
ENDBRANCH   1  13
BRANCH   7  29
HETATM   29  C8  UNL     1       0.297  52.908 -24.764  1.00  0.00    -0.007 A 
HETATM   30  C9  UNL     1       0.171  53.636 -25.957  1.00  0.00     0.017 A 
HETATM   31  C10 UNL     1      -0.295  53.012 -27.117  1.00  0.00     0.043 A 
HETATM   32  C11 UNL     1      -0.640  51.665 -27.083  1.00  0.00     0.116 A 
HETATM   33  F1  UNL     1      -1.086  51.071 -28.197  1.00  0.00    -0.206 F 
HETATM   34  C12 UNL     1      -0.533  50.930 -25.909  1.00  0.00     0.043 A 
HETATM   35  C13 UNL     1      -0.068  51.552 -24.748  1.00  0.00     0.017 A 
ENDBRANCH   7  29
TORSDOF 4
ENDMDL
MODEL 8
REMARK minimizedAffinity -7.54673243
REMARK CNNscore 0.294711143
REMARK CNNaffinity 6.17733383
REMARK  4 active torsions:
REMARK  status: ('A' for Active; 'I' for Inactive)
REMARK    1  A    between atoms: C2_2  and  N1_3 
REMARK    2  A    between atoms: C2_2  and  C16_25 
REMARK       I    between atoms: N1_3  and  C3_4 
REMARK       I    between atoms: C3_4  and  N2_6 
REMARK    3  A    between atoms: N2_6  and  C4_7 
REMARK    4  A    between atoms: C7_13  and  C8_14 
ROOT
HETATM    1  C4  UNL     1       1.411  51.943 -16.107  1.00  0.00     0.111 A 
HETATM    2  C5  UNL     1       1.359  52.796 -17.200  1.00  0.00     0.080 A 
HETATM    3  C6  UNL     1       0.648  52.313 -18.298  1.00  0.00     0.065 A 
HETATM    4  N3  UNL     1       0.372  52.861 -19.518  1.00  0.00    -0.299 N 
HETATM    5  N4  UNL     1      -0.366  52.077 -20.317  1.00  0.00    -0.299 N 
ATOM      6  H4  UNL     1      -0.704  52.285 -21.257  1.00  0.00     0.187 HD
HETATM    7  C7  UNL     1      -0.563  50.957 -19.602  1.00  0.00     0.072 A 
HETATM    8  C14 UNL     1       0.041  51.064 -18.312  1.00  0.00     0.036 A 
HETATM    9  C15 UNL     1       0.138  50.276 -17.164  1.00  0.00     0.105 A 
HETATM   10  N5  UNL     1       0.827  50.722 -16.081  1.00  0.00    -0.351 N 
ATOM     11  H5  UNL     1       0.903  50.137 -15.249  1.00  0.00     0.166 HD
HETATM   12  H8  UNL     1       0.654  53.772 -19.865  1.00  0.00     0.187 HD
ENDROOT
BRANCH   1  13
HETATM   13  N2  UNL     1       2.081  52.248 -14.921  1.00  0.00    -0.295 N 
HETATM   14  C3  UNL     1       1.659  52.058 -13.634  1.00  0.00     0.322 C 
HETATM   15  N1  UNL     1       2.589  52.522 -12.729  1.00  0.00    -0.335 N 
HETATM   16  O1  UNL     1       0.607  51.539 -13.282  1.00  0.00    -0.247 OA
HETATM   17  H5  UNL     1       3.243  53.214 -13.062  1.00  0.00     0.165 HD
HETATM   18  H6  UNL     1       3.032  52.535 -15.082  1.00  0.00     0.172 HD
BRANCH  15  19
HETATM   19  C2  UNL     1       2.334  52.486 -11.299  1.00  0.00     0.115 C 
HETATM   20  C1  UNL     1       1.394  53.617 -10.869  1.00  0.00     0.037 C 
BRANCH  19  21
HETATM   21  C16 UNL     1       3.663  52.496 -10.559  1.00  0.00    -0.034 A 
HETATM   22  C17 UNL     1       4.304  51.277 -10.279  1.00  0.00     0.012 A 
HETATM   23  C18 UNL     1       5.536  51.249  -9.622  1.00  0.00     0.044 A 
HETATM   24  C19 UNL     1       6.144  52.442  -9.249  1.00  0.00     0.138 A 
HETATM   25  F2  UNL     1       7.329  52.393  -8.622  1.00  0.00    -0.204 F 
HETATM   26  C20 UNL     1       5.535  53.662  -9.528  1.00  0.00     0.073 A 
HETATM   27 CL1  UNL     1       6.290  55.143  -9.080  1.00  0.00    -0.081 Cl
HETATM   28  C21 UNL     1       4.302  53.692 -10.184  1.00  0.00     0.036 A 
ENDBRANCH  19  21
ENDBRANCH  15  19
ENDBRANCH   1  13
BRANCH   7  29
HETATM   29  C8  UNL     1      -1.322  49.838 -20.161  1.00  0.00    -0.007 A 
HETATM   30  C9  UNL     1      -0.670  48.713 -20.689  1.00  0.00     0.017 A 
HETATM   31  C10 UNL     1      -1.410  47.652 -21.216  1.00  0.00     0.043 A 
HETATM   32  C11 UNL     1      -2.799  47.717 -21.222  1.00  0.00     0.116 A 
HETATM   33  F1  UNL     1      -3.505  46.698 -21.727  1.00  0.00    -0.206 F 
HETATM   34  C12 UNL     1      -3.464  48.826 -20.714  1.00  0.00     0.043 A 
HETATM   35  C13 UNL     1      -2.726  49.888 -20.187  1.00  0.00     0.017 A 
ENDBRANCH   7  29
TORSDOF 4
ENDMDL
MODEL 9
REMARK minimizedAffinity -7.59684277
REMARK CNNscore 0.262170732
REMARK CNNaffinity 5.64505911
REMARK  4 active torsions:
REMARK  status: ('A' for Active; 'I' for Inactive)
REMARK    1  A    between atoms: C2_2  and  N1_3 
REMARK    2  A    between atoms: C2_2  and  C16_25 
REMARK       I    between atoms: N1_3  and  C3_4 
REMARK       I    between atoms: C3_4  and  N2_6 
REMARK    3  A    between atoms: N2_6  and  C4_7 
REMARK    4  A    between atoms: C7_13  and  C8_14 
ROOT
HETATM    1  C4  UNL     1       0.049  52.182 -13.953  1.00  0.00     0.111 A 
HETATM    2  C5  UNL     1      -1.279  51.829 -13.756  1.00  0.00     0.080 A 
HETATM    3  C6  UNL     1      -1.837  51.034 -14.755  1.00  0.00     0.065 A 
HETATM    4  N3  UNL     1      -3.081  50.490 -14.897  1.00  0.00    -0.299 N 
HETATM    5  N4  UNL     1      -3.237  49.760 -16.012  1.00  0.00    -0.299 N 
ATOM      6  H4  UNL     1      -4.067  49.250 -16.314  1.00  0.00     0.187 HD
HETATM    7  C7  UNL     1      -2.053  49.851 -16.642  1.00  0.00     0.072 A 
HETATM    8  C14 UNL     1      -1.129  50.628 -15.879  1.00  0.00     0.036 A 
HETATM    9  C15 UNL     1       0.205  51.023 -15.991  1.00  0.00     0.105 A 
HETATM   10  N5  UNL     1       0.774  51.800 -15.032  1.00  0.00    -0.351 N 
ATOM     11  H5  UNL     1       1.745  52.095 -15.124  1.00  0.00     0.166 HD
HETATM   12  H8  UNL     1      -3.869  50.572 -14.263  1.00  0.00     0.187 HD
ENDROOT
BRANCH   1  13
HETATM   13  N2  UNL     1       0.777  52.977 -13.067  1.00  0.00    -0.295 N 
HETATM   14  C3  UNL     1       0.739  52.980 -11.700  1.00  0.00     0.322 C 
HETATM   15  N1  UNL     1       1.580  53.939 -11.178  1.00  0.00    -0.335 N 
HETATM   16  O1  UNL     1       0.071  52.240 -10.989  1.00  0.00    -0.247 OA
HETATM   17  H5  UNL     1       1.828  54.706 -11.784  1.00  0.00     0.165 HD
HETATM   18  H6  UNL     1       1.485  53.520 -13.534  1.00  0.00     0.172 HD
BRANCH  15  19
HETATM   19  C2  UNL     1       1.662  54.172  -9.746  1.00  0.00     0.115 C 
HETATM   20  C1  UNL     1       0.602  55.176  -9.281  1.00  0.00     0.037 C 
BRANCH  19  21
HETATM   21  C16 UNL     1       3.081  54.592  -9.393  1.00  0.00    -0.034 A 
HETATM   22  C17 UNL     1       4.165  53.914  -9.980  1.00  0.00     0.012 A 
HETATM   23  C18 UNL     1       5.481  54.288  -9.698  1.00  0.00     0.044 A 
HETATM   24  C19 UNL     1       5.725  55.350  -8.834  1.00  0.00     0.138 A 
HETATM   25  F2  UNL     1       6.996  55.694  -8.579  1.00  0.00    -0.204 F 
HETATM   26  C20 UNL     1       4.668  56.044  -8.253  1.00  0.00     0.073 A 
HETATM   27 CL1  UNL     1       4.964  57.369  -7.194  1.00  0.00    -0.081 Cl
HETATM   28  C21 UNL     1       3.350  55.672  -8.533  1.00  0.00     0.036 A 
ENDBRANCH  19  21
ENDBRANCH  15  19
ENDBRANCH   1  13
BRANCH   7  29
HETATM   29  C8  UNL     1      -1.841  49.189 -17.930  1.00  0.00    -0.007 A 
HETATM   30  C9  UNL     1      -1.015  49.762 -18.909  1.00  0.00     0.017 A 
HETATM   31  C10 UNL     1      -0.819  49.116 -20.133  1.00  0.00     0.043 A 
HETATM   32  C11 UNL     1      -1.453  47.903 -20.379  1.00  0.00     0.116 A 
HETATM   33  F1  UNL     1      -1.263  47.287 -21.552  1.00  0.00    -0.206 F 
HETATM   34  C12 UNL     1      -2.284  47.325 -19.427  1.00  0.00     0.043 A 
HETATM   35  C13 UNL     1      -2.481  47.969 -18.204  1.00  0.00     0.017 A 
ENDBRANCH   7  29
TORSDOF 4
ENDMDL
