MODEL 1
REMARK minimizedAffinity -10.1654701
REMARK CNNscore 0.49239701
REMARK CNNaffinity 7.74178076
REMARK  9 active torsions:
REMARK  status: ('A' for Active; 'I' for Inactive)
REMARK    1  A    between atoms: C2_2  and  O1_3 
REMARK    2  A    between atoms: O1_3  and  C3_4 
REMARK    3  A    between atoms: C3_4  and  C4_5 
REMARK       I    between atoms: C4_5  and  N1_7 
REMARK    4  A    between atoms: N1_7  and  C5_8 
REMARK    5  A    between atoms: C9_15  and  C10_16 
REMARK    6  A    between atoms: N4_27  and  C20_28 
REMARK    7  A    between atoms: C20_28  and  C21_29 
REMARK       I    between atoms: C21_29  and  N5_31 
REMARK    8  A    between atoms: N6_34  and  C24_35 
REMARK    9  A    between atoms: C27_38  and  C28_39 
ROOT
HETATM    1  C3  UNL     1      -1.562  51.063 -26.387  1.00  0.00     0.169 C 
HETATM    2  C18 UNL     1      -2.617  51.650 -27.345  1.00  0.00     0.080 C 
HETATM    3  C19 UNL     1      -3.529  50.476 -27.668  1.00  0.00     0.276 C 
HETATM    4  N4  UNL     1      -3.578  49.753 -26.391  1.00  0.00     0.100 N 
HETATM    5  C36 UNL     1      -2.172  49.712 -25.943  1.00  0.00     0.321 C 
ENDROOT
BRANCH   1   6
HETATM    6  O1  UNL     1      -0.393  50.867 -27.195  1.00  0.00    -0.369 OA
BRANCH   6   7
HETATM    7  C2  UNL     1       0.526  51.960 -27.226  1.00  0.00     0.165 C 
HETATM    8  C1  UNL     1       0.139  52.864 -28.380  1.00  0.00     0.033 C 
ENDBRANCH   6   7
ENDBRANCH   1   6
BRANCH   1   9
HETATM    9  C4  UNL     1      -1.361  52.005 -25.153  1.00  0.00     0.259 C 
HETATM   10  O2  UNL     1      -2.095  52.977 -24.977  1.00  0.00    -0.270 OA
HETATM   11  N1  UNL     1      -0.309  51.639 -24.315  1.00  0.00    -0.325 N 
HETATM   12  H6  UNL     1       0.154  50.754 -24.517  1.00  0.00     0.169 HD
BRANCH  11  13
HETATM   13  C5  UNL     1       0.147  52.330 -23.171  1.00  0.00     0.035 A 
HETATM   14  C6  UNL     1       0.787  53.574 -23.229  1.00  0.00     0.032 A 
HETATM   15  C7  UNL     1       1.239  54.224 -22.073  1.00  0.00     0.034 A 
HETATM   16  C8  UNL     1       0.998  53.592 -20.852  1.00  0.00     0.060 A 
HETATM   17  N2  UNL     1       1.304  53.962 -19.576  1.00  0.00    -0.299 N 
HETATM   18  C16 UNL     1       0.350  52.366 -20.736  1.00  0.00     0.023 A 
HETATM   19  N3  UNL     1       0.908  53.093 -18.638  1.00  0.00    -0.299 N 
HETATM   20  H9  UNL     1       1.788  54.801 -19.279  1.00  0.00     0.187 HD
HETATM   21  C9  UNL     1       0.289  52.114 -19.325  1.00  0.00     0.070 A 
ATOM     22  H3  UNL     1       1.044  53.158 -17.630  1.00  0.00     0.187 HD
HETATM   23  C17 UNL     1      -0.054  51.710 -21.922  1.00  0.00     0.045 A 
BRANCH  21  24
HETATM   24  C10 UNL     1      -0.314  50.984 -18.607  1.00  0.00    -0.007 A 
HETATM   25  C11 UNL     1      -0.874  49.916 -19.333  1.00  0.00     0.017 A 
HETATM   26  C12 UNL     1      -1.438  48.819 -18.679  1.00  0.00     0.043 A 
HETATM   27  C13 UNL     1      -1.447  48.788 -17.293  1.00  0.00     0.116 A 
HETATM   28  F1  UNL     1      -1.983  47.735 -16.661  1.00  0.00    -0.206 F 
HETATM   29  C14 UNL     1      -0.899  49.827 -16.549  1.00  0.00     0.043 A 
HETATM   30  C15 UNL     1      -0.324  50.921 -17.206  1.00  0.00     0.017 A 
ENDBRANCH  21  24
ENDBRANCH  11  13
ENDBRANCH   1   9
BRANCH   4  31
HETATM   31  C20 UNL     1      -4.118  48.383 -26.543  1.00  0.00     0.374 C 
BRANCH  31  32
HETATM   32  C21 UNL     1      -4.725  48.125 -27.938  1.00  0.00     0.248 C 
HETATM   33  O3  UNL     1      -4.031  48.102 -28.958  1.00  0.00    -0.271 OA
HETATM   34  N5  UNL     1      -6.100  47.927 -27.997  1.00  0.00    -0.348 N 
HETATM   35  C22 UNL     1      -7.004  48.008 -26.842  1.00  0.00     0.145 C 
HETATM   36  C35 UNL     1      -6.730  47.562 -29.265  1.00  0.00     0.145 C 
HETATM   37  C23 UNL     1      -8.498  47.882 -27.196  1.00  0.00     0.143 C 
HETATM   38  N6  UNL     1      -8.736  46.696 -28.027  1.00  0.00    -0.378 N 
HETATM   39  C34 UNL     1      -7.740  46.413 -29.090  1.00  0.00     0.143 C 
BRANCH  38  40
HETATM   40  C24 UNL     1      -9.975  46.069 -28.071  1.00  0.00     0.030 A 
HETATM   41  C25 UNL     1     -10.705  45.758 -26.913  1.00  0.00     0.030 A 
HETATM   42  C26 UNL     1     -11.964  45.129 -26.966  1.00  0.00     0.017 A 
HETATM   43  C27 UNL     1     -12.559  44.767 -28.186  1.00  0.00     0.008 A 
HETATM   44  C32 UNL     1     -11.824  45.061 -29.346  1.00  0.00     0.017 A 
HETATM   45  C33 UNL     1     -10.566  45.688 -29.287  1.00  0.00     0.030 A 
BRANCH  43  46
HETATM   46  C28 UNL     1     -13.892  44.130 -28.246  1.00  0.00     0.115 A 
HETATM   47  N7  UNL     1     -14.941  44.897 -28.627  1.00  0.00    -0.352 N 
HETATM   48  C29 UNL     1     -16.151  44.310 -28.622  1.00  0.00     0.091 A 
ATOM     49  H7  UNL     1     -14.820  45.871 -28.905  1.00  0.00     0.166 HD
HETATM   50  C30 UNL     1     -16.354  43.000 -28.258  1.00  0.00     0.034 A 
HETATM   51  C31 UNL     1     -15.226  42.297 -27.904  1.00  0.00     0.091 A 
HETATM   52  N8  UNL     1     -13.992  42.831 -27.881  1.00  0.00    -0.352 N 
ATOM     53  H8  UNL     1     -13.175  42.287 -27.603  1.00  0.00     0.166 HD
ENDBRANCH  43  46
ENDBRANCH  38  40
ENDBRANCH  31  32
ENDBRANCH   4  31
TORSDOF 9
ENDMDL
MODEL 2
REMARK minimizedAffinity -10.5694942
REMARK CNNscore 0.449678242
REMARK CNNaffinity 7.29728317
REMARK  9 active torsions:
REMARK  status: ('A' for Active; 'I' for Inactive)
REMARK    1  A    between atoms: C2_2  and  O1_3 
REMARK    2  A    between atoms: O1_3  and  C3_4 
REMARK    3  A    between atoms: C3_4  and  C4_5 
REMARK       I    between atoms: C4_5  and  N1_7 
REMARK    4  A    between atoms: N1_7  and  C5_8 
REMARK    5  A    between atoms: C9_15  and  C10_16 
REMARK    6  A    between atoms: N4_27  and  C20_28 
REMARK    7  A    between atoms: C20_28  and  C21_29 
REMARK       I    between atoms: C21_29  and  N5_31 
REMARK    8  A    between atoms: N6_34  and  C24_35 
REMARK    9  A    between atoms: C27_38  and  C28_39 
ROOT
HETATM    1  C3  UNL     1      -2.137  48.840 -19.394  1.00  0.00     0.169 C 
HETATM    2  C18 UNL     1      -1.787  47.931 -20.589  1.00  0.00     0.080 C 
HETATM    3  C19 UNL     1      -3.018  47.056 -20.769  1.00  0.00     0.276 C 
HETATM    4  N4  UNL     1      -4.114  47.983 -20.459  1.00  0.00     0.100 N 
HETATM    5  C36 UNL     1      -3.667  48.676 -19.235  1.00  0.00     0.321 C 
ENDROOT
BRANCH   1   6
HETATM    6  O1  UNL     1      -1.433  48.277 -18.279  1.00  0.00    -0.369 OA
BRANCH   6   7
HETATM    7  C2  UNL     1      -1.435  49.063 -17.086  1.00  0.00     0.165 C 
HETATM    8  C1  UNL     1      -0.001  49.456 -16.783  1.00  0.00     0.033 C 
ENDBRANCH   6   7
ENDBRANCH   1   6
BRANCH   1   9
HETATM    9  C4  UNL     1      -1.777  50.329 -19.718  1.00  0.00     0.259 C 
HETATM   10  O2  UNL     1      -2.587  51.232 -19.511  1.00  0.00    -0.270 OA
HETATM   11  N1  UNL     1      -0.499  50.510 -20.244  1.00  0.00    -0.325 N 
HETATM   12  H6  UNL     1       0.109  49.694 -20.269  1.00  0.00     0.169 HD
BRANCH  11  13
HETATM   13  C5  UNL     1       0.074  51.723 -20.688  1.00  0.00     0.035 A 
HETATM   14  C6  UNL     1       0.576  52.700 -19.820  1.00  0.00     0.032 A 
HETATM   15  C7  UNL     1       1.125  53.896 -20.297  1.00  0.00     0.034 A 
HETATM   16  C8  UNL     1       1.178  54.066 -21.681  1.00  0.00     0.060 A 
HETATM   17  N2  UNL     1       1.647  55.097 -22.441  1.00  0.00    -0.299 N 
HETATM   18  C16 UNL     1       0.711  53.120 -22.588  1.00  0.00     0.023 A 
HETATM   19  N3  UNL     1       1.535  54.906 -23.761  1.00  0.00    -0.299 N 
HETATM   20  H9  UNL     1       2.055  55.964 -22.114  1.00  0.00     0.187 HD
HETATM   21  C9  UNL     1       0.988  53.681 -23.880  1.00  0.00     0.070 A 
ATOM     22  H3  UNL     1       1.803  55.545 -24.508  1.00  0.00     0.187 HD
HETATM   23  C17 UNL     1       0.118  51.941 -22.079  1.00  0.00     0.045 A 
BRANCH  21  24
HETATM   24  C10 UNL     1       0.745  53.113 -25.212  1.00  0.00    -0.007 A 
HETATM   25  C11 UNL     1       1.246  51.836 -25.528  1.00  0.00     0.017 A 
HETATM   26  C12 UNL     1       1.015  51.262 -26.779  1.00  0.00     0.043 A 
HETATM   27  C13 UNL     1       0.283  51.967 -27.723  1.00  0.00     0.116 A 
HETATM   28  F1  UNL     1       0.056  51.418 -28.924  1.00  0.00    -0.206 F 
HETATM   29  C14 UNL     1      -0.225  53.229 -27.439  1.00  0.00     0.043 A 
HETATM   30  C15 UNL     1      -0.003  53.799 -26.181  1.00  0.00     0.017 A 
ENDBRANCH  21  24
ENDBRANCH  11  13
ENDBRANCH   1   9
BRANCH   4  31
HETATM   31  C20 UNL     1      -5.395  47.278 -20.222  1.00  0.00     0.374 C 
BRANCH  31  32
HETATM   32  C21 UNL     1      -6.258  47.947 -19.132  1.00  0.00     0.248 C 
HETATM   33  O3  UNL     1      -5.803  48.809 -18.376  1.00  0.00    -0.271 OA
HETATM   34  N5  UNL     1      -7.580  47.526 -19.033  1.00  0.00    -0.348 N 
HETATM   35  C22 UNL     1      -8.178  46.459 -19.846  1.00  0.00     0.145 C 
HETATM   36  C35 UNL     1      -8.489  48.195 -18.105  1.00  0.00     0.145 C 
HETATM   37  C23 UNL     1      -9.620  46.091 -19.447  1.00  0.00     0.143 C 
HETATM   38  N6  UNL     1     -10.460  47.293 -19.373  1.00  0.00    -0.378 N 
HETATM   39  C34 UNL     1      -9.850  48.498 -18.758  1.00  0.00     0.143 C 
BRANCH  38  40
HETATM   40  C24 UNL     1     -11.838  47.234 -19.536  1.00  0.00     0.030 A 
HETATM   41  C25 UNL     1     -12.628  48.382 -19.706  1.00  0.00     0.030 A 
HETATM   42  C26 UNL     1     -14.024  48.313 -19.878  1.00  0.00     0.017 A 
HETATM   43  C27 UNL     1     -14.709  47.088 -19.881  1.00  0.00     0.008 A 
HETATM   44  C32 UNL     1     -13.924  45.938 -19.694  1.00  0.00     0.017 A 
HETATM   45  C33 UNL     1     -12.531  46.013 -19.521  1.00  0.00     0.030 A 
BRANCH  43  46
HETATM   46  C28 UNL     1     -16.172  47.011 -20.087  1.00  0.00     0.115 A 
HETATM   47  N7  UNL     1     -16.973  47.458 -19.091  1.00  0.00    -0.352 N 
HETATM   48  C29 UNL     1     -18.299  47.328 -19.278  1.00  0.00     0.091 A 
ATOM     49  H7  UNL     1     -16.591  47.873 -18.241  1.00  0.00     0.166 HD
HETATM   50  C30 UNL     1     -18.851  46.779 -20.411  1.00  0.00     0.034 A 
HETATM   51  C31 UNL     1     -17.958  46.370 -21.373  1.00  0.00     0.091 A 
HETATM   52  N8  UNL     1     -16.623  46.465 -21.239  1.00  0.00    -0.352 N 
ATOM     53  H8  UNL     1     -15.984  46.144 -21.967  1.00  0.00     0.166 HD
ENDBRANCH  43  46
ENDBRANCH  38  40
ENDBRANCH  31  32
ENDBRANCH   4  31
TORSDOF 9
ENDMDL
MODEL 3
REMARK minimizedAffinity -10.4258614
REMARK CNNscore 0.440084755
REMARK CNNaffinity 7.4922905
REMARK  9 active torsions:
REMARK  status: ('A' for Active; 'I' for Inactive)
REMARK    1  A    between atoms: C2_2  and  O1_3 
REMARK    2  A    between atoms: O1_3  and  C3_4 
REMARK    3  A    between atoms: C3_4  and  C4_5 
REMARK       I    between atoms: C4_5  and  N1_7 
REMARK    4  A    between atoms: N1_7  and  C5_8 
REMARK    5  A    between atoms: C9_15  and  C10_16 
REMARK    6  A    between atoms: N4_27  and  C20_28 
REMARK    7  A    between atoms: C20_28  and  C21_29 
REMARK       I    between atoms: C21_29  and  N5_31 
REMARK    8  A    between atoms: N6_34  and  C24_35 
REMARK    9  A    between atoms: C27_38  and  C28_39 
ROOT
HETATM    1  C3  UNL     1      -1.903  49.262 -18.626  1.00  0.00     0.169 C 
HETATM    2  C18 UNL     1      -3.416  49.165 -18.347  1.00  0.00     0.080 C 
HETATM    3  C19 UNL     1      -3.505  48.479 -16.992  1.00  0.00     0.276 C 
HETATM    4  N4  UNL     1      -2.354  49.041 -16.275  1.00  0.00     0.100 N 
HETATM    5  C36 UNL     1      -1.250  48.974 -17.254  1.00  0.00     0.321 C 
ENDROOT
BRANCH   1   6
HETATM    6  O1  UNL     1      -1.630  48.212 -19.564  1.00  0.00    -0.369 OA
BRANCH   6   7
HETATM    7  C2  UNL     1      -2.633  47.995 -20.557  1.00  0.00     0.165 C 
HETATM    8  C1  UNL     1      -1.947  47.496 -21.814  1.00  0.00     0.033 C 
ENDBRANCH   6   7
ENDBRANCH   1   6
BRANCH   1   9
HETATM    9  C4  UNL     1      -1.529  50.701 -19.118  1.00  0.00     0.259 C 
HETATM   10  O2  UNL     1      -2.285  51.651 -18.916  1.00  0.00    -0.270 OA
HETATM   11  N1  UNL     1      -0.306  50.782 -19.781  1.00  0.00    -0.325 N 
HETATM   12  H6  UNL     1       0.270  49.942 -19.791  1.00  0.00     0.169 HD
BRANCH  11  13
HETATM   13  C5  UNL     1       0.257  51.927 -20.389  1.00  0.00     0.035 A 
HETATM   14  C6  UNL     1       0.917  52.932 -19.671  1.00  0.00     0.032 A 
HETATM   15  C7  UNL     1       1.452  54.060 -20.306  1.00  0.00     0.034 A 
HETATM   16  C8  UNL     1       1.326  54.128 -21.694  1.00  0.00     0.060 A 
HETATM   17  N2  UNL     1       1.736  55.075 -22.586  1.00  0.00    -0.299 N 
HETATM   18  C16 UNL     1       0.697  53.149 -22.458  1.00  0.00     0.023 A 
HETATM   19  N3  UNL     1       1.439  54.799 -23.861  1.00  0.00    -0.299 N 
HETATM   20  H9  UNL     1       2.224  55.939 -22.383  1.00  0.00     0.187 HD
HETATM   21  C9  UNL     1       0.825  53.602 -23.813  1.00  0.00     0.070 A 
ATOM     22  H3  UNL     1       1.634  55.367 -24.685  1.00  0.00     0.187 HD
HETATM   23  C17 UNL     1       0.125  52.044 -21.786  1.00  0.00     0.045 A 
BRANCH  21  24
HETATM   24  C10 UNL     1       0.379  52.956 -25.055  1.00  0.00    -0.007 A 
HETATM   25  C11 UNL     1       0.313  51.552 -25.127  1.00  0.00     0.017 A 
HETATM   26  C12 UNL     1      -0.125  50.911 -26.286  1.00  0.00     0.043 A 
HETATM   27  C13 UNL     1      -0.497  51.673 -27.383  1.00  0.00     0.116 A 
HETATM   28  F1  UNL     1      -0.922  51.062 -28.497  1.00  0.00    -0.206 F 
HETATM   29  C14 UNL     1      -0.444  53.062 -27.341  1.00  0.00     0.043 A 
HETATM   30  C15 UNL     1      -0.015  53.704 -26.174  1.00  0.00     0.017 A 
ENDBRANCH  21  24
ENDBRANCH  11  13
ENDBRANCH   1   9
BRANCH   4  31
HETATM   31  C20 UNL     1      -2.020  48.268 -15.057  1.00  0.00     0.374 C 
BRANCH  31  32
HETATM   32  C21 UNL     1      -2.743  48.788 -13.796  1.00  0.00     0.248 C 
HETATM   33  O3  UNL     1      -3.654  48.154 -13.258  1.00  0.00    -0.271 OA
HETATM   34  N5  UNL     1      -2.323  50.015 -13.294  1.00  0.00    -0.348 N 
HETATM   35  C22 UNL     1      -1.296  50.862 -13.914  1.00  0.00     0.145 C 
HETATM   36  C35 UNL     1      -2.878  50.516 -12.038  1.00  0.00     0.145 C 
HETATM   37  C23 UNL     1      -1.112  52.234 -13.238  1.00  0.00     0.143 C 
HETATM   38  N6  UNL     1      -0.927  52.077 -11.790  1.00  0.00    -0.378 N 
HETATM   39  C34 UNL     1      -1.781  51.071 -11.111  1.00  0.00     0.143 C 
BRANCH  38  40
HETATM   40  C24 UNL     1      -0.261  53.029 -11.029  1.00  0.00     0.030 A 
HETATM   41  C25 UNL     1      -0.937  53.965 -10.230  1.00  0.00     0.030 A 
HETATM   42  C26 UNL     1      -0.254  54.922  -9.455  1.00  0.00     0.017 A 
HETATM   43  C27 UNL     1       1.148  55.002  -9.444  1.00  0.00     0.008 A 
HETATM   44  C32 UNL     1       1.827  54.078 -10.255  1.00  0.00     0.017 A 
HETATM   45  C33 UNL     1       1.140  53.125 -11.028  1.00  0.00     0.030 A 
BRANCH  43  46
HETATM   46  C28 UNL     1       1.868  55.989  -8.612  1.00  0.00     0.115 A 
HETATM   47  N7  UNL     1       1.205  56.531  -7.562  1.00  0.00    -0.352 N 
HETATM   48  C29 UNL     1       1.861  57.467  -6.852  1.00  0.00     0.091 A 
ATOM     49  H7  UNL     1       0.257  56.244  -7.321  1.00  0.00     0.166 HD
HETATM   50  C30 UNL     1       3.141  57.876  -7.144  1.00  0.00     0.034 A 
HETATM   51  C31 UNL     1       3.737  57.256  -8.216  1.00  0.00     0.091 A 
HETATM   52  N8  UNL     1       3.129  56.321  -8.969  1.00  0.00    -0.352 N 
ATOM     53  H8  UNL     1       3.594  55.886  -9.766  1.00  0.00     0.166 HD
ENDBRANCH  43  46
ENDBRANCH  38  40
ENDBRANCH  31  32
ENDBRANCH   4  31
TORSDOF 9
ENDMDL
MODEL 4
REMARK minimizedAffinity -10.4672518
REMARK CNNscore 0.378855437
REMARK CNNaffinity 7.68782043
REMARK  9 active torsions:
REMARK  status: ('A' for Active; 'I' for Inactive)
REMARK    1  A    between atoms: C2_2  and  O1_3 
REMARK    2  A    between atoms: O1_3  and  C3_4 
REMARK    3  A    between atoms: C3_4  and  C4_5 
REMARK       I    between atoms: C4_5  and  N1_7 
REMARK    4  A    between atoms: N1_7  and  C5_8 
REMARK    5  A    between atoms: C9_15  and  C10_16 
REMARK    6  A    between atoms: N4_27  and  C20_28 
REMARK    7  A    between atoms: C20_28  and  C21_29 
REMARK       I    between atoms: C21_29  and  N5_31 
REMARK    8  A    between atoms: N6_34  and  C24_35 
REMARK    9  A    between atoms: C27_38  and  C28_39 
ROOT
HETATM    1  C3  UNL     1      -1.338  51.286 -26.551  1.00  0.00     0.169 C 
HETATM    2  C18 UNL     1      -2.492  51.805 -27.431  1.00  0.00     0.080 C 
HETATM    3  C19 UNL     1      -3.293  50.559 -27.776  1.00  0.00     0.276 C 
HETATM    4  N4  UNL     1      -3.207  49.775 -26.537  1.00  0.00     0.100 N 
HETATM    5  C36 UNL     1      -1.785  49.859 -26.153  1.00  0.00     0.321 C 
ENDROOT
BRANCH   1   6
HETATM    6  O1  UNL     1      -0.195  51.252 -27.417  1.00  0.00    -0.369 OA
BRANCH   6   7
HETATM    7  C2  UNL     1       0.682  52.376 -27.326  1.00  0.00     0.165 C 
HETATM    8  C1  UNL     1       2.108  51.859 -27.340  1.00  0.00     0.033 C 
ENDBRANCH   6   7
ENDBRANCH   1   6
BRANCH   1   9
HETATM    9  C4  UNL     1      -1.176  52.183 -25.279  1.00  0.00     0.259 C 
HETATM   10  O2  UNL     1      -1.953  53.113 -25.060  1.00  0.00    -0.270 OA
HETATM   11  N1  UNL     1      -0.104  51.832 -24.460  1.00  0.00    -0.325 N 
HETATM   12  H6  UNL     1       0.399  50.979 -24.700  1.00  0.00     0.169 HD
BRANCH  11  13
HETATM   13  C5  UNL     1       0.325  52.495 -23.288  1.00  0.00     0.035 A 
HETATM   14  C6  UNL     1       0.947  53.750 -23.299  1.00  0.00     0.032 A 
HETATM   15  C7  UNL     1       1.371  54.371 -22.118  1.00  0.00     0.034 A 
HETATM   16  C8  UNL     1       1.122  53.700 -20.920  1.00  0.00     0.060 A 
HETATM   17  N2  UNL     1       1.403  54.036 -19.629  1.00  0.00    -0.299 N 
HETATM   18  C16 UNL     1       0.490  52.462 -20.851  1.00  0.00     0.023 A 
HETATM   19  N3  UNL     1       1.005  53.133 -18.724  1.00  0.00    -0.299 N 
HETATM   20  H9  UNL     1       1.870  54.872 -19.300  1.00  0.00     0.187 HD
HETATM   21  C9  UNL     1       0.412  52.167 -19.449  1.00  0.00     0.070 A 
ATOM     22  H3  UNL     1       1.125  53.170 -17.712  1.00  0.00     0.187 HD
HETATM   23  C17 UNL     1       0.114  51.835 -22.062  1.00  0.00     0.045 A 
BRANCH  21  24
HETATM   24  C10 UNL     1      -0.185  51.007 -18.775  1.00  0.00    -0.007 A 
HETATM   25  C11 UNL     1       0.043  50.804 -17.401  1.00  0.00     0.017 A 
HETATM   26  C12 UNL     1      -0.527  49.722 -16.729  1.00  0.00     0.043 A 
HETATM   27  C13 UNL     1      -1.326  48.834 -17.430  1.00  0.00     0.116 A 
HETATM   28  F1  UNL     1      -1.879  47.795 -16.788  1.00  0.00    -0.206 F 
HETATM   29  C14 UNL     1      -1.572  49.008 -18.787  1.00  0.00     0.043 A 
HETATM   30  C15 UNL     1      -1.009  50.100 -19.458  1.00  0.00     0.017 A 
ENDBRANCH  21  24
ENDBRANCH  11  13
ENDBRANCH   1   9
BRANCH   4  31
HETATM   31  C20 UNL     1      -3.611  48.364 -26.738  1.00  0.00     0.374 C 
BRANCH  31  32
HETATM   32  C21 UNL     1      -5.131  48.196 -26.951  1.00  0.00     0.248 C 
HETATM   33  O3  UNL     1      -5.947  48.453 -26.061  1.00  0.00    -0.271 OA
HETATM   34  N5  UNL     1      -5.542  47.732 -28.195  1.00  0.00    -0.348 N 
HETATM   35  C22 UNL     1      -4.634  47.338 -29.280  1.00  0.00     0.145 C 
HETATM   36  C35 UNL     1      -6.968  47.659 -28.509  1.00  0.00     0.145 C 
HETATM   37  C23 UNL     1      -5.339  46.729 -30.507  1.00  0.00     0.143 C 
HETATM   38  N6  UNL     1      -6.431  47.599 -30.962  1.00  0.00    -0.378 N 
HETATM   39  C34 UNL     1      -7.273  48.222 -29.910  1.00  0.00     0.143 C 
BRANCH  38  40
HETATM   40  C24 UNL     1      -6.886  47.577 -32.274  1.00  0.00     0.030 A 
HETATM   41  C25 UNL     1      -6.033  47.758 -33.373  1.00  0.00     0.030 A 
HETATM   42  C26 UNL     1      -6.501  47.727 -34.700  1.00  0.00     0.017 A 
HETATM   43  C27 UNL     1      -7.857  47.521 -35.001  1.00  0.00     0.008 A 
HETATM   44  C32 UNL     1      -8.717  47.355 -33.904  1.00  0.00     0.017 A 
HETATM   45  C33 UNL     1      -8.244  47.389 -32.580  1.00  0.00     0.030 A 
BRANCH  43  46
HETATM   46  C28 UNL     1      -8.348  47.462 -36.396  1.00  0.00     0.115 A 
HETATM   47  N7  UNL     1      -7.688  48.191 -37.328  1.00  0.00    -0.352 N 
HETATM   48  C29 UNL     1      -8.185  48.164 -38.577  1.00  0.00     0.091 A 
ATOM     49  H7  UNL     1      -6.855  48.732 -37.094  1.00  0.00     0.166 HD
HETATM   50  C30 UNL     1      -9.301  47.444 -38.931  1.00  0.00     0.034 A 
HETATM   51  C31 UNL     1      -9.892  46.723 -37.920  1.00  0.00     0.091 A 
HETATM   52  N8  UNL     1      -9.447  46.717 -36.651  1.00  0.00    -0.352 N 
ATOM     53  H8  UNL     1      -9.913  46.179 -35.920  1.00  0.00     0.166 HD
ENDBRANCH  43  46
ENDBRANCH  38  40
ENDBRANCH  31  32
ENDBRANCH   4  31
TORSDOF 9
ENDMDL
MODEL 5
REMARK minimizedAffinity -8.70258713
REMARK CNNscore 0.372191608
REMARK CNNaffinity 7.58885336
REMARK  9 active torsions:
REMARK  status: ('A' for Active; 'I' for Inactive)
REMARK    1  A    between atoms: C2_2  and  O1_3 
REMARK    2  A    between atoms: O1_3  and  C3_4 
REMARK    3  A    between atoms: C3_4  and  C4_5 
REMARK       I    between atoms: C4_5  and  N1_7 
REMARK    4  A    between atoms: N1_7  and  C5_8 
REMARK    5  A    between atoms: C9_15  and  C10_16 
REMARK    6  A    between atoms: N4_27  and  C20_28 
REMARK    7  A    between atoms: C20_28  and  C21_29 
REMARK       I    between atoms: C21_29  and  N5_31 
REMARK    8  A    between atoms: N6_34  and  C24_35 
REMARK    9  A    between atoms: C27_38  and  C28_39 
ROOT
HETATM    1  C3  UNL     1       1.149  50.806 -15.184  1.00  0.00     0.169 C 
HETATM    2  C18 UNL     1       0.844  49.354 -14.764  1.00  0.00     0.080 C 
HETATM    3  C19 UNL     1       0.638  49.433 -13.259  1.00  0.00     0.276 C 
HETATM    4  N4  UNL     1      -0.046  50.722 -13.101  1.00  0.00     0.100 N 
HETATM    5  C36 UNL     1       0.720  51.647 -13.960  1.00  0.00     0.321 C 
ENDROOT
BRANCH   1   6
HETATM    6  O1  UNL     1       2.570  50.848 -15.374  1.00  0.00    -0.369 OA
BRANCH   6   7
HETATM    7  C2  UNL     1       3.237  51.972 -14.800  1.00  0.00     0.165 C 
HETATM    8  C1  UNL     1       4.075  52.623 -15.883  1.00  0.00     0.033 C 
ENDBRANCH   6   7
ENDBRANCH   1   6
BRANCH   1   9
HETATM    9  C4  UNL     1       0.303  51.198 -16.442  1.00  0.00     0.259 C 
HETATM   10  O2  UNL     1      -0.927  51.146 -16.416  1.00  0.00    -0.270 OA
HETATM   11  N1  UNL     1       1.060  51.594 -17.543  1.00  0.00    -0.325 N 
HETATM   12  H6  UNL     1       2.064  51.692 -17.402  1.00  0.00     0.169 HD
BRANCH  11  13
HETATM   13  C5  UNL     1       0.579  51.939 -18.827  1.00  0.00     0.035 A 
HETATM   14  C6  UNL     1       0.959  53.105 -19.502  1.00  0.00     0.032 A 
HETATM   15  C7  UNL     1       0.451  53.420 -20.768  1.00  0.00     0.034 A 
HETATM   16  C8  UNL     1      -0.433  52.508 -21.345  1.00  0.00     0.060 A 
HETATM   17  N2  UNL     1      -1.084  52.525 -22.544  1.00  0.00    -0.299 N 
HETATM   18  C16 UNL     1      -0.829  51.326 -20.727  1.00  0.00     0.023 A 
HETATM   19  N3  UNL     1      -1.862  51.459 -22.765  1.00  0.00    -0.299 N 
HETATM   20  H9  UNL     1      -1.039  53.244 -23.256  1.00  0.00     0.187 HD
HETATM   21  C9  UNL     1      -1.699  50.689 -21.673  1.00  0.00     0.070 A 
ATOM     22  H3  UNL     1      -2.447  51.272 -23.579  1.00  0.00     0.187 HD
HETATM   23  C17 UNL     1      -0.337  51.054 -19.429  1.00  0.00     0.045 A 
BRANCH  21  24
HETATM   24  C10 UNL     1      -2.389  49.396 -21.579  1.00  0.00    -0.007 A 
HETATM   25  C11 UNL     1      -3.794  49.348 -21.643  1.00  0.00     0.017 A 
HETATM   26  C12 UNL     1      -4.477  48.133 -21.575  1.00  0.00     0.043 A 
HETATM   27  C13 UNL     1      -3.755  46.957 -21.439  1.00  0.00     0.116 A 
HETATM   28  F1  UNL     1      -4.406  45.787 -21.377  1.00  0.00    -0.206 F 
HETATM   29  C14 UNL     1      -2.366  46.972 -21.374  1.00  0.00     0.043 A 
HETATM   30  C15 UNL     1      -1.682  48.190 -21.454  1.00  0.00     0.017 A 
ENDBRANCH  21  24
ENDBRANCH  11  13
ENDBRANCH   1   9
BRANCH   4  31
HETATM   31  C20 UNL     1      -0.041  51.190 -11.695  1.00  0.00     0.374 C 
BRANCH  31  32
HETATM   32  C21 UNL     1      -0.132  52.726 -11.571  1.00  0.00     0.248 C 
HETATM   33  O3  UNL     1      -1.166  53.343 -11.839  1.00  0.00    -0.271 OA
HETATM   34  N5  UNL     1       1.014  53.389 -11.147  1.00  0.00    -0.348 N 
HETATM   35  C22 UNL     1       2.303  52.739 -10.877  1.00  0.00     0.145 C 
HETATM   36  C35 UNL     1       0.971  54.829 -10.893  1.00  0.00     0.145 C 
HETATM   37  C23 UNL     1       3.450  53.714 -10.553  1.00  0.00     0.143 C 
HETATM   38  N6  UNL     1       3.051  54.653  -9.498  1.00  0.00    -0.378 N 
HETATM   39  C34 UNL     1       1.672  55.196  -9.573  1.00  0.00     0.143 C 
BRANCH  38  40
HETATM   40  C24 UNL     1       3.984  55.276  -8.680  1.00  0.00     0.030 A 
HETATM   41  C25 UNL     1       3.707  56.464  -7.986  1.00  0.00     0.030 A 
HETATM   42  C26 UNL     1       4.657  57.085  -7.152  1.00  0.00     0.017 A 
HETATM   43  C27 UNL     1       5.944  56.553  -6.973  1.00  0.00     0.008 A 
HETATM   44  C32 UNL     1       6.230  55.373  -7.678  1.00  0.00     0.017 A 
HETATM   45  C33 UNL     1       5.279  54.758  -8.510  1.00  0.00     0.030 A 
BRANCH  43  46
HETATM   46  C28 UNL     1       6.935  57.189  -6.077  1.00  0.00     0.115 A 
HETATM   47  N7  UNL     1       6.666  58.438  -5.625  1.00  0.00    -0.352 N 
HETATM   48  C29 UNL     1       7.606  59.017  -4.857  1.00  0.00     0.091 A 
ATOM     49  H7  UNL     1       5.794  58.915  -5.856  1.00  0.00     0.166 HD
HETATM   50  C30 UNL     1       8.790  58.404  -4.522  1.00  0.00     0.034 A 
HETATM   51  C31 UNL     1       8.964  57.132  -5.013  1.00  0.00     0.091 A 
HETATM   52  N8  UNL     1       8.065  56.504  -5.793  1.00  0.00    -0.352 N 
ATOM     53  H8  UNL     1       8.228  55.563  -6.151  1.00  0.00     0.166 HD
ENDBRANCH  43  46
ENDBRANCH  38  40
ENDBRANCH  31  32
ENDBRANCH   4  31
TORSDOF 9
ENDMDL
MODEL 6
REMARK minimizedAffinity -8.75909615
REMARK CNNscore 0.330342621
REMARK CNNaffinity 7.12295961
REMARK  9 active torsions:
REMARK  status: ('A' for Active; 'I' for Inactive)
REMARK    1  A    between atoms: C2_2  and  O1_3 
REMARK    2  A    between atoms: O1_3  and  C3_4 
REMARK    3  A    between atoms: C3_4  and  C4_5 
REMARK       I    between atoms: C4_5  and  N1_7 
REMARK    4  A    between atoms: N1_7  and  C5_8 
REMARK    5  A    between atoms: C9_15  and  C10_16 
REMARK    6  A    between atoms: N4_27  and  C20_28 
REMARK    7  A    between atoms: C20_28  and  C21_29 
REMARK       I    between atoms: C21_29  and  N5_31 
REMARK    8  A    between atoms: N6_34  and  C24_35 
REMARK    9  A    between atoms: C27_38  and  C28_39 
ROOT
HETATM    1  C3  UNL     1      -3.010  49.018 -19.828  1.00  0.00     0.169 C 
HETATM    2  C18 UNL     1      -2.359  48.026 -20.813  1.00  0.00     0.080 C 
HETATM    3  C19 UNL     1      -3.523  47.203 -21.343  1.00  0.00     0.276 C 
HETATM    4  N4  UNL     1      -4.599  48.198 -21.434  1.00  0.00     0.100 N 
HETATM    5  C36 UNL     1      -4.519  48.936 -20.158  1.00  0.00     0.321 C 
ENDROOT
BRANCH   1   6
HETATM    6  O1  UNL     1      -2.731  48.484 -18.526  1.00  0.00    -0.369 OA
BRANCH   6   7
HETATM    7  C2  UNL     1      -3.111  49.313 -17.426  1.00  0.00     0.165 C 
HETATM    8  C1  UNL     1      -3.039  48.475 -16.163  1.00  0.00     0.033 C 
ENDBRANCH   6   7
ENDBRANCH   1   6
BRANCH   1   9
HETATM    9  C4  UNL     1      -2.473  50.467 -20.077  1.00  0.00     0.259 C 
HETATM   10  O2  UNL     1      -3.212  51.443 -19.950  1.00  0.00    -0.270 OA
HETATM   11  N1  UNL     1      -1.129  50.527 -20.442  1.00  0.00    -0.325 N 
HETATM   12  H6  UNL     1      -0.603  49.655 -20.411  1.00  0.00     0.169 HD
BRANCH  11  13
HETATM   13  C5  UNL     1      -0.393  51.682 -20.791  1.00  0.00     0.035 A 
HETATM   14  C6  UNL     1       0.136  52.570 -19.847  1.00  0.00     0.032 A 
HETATM   15  C7  UNL     1       0.849  53.713 -20.230  1.00  0.00     0.034 A 
HETATM   16  C8  UNL     1       1.037  53.917 -21.598  1.00  0.00     0.060 A 
HETATM   17  N2  UNL     1       1.677  54.912 -22.276  1.00  0.00    -0.299 N 
HETATM   18  C16 UNL     1       0.549  53.057 -22.577  1.00  0.00     0.023 A 
HETATM   19  N3  UNL     1       1.658  54.775 -23.607  1.00  0.00    -0.299 N 
HETATM   20  H9  UNL     1       2.147  55.719 -21.883  1.00  0.00     0.187 HD
HETATM   21  C9  UNL     1       0.995  53.623 -23.818  1.00  0.00     0.070 A 
ATOM     22  H3  UNL     1       2.056  55.402 -24.305  1.00  0.00     0.187 HD
HETATM   23  C17 UNL     1      -0.207  51.936 -22.164  1.00  0.00     0.045 A 
BRANCH  21  24
HETATM   24  C10 UNL     1       0.806  53.125 -25.187  1.00  0.00    -0.007 A 
HETATM   25  C11 UNL     1       1.397  51.908 -25.575  1.00  0.00     0.017 A 
HETATM   26  C12 UNL     1       1.220  51.401 -26.863  1.00  0.00     0.043 A 
HETATM   27  C13 UNL     1       0.452  52.112 -27.772  1.00  0.00     0.116 A 
HETATM   28  F1  UNL     1       0.276  51.627 -29.009  1.00  0.00    -0.206 F 
HETATM   29  C14 UNL     1      -0.146  53.316 -27.417  1.00  0.00     0.043 A 
HETATM   30  C15 UNL     1       0.023  53.819 -26.122  1.00  0.00     0.017 A 
ENDBRANCH  21  24
ENDBRANCH  11  13
ENDBRANCH   1   9
BRANCH   4  31
HETATM   31  C20 UNL     1      -5.931  47.569 -21.591  1.00  0.00     0.374 C 
BRANCH  31  32
HETATM   32  C21 UNL     1      -6.586  47.877 -22.954  1.00  0.00     0.248 C 
HETATM   33  O3  UNL     1      -6.313  48.896 -23.595  1.00  0.00    -0.271 OA
HETATM   34  N5  UNL     1      -7.510  46.953 -23.429  1.00  0.00    -0.348 N 
HETATM   35  C22 UNL     1      -7.941  45.754 -22.698  1.00  0.00     0.145 C 
HETATM   36  C35 UNL     1      -8.083  47.117 -24.764  1.00  0.00     0.145 C 
HETATM   37  C23 UNL     1      -9.075  44.968 -23.382  1.00  0.00     0.143 C 
HETATM   38  N6  UNL     1      -8.742  44.693 -24.785  1.00  0.00    -0.378 N 
HETATM   39  C34 UNL     1      -8.094  45.791 -25.546  1.00  0.00     0.143 C 
BRANCH  38  40
HETATM   40  C24 UNL     1      -9.298  43.623 -25.475  1.00  0.00     0.030 A 
HETATM   41  C25 UNL     1      -9.390  42.336 -24.924  1.00  0.00     0.030 A 
HETATM   42  C26 UNL     1      -9.962  41.258 -25.626  1.00  0.00     0.017 A 
HETATM   43  C27 UNL     1     -10.469  41.409 -26.927  1.00  0.00     0.008 A 
HETATM   44  C32 UNL     1     -10.365  42.692 -27.488  1.00  0.00     0.017 A 
HETATM   45  C33 UNL     1      -9.791  43.764 -26.782  1.00  0.00     0.030 A 
BRANCH  43  46
HETATM   46  C28 UNL     1     -11.094  40.285 -27.657  1.00  0.00     0.115 A 
HETATM   47  N7  UNL     1     -10.517  39.064 -27.549  1.00  0.00    -0.352 N 
HETATM   48  C29 UNL     1     -11.071  38.069 -28.265  1.00  0.00     0.091 A 
ATOM     49  H7  UNL     1      -9.704  38.907 -26.954  1.00  0.00     0.166 HD
HETATM   50  C30 UNL     1     -12.170  38.242 -29.074  1.00  0.00     0.034 A 
HETATM   51  C31 UNL     1     -12.695  39.512 -29.105  1.00  0.00     0.091 A 
HETATM   52  N8  UNL     1     -12.180  40.548 -28.419  1.00  0.00    -0.352 N 
ATOM     53  H8  UNL     1     -12.586  41.482 -28.471  1.00  0.00     0.166 HD
ENDBRANCH  43  46
ENDBRANCH  38  40
ENDBRANCH  31  32
ENDBRANCH   4  31
TORSDOF 9
ENDMDL
MODEL 7
REMARK minimizedAffinity -10.2779417
REMARK CNNscore 0.310501218
REMARK CNNaffinity 7.27898264
REMARK  9 active torsions:
REMARK  status: ('A' for Active; 'I' for Inactive)
REMARK    1  A    between atoms: C2_2  and  O1_3 
REMARK    2  A    between atoms: O1_3  and  C3_4 
REMARK    3  A    between atoms: C3_4  and  C4_5 
REMARK       I    between atoms: C4_5  and  N1_7 
REMARK    4  A    between atoms: N1_7  and  C5_8 
REMARK    5  A    between atoms: C9_15  and  C10_16 
REMARK    6  A    between atoms: N4_27  and  C20_28 
REMARK    7  A    between atoms: C20_28  and  C21_29 
REMARK       I    between atoms: C21_29  and  N5_31 
REMARK    8  A    between atoms: N6_34  and  C24_35 
REMARK    9  A    between atoms: C27_38  and  C28_39 
ROOT
HETATM    1  C3  UNL     1      -2.551  49.379 -18.911  1.00  0.00     0.169 C 
HETATM    2  C18 UNL     1      -2.107  48.366 -19.985  1.00  0.00     0.080 C 
HETATM    3  C19 UNL     1      -3.377  47.604 -20.332  1.00  0.00     0.276 C 
HETATM    4  N4  UNL     1      -4.404  48.651 -20.257  1.00  0.00     0.100 N 
HETATM    5  C36 UNL     1      -4.094  49.374 -19.008  1.00  0.00     0.321 C 
ENDROOT
BRANCH   1   6
HETATM    6  O1  UNL     1      -2.104  48.823 -17.667  1.00  0.00    -0.369 OA
BRANCH   6   7
HETATM    7  C2  UNL     1      -1.375  49.711 -16.819  1.00  0.00     0.165 C 
HETATM    8  C1  UNL     1       0.012  49.133 -16.617  1.00  0.00     0.033 C 
ENDBRANCH   6   7
ENDBRANCH   1   6
BRANCH   1   9
HETATM    9  C4  UNL     1      -1.987  50.803 -19.238  1.00  0.00     0.259 C 
HETATM   10  O2  UNL     1      -2.572  51.815 -18.855  1.00  0.00    -0.270 OA
HETATM   11  N1  UNL     1      -0.805  50.797 -19.977  1.00  0.00    -0.325 N 
HETATM   12  H6  UNL     1      -0.369  49.892 -20.143  1.00  0.00     0.169 HD
BRANCH  11  13
HETATM   13  C5  UNL     1      -0.106  51.921 -20.471  1.00  0.00     0.035 A 
HETATM   14  C6  UNL     1       0.514  52.866 -19.644  1.00  0.00     0.032 A 
HETATM   15  C7  UNL     1       1.187  53.975 -20.169  1.00  0.00     0.034 A 
HETATM   16  C8  UNL     1       1.241  54.088 -21.559  1.00  0.00     0.060 A 
HETATM   17  N2  UNL     1       1.814  55.032 -22.361  1.00  0.00    -0.299 N 
HETATM   18  C16 UNL     1       0.660  53.169 -22.427  1.00  0.00     0.023 A 
HETATM   19  N3  UNL     1       1.665  54.807 -23.671  1.00  0.00    -0.299 N 
HETATM   20  H9  UNL     1       2.321  55.859 -22.069  1.00  0.00     0.187 HD
HETATM   21  C9  UNL     1       0.983  53.648 -23.741  1.00  0.00     0.070 A 
ATOM     22  H3  UNL     1       1.994  55.384 -24.445  1.00  0.00     0.187 HD
HETATM   23  C17 UNL     1      -0.054  52.083 -21.869  1.00  0.00     0.045 A 
BRANCH  21  24
HETATM   24  C10 UNL     1       0.662  53.064 -25.049  1.00  0.00    -0.007 A 
HETATM   25  C11 UNL     1       1.057  51.745 -25.340  1.00  0.00     0.017 A 
HETATM   26  C12 UNL     1       0.750  51.156 -26.567  1.00  0.00     0.043 A 
HETATM   27  C13 UNL     1       0.047  51.886 -27.512  1.00  0.00     0.116 A 
HETATM   28  F1  UNL     1      -0.255  51.323 -28.691  1.00  0.00    -0.206 F 
HETATM   29  C14 UNL     1      -0.359  53.190 -27.253  1.00  0.00     0.043 A 
HETATM   30  C15 UNL     1      -0.060  53.776 -26.018  1.00  0.00     0.017 A 
ENDBRANCH  21  24
ENDBRANCH  11  13
ENDBRANCH   1   9
BRANCH   4  31
HETATM   31  C20 UNL     1      -5.774  48.089 -20.210  1.00  0.00     0.374 C 
BRANCH  31  32
HETATM   32  C21 UNL     1      -6.763  48.833 -21.132  1.00  0.00     0.248 C 
HETATM   33  O3  UNL     1      -7.169  49.969 -20.873  1.00  0.00    -0.271 OA
HETATM   34  N5  UNL     1      -7.185  48.159 -22.272  1.00  0.00    -0.348 N 
HETATM   35  C22 UNL     1      -6.805  46.783 -22.616  1.00  0.00     0.145 C 
HETATM   36  C35 UNL     1      -8.028  48.843 -23.252  1.00  0.00     0.145 C 
HETATM   37  C23 UNL     1      -7.516  46.221 -23.861  1.00  0.00     0.143 C 
HETATM   38  N6  UNL     1      -7.392  47.148 -24.992  1.00  0.00    -0.378 N 
HETATM   39  C34 UNL     1      -7.545  48.594 -24.692  1.00  0.00     0.143 C 
BRANCH  38  40
HETATM   40  C24 UNL     1      -7.476  46.714 -26.309  1.00  0.00     0.030 A 
HETATM   41  C25 UNL     1      -8.130  45.527 -26.672  1.00  0.00     0.030 A 
HETATM   42  C26 UNL     1      -8.218  45.097 -28.010  1.00  0.00     0.017 A 
HETATM   43  C27 UNL     1      -7.647  45.832 -29.062  1.00  0.00     0.008 A 
HETATM   44  C32 UNL     1      -6.977  47.013 -28.701  1.00  0.00     0.017 A 
HETATM   45  C33 UNL     1      -6.891  47.436 -27.363  1.00  0.00     0.030 A 
BRANCH  43  46
HETATM   46  C28 UNL     1      -7.760  45.397 -30.471  1.00  0.00     0.115 A 
HETATM   47  N7  UNL     1      -7.108  46.124 -31.409  1.00  0.00    -0.352 N 
HETATM   48  C29 UNL     1      -7.269  45.741 -32.688  1.00  0.00     0.091 A 
ATOM     49  H7  UNL     1      -6.523  46.921 -31.159  1.00  0.00     0.166 HD
HETATM   50  C30 UNL     1      -8.045  44.670 -33.064  1.00  0.00     0.034 A 
HETATM   51  C31 UNL     1      -8.653  43.984 -32.040  1.00  0.00     0.091 A 
HETATM   52  N8  UNL     1      -8.537  44.324 -30.743  1.00  0.00    -0.352 N 
ATOM     53  H8  UNL     1      -9.009  43.801 -30.006  1.00  0.00     0.166 HD
ENDBRANCH  43  46
ENDBRANCH  38  40
ENDBRANCH  31  32
ENDBRANCH   4  31
TORSDOF 9
ENDMDL
MODEL 8
REMARK minimizedAffinity -10.5947609
REMARK CNNscore 0.30001092
REMARK CNNaffinity 7.58134079
REMARK  9 active torsions:
REMARK  status: ('A' for Active; 'I' for Inactive)
REMARK    1  A    between atoms: C2_2  and  O1_3 
REMARK    2  A    between atoms: O1_3  and  C3_4 
REMARK    3  A    between atoms: C3_4  and  C4_5 
REMARK       I    between atoms: C4_5  and  N1_7 
REMARK    4  A    between atoms: N1_7  and  C5_8 
REMARK    5  A    between atoms: C9_15  and  C10_16 
REMARK    6  A    between atoms: N4_27  and  C20_28 
REMARK    7  A    between atoms: C20_28  and  C21_29 
REMARK       I    between atoms: C21_29  and  N5_31 
REMARK    8  A    between atoms: N6_34  and  C24_35 
REMARK    9  A    between atoms: C27_38  and  C28_39 
ROOT
HETATM    1  C3  UNL     1      -1.054  51.484 -26.444  1.00  0.00     0.169 C 
HETATM    2  C18 UNL     1      -2.053  52.156 -27.406  1.00  0.00     0.080 C 
HETATM    3  C19 UNL     1      -3.102  51.086 -27.667  1.00  0.00     0.276 C 
HETATM    4  N4  UNL     1      -3.208  50.422 -26.362  1.00  0.00     0.100 N 
HETATM    5  C36 UNL     1      -1.807  50.232 -25.938  1.00  0.00     0.321 C 
ENDROOT
BRANCH   1   6
HETATM    6  O1  UNL     1       0.067  51.123 -27.264  1.00  0.00    -0.369 OA
BRANCH   6   7
HETATM    7  C2  UNL     1       1.091  52.112 -27.381  1.00  0.00     0.165 C 
HETATM    8  C1  UNL     1       2.365  51.538 -26.792  1.00  0.00     0.033 C 
ENDBRANCH   6   7
ENDBRANCH   1   6
BRANCH   1   9
HETATM    9  C4  UNL     1      -0.717  52.441 -25.251  1.00  0.00     0.259 C 
HETATM   10  O2  UNL     1      -0.895  53.655 -25.348  1.00  0.00    -0.270 OA
HETATM   11  N1  UNL     1      -0.216  51.797 -24.122  1.00  0.00    -0.325 N 
HETATM   12  H6  UNL     1      -0.215  50.778 -24.134  1.00  0.00     0.169 HD
BRANCH  11  13
HETATM   13  C5  UNL     1       0.233  52.402 -22.926  1.00  0.00     0.035 A 
HETATM   14  C6  UNL     1       0.940  53.610 -22.894  1.00  0.00     0.032 A 
HETATM   15  C7  UNL     1       1.381  54.174 -21.690  1.00  0.00     0.034 A 
HETATM   16  C8  UNL     1       1.061  53.494 -20.515  1.00  0.00     0.060 A 
HETATM   17  N2  UNL     1       1.337  53.780 -19.210  1.00  0.00    -0.299 N 
HETATM   18  C16 UNL     1       0.344  52.302 -20.488  1.00  0.00     0.023 A 
HETATM   19  N3  UNL     1       0.859  52.887 -18.335  1.00  0.00    -0.299 N 
HETATM   20  H9  UNL     1       1.853  54.575 -18.852  1.00  0.00     0.187 HD
HETATM   21  C9  UNL     1       0.216  51.981 -19.095  1.00  0.00     0.070 A 
ATOM     22  H3  UNL     1       0.960  52.892 -17.321  1.00  0.00     0.187 HD
HETATM   23  C17 UNL     1      -0.049  51.730 -21.720  1.00  0.00     0.045 A 
BRANCH  21  24
HETATM   24  C10 UNL     1      -0.474  50.850 -18.460  1.00  0.00    -0.007 A 
HETATM   25  C11 UNL     1      -1.752  50.470 -18.912  1.00  0.00     0.017 A 
HETATM   26  C12 UNL     1      -2.424  49.389 -18.342  1.00  0.00     0.043 A 
HETATM   27  C13 UNL     1      -1.821  48.682 -17.313  1.00  0.00     0.116 A 
HETATM   28  F1  UNL     1      -2.461  47.640 -16.765  1.00  0.00    -0.206 F 
HETATM   29  C14 UNL     1      -0.559  49.032 -16.847  1.00  0.00     0.043 A 
HETATM   30  C15 UNL     1       0.119  50.110 -17.427  1.00  0.00     0.017 A 
ENDBRANCH  21  24
ENDBRANCH  11  13
ENDBRANCH   1   9
BRANCH   4  31
HETATM   31  C20 UNL     1      -3.908  49.120 -26.451  1.00  0.00     0.374 C 
BRANCH  31  32
HETATM   32  C21 UNL     1      -4.528  48.675 -25.109  1.00  0.00     0.248 C 
HETATM   33  O3  UNL     1      -3.959  48.868 -24.032  1.00  0.00    -0.271 OA
HETATM   34  N5  UNL     1      -5.762  48.038 -25.170  1.00  0.00    -0.348 N 
HETATM   35  C22 UNL     1      -6.471  47.709 -26.414  1.00  0.00     0.145 C 
HETATM   36  C35 UNL     1      -6.465  47.694 -23.935  1.00  0.00     0.145 C 
HETATM   37  C23 UNL     1      -7.754  46.881 -26.213  1.00  0.00     0.143 C 
HETATM   38  N6  UNL     1      -8.622  47.506 -25.207  1.00  0.00    -0.378 N 
HETATM   39  C34 UNL     1      -7.957  48.067 -24.005  1.00  0.00     0.143 C 
BRANCH  38  40
HETATM   40  C24 UNL     1      -9.994  47.289 -25.188  1.00  0.00     0.030 A 
HETATM   41  C25 UNL     1     -10.664  46.792 -24.059  1.00  0.00     0.030 A 
HETATM   42  C26 UNL     1     -12.056  46.583 -24.044  1.00  0.00     0.017 A 
HETATM   43  C27 UNL     1     -12.856  46.852 -25.166  1.00  0.00     0.008 A 
HETATM   44  C32 UNL     1     -12.187  47.334 -26.303  1.00  0.00     0.017 A 
HETATM   45  C33 UNL     1     -10.796  47.540 -26.313  1.00  0.00     0.030 A 
BRANCH  43  46
HETATM   46  C28 UNL     1     -14.323  46.658 -25.146  1.00  0.00     0.115 A 
HETATM   47  N7  UNL     1     -15.019  47.218 -24.128  1.00  0.00    -0.352 N 
HETATM   48  C29 UNL     1     -16.342  46.982 -24.100  1.00  0.00     0.091 A 
ATOM     49  H7  UNL     1     -14.562  47.791 -23.418  1.00  0.00     0.166 HD
HETATM   50  C30 UNL     1     -16.993  46.220 -25.041  1.00  0.00     0.034 A 
HETATM   51  C31 UNL     1     -16.205  45.708 -26.044  1.00  0.00     0.091 A 
HETATM   52  N8  UNL     1     -14.876  45.901 -26.120  1.00  0.00    -0.352 N 
ATOM     53  H8  UNL     1     -14.316  45.499 -26.872  1.00  0.00     0.166 HD
ENDBRANCH  43  46
ENDBRANCH  38  40
ENDBRANCH  31  32
ENDBRANCH   4  31
TORSDOF 9
ENDMDL
MODEL 9
REMARK minimizedAffinity -9.36149311
REMARK CNNscore 0.284958422
REMARK CNNaffinity 6.98805809
REMARK  9 active torsions:
REMARK  status: ('A' for Active; 'I' for Inactive)
REMARK    1  A    between atoms: C2_2  and  O1_3 
REMARK    2  A    between atoms: O1_3  and  C3_4 
REMARK    3  A    between atoms: C3_4  and  C4_5 
REMARK       I    between atoms: C4_5  and  N1_7 
REMARK    4  A    between atoms: N1_7  and  C5_8 
REMARK    5  A    between atoms: C9_15  and  C10_16 
REMARK    6  A    between atoms: N4_27  and  C20_28 
REMARK    7  A    between atoms: C20_28  and  C21_29 
REMARK       I    between atoms: C21_29  and  N5_31 
REMARK    8  A    between atoms: N6_34  and  C24_35 
REMARK    9  A    between atoms: C27_38  and  C28_39 
ROOT
HETATM    1  C3  UNL     1      -2.814  48.904 -19.792  1.00  0.00     0.169 C 
HETATM    2  C18 UNL     1      -1.891  47.888 -20.492  1.00  0.00     0.080 C 
HETATM    3  C19 UNL     1      -2.844  46.955 -21.224  1.00  0.00     0.276 C 
HETATM    4  N4  UNL     1      -3.903  47.870 -21.669  1.00  0.00     0.100 N 
HETATM    5  C36 UNL     1      -4.183  48.703 -20.483  1.00  0.00     0.321 C 
ENDROOT
BRANCH   1   6
HETATM    6  O1  UNL     1      -2.856  48.486 -18.420  1.00  0.00    -0.369 OA
BRANCH   6   7
HETATM    7  C2  UNL     1      -1.729  48.860 -17.626  1.00  0.00     0.165 C 
HETATM    8  C1  UNL     1      -2.055  48.554 -16.177  1.00  0.00     0.033 C 
ENDBRANCH   6   7
ENDBRANCH   1   6
BRANCH   1   9
HETATM    9  C4  UNL     1      -2.294  50.363 -20.022  1.00  0.00     0.259 C 
HETATM   10  O2  UNL     1      -3.029  51.331 -19.831  1.00  0.00    -0.270 OA
HETATM   11  N1  UNL     1      -0.970  50.440 -20.448  1.00  0.00    -0.325 N 
HETATM   12  H6  UNL     1      -0.440  49.570 -20.468  1.00  0.00     0.169 HD
BRANCH  11  13
HETATM   13  C5  UNL     1      -0.255  51.609 -20.796  1.00  0.00     0.035 A 
HETATM   14  C6  UNL     1       0.298  52.481 -19.851  1.00  0.00     0.032 A 
HETATM   15  C7  UNL     1       0.989  53.638 -20.233  1.00  0.00     0.034 A 
HETATM   16  C8  UNL     1       1.130  53.873 -21.601  1.00  0.00     0.060 A 
HETATM   17  N2  UNL     1       1.740  54.887 -22.279  1.00  0.00    -0.299 N 
HETATM   18  C16 UNL     1       0.617  53.029 -22.582  1.00  0.00     0.023 A 
HETATM   19  N3  UNL     1       1.677  54.778 -23.612  1.00  0.00    -0.299 N 
HETATM   20  H9  UNL     1       2.216  55.690 -21.885  1.00  0.00     0.187 HD
HETATM   21  C9  UNL     1       1.017  53.625 -23.825  1.00  0.00     0.070 A 
ATOM     22  H3  UNL     1       2.047  55.423 -24.309  1.00  0.00     0.187 HD
HETATM   23  C17 UNL     1      -0.116  51.893 -22.168  1.00  0.00     0.045 A 
BRANCH  21  24
HETATM   24  C10 UNL     1       0.787  53.155 -25.197  1.00  0.00    -0.007 A 
HETATM   25  C11 UNL     1       1.342  51.932 -25.619  1.00  0.00     0.017 A 
HETATM   26  C12 UNL     1       1.125  51.450 -26.910  1.00  0.00     0.043 A 
HETATM   27  C13 UNL     1       0.353  52.193 -27.790  1.00  0.00     0.116 A 
HETATM   28  F1  UNL     1       0.139  51.733 -29.030  1.00  0.00    -0.206 F 
HETATM   29  C14 UNL     1      -0.210  53.404 -27.402  1.00  0.00     0.043 A 
HETATM   30  C15 UNL     1      -0.001  53.880 -26.103  1.00  0.00     0.017 A 
ENDBRANCH  21  24
ENDBRANCH  11  13
ENDBRANCH   1   9
BRANCH   4  31
HETATM   31  C20 UNL     1      -5.122  47.149 -22.101  1.00  0.00     0.374 C 
BRANCH  31  32
HETATM   32  C21 UNL     1      -5.858  47.850 -23.262  1.00  0.00     0.248 C 
HETATM   33  O3  UNL     1      -5.254  48.488 -24.128  1.00  0.00    -0.271 OA
HETATM   34  N5  UNL     1      -7.244  47.737 -23.284  1.00  0.00    -0.348 N 
HETATM   35  C22 UNL     1      -8.042  47.057 -22.256  1.00  0.00     0.145 C 
HETATM   36  C35 UNL     1      -8.000  48.274 -24.414  1.00  0.00     0.145 C 
HETATM   37  C23 UNL     1      -9.565  47.191 -22.443  1.00  0.00     0.143 C 
HETATM   38  N6  UNL     1      -9.954  46.818 -23.809  1.00  0.00    -0.378 N 
HETATM   39  C34 UNL     1      -9.071  47.284 -24.907  1.00  0.00     0.143 C 
BRANCH  38  40
HETATM   40  C24 UNL     1     -11.233  46.367 -24.109  1.00  0.00     0.030 A 
HETATM   41  C25 UNL     1     -11.875  45.367 -23.363  1.00  0.00     0.030 A 
HETATM   42  C26 UNL     1     -13.176  44.921 -23.669  1.00  0.00     0.017 A 
HETATM   43  C27 UNL     1     -13.903  45.448 -24.748  1.00  0.00     0.008 A 
HETATM   44  C32 UNL     1     -13.258  46.438 -25.507  1.00  0.00     0.017 A 
HETATM   45  C33 UNL     1     -11.959  46.879 -25.197  1.00  0.00     0.030 A 
BRANCH  43  46
HETATM   46  C28 UNL     1     -15.279  45.000 -25.056  1.00  0.00     0.115 A 
HETATM   47  N7  UNL     1     -15.555  43.680 -24.931  1.00  0.00    -0.352 N 
HETATM   48  C29 UNL     1     -16.796  43.289 -25.269  1.00  0.00     0.091 A 
ATOM     49  H7  UNL     1     -14.856  43.016 -24.597  1.00  0.00     0.166 HD
HETATM   50  C30 UNL     1     -17.765  44.154 -25.719  1.00  0.00     0.034 A 
HETATM   51  C31 UNL     1     -17.396  45.476 -25.796  1.00  0.00     0.091 A 
HETATM   52  N8  UNL     1     -16.168  45.927 -25.481  1.00  0.00    -0.352 N 
ATOM     53  H8  UNL     1     -15.921  46.913 -25.558  1.00  0.00     0.166 HD
ENDBRANCH  43  46
ENDBRANCH  38  40
ENDBRANCH  31  32
ENDBRANCH   4  31
TORSDOF 9
ENDMDL
