MODEL 1
REMARK minimizedAffinity -10.5437031
REMARK CNNscore 0.549467385
REMARK CNNaffinity 7.65880013
REMARK  6 active torsions:
REMARK  status: ('A' for Active; 'I' for Inactive)
REMARK    1  A    between atoms: O1_2  and  C2_3 
REMARK    2  A    between atoms: C7_9  and  C8_10 
REMARK    3  A    between atoms: C8_10  and  N1_11 
REMARK    4  A    between atoms: C12_15  and  N2_16 
REMARK       I    between atoms: N2_16  and  C13_17 
REMARK       I    between atoms: C13_17  and  N3_19 
REMARK    5  A    between atoms: N3_19  and  C14_20 
REMARK    6  A    between atoms: C17_26  and  C18_27 
ROOT
HETATM    1  C14 UNL     1       0.709  52.534 -19.714  1.00  0.00     0.111 A 
HETATM    2  C15 UNL     1       1.102  53.266 -20.836  1.00  0.00     0.080 A 
HETATM    3  C16 UNL     1       0.569  52.837 -22.053  1.00  0.00     0.065 A 
HETATM    4  N4  UNL     1       0.713  53.294 -23.332  1.00  0.00    -0.299 N 
HETATM    5  N5  UNL     1      -0.008  52.622 -24.241  1.00  0.00    -0.299 N 
ATOM      6  H5  UNL     1      -0.070  52.798 -25.244  1.00  0.00     0.187 HD
HETATM    7  C17 UNL     1      -0.629  51.665 -23.533  1.00  0.00     0.072 A 
HETATM    8  C26 UNL     1      -0.297  51.756 -22.149  1.00  0.00     0.036 A 
HETATM    9  C27 UNL     1      -0.636  51.079 -20.977  1.00  0.00     0.105 A 
HETATM   10  N8  UNL     1      -0.115  51.473 -19.787  1.00  0.00    -0.351 N 
ATOM     11  H8  UNL     1      -0.352  50.960 -18.938  1.00  0.00     0.166 HD
HETATM   12  H19 UNL     1       1.268  54.080 -23.650  1.00  0.00     0.187 HD
ENDROOT
BRANCH   1  13
HETATM   13  N3  UNL     1       1.210  52.966 -18.478  1.00  0.00    -0.295 N 
HETATM   14  C13 UNL     1       1.198  52.242 -17.307  1.00  0.00     0.322 C 
HETATM   15  N2  UNL     1       1.737  52.996 -16.275  1.00  0.00    -0.337 N 
HETATM   16  O2  UNL     1       0.778  51.108 -17.131  1.00  0.00    -0.247 OA
HETATM   17  H16 UNL     1       2.458  53.646 -16.545  1.00  0.00     0.164 HD
HETATM   18  H17 UNL     1       1.484  53.929 -18.405  1.00  0.00     0.172 HD
BRANCH  15  19
HETATM   19  C12 UNL     1       1.857  52.434 -14.928  1.00  0.00     0.114 C 
HETATM   20  C11 UNL     1       2.600  51.098 -15.002  1.00  0.00     0.029 C 
HETATM   21  C10 UNL     1       2.638  50.429 -13.637  1.00  0.00     0.032 C 
HETATM   22  C9  UNL     1       1.230  50.273 -13.057  1.00  0.00     0.273 C 
HETATM   23  N1  UNL     1       0.553  51.571 -12.947  1.00  0.00     0.094 N 
HETATM   24  C28 UNL     1       0.475  52.253 -14.253  1.00  0.00     0.297 C 
BRANCH  23  25
HETATM   25  C8  UNL     1      -0.804  51.437 -12.374  1.00  0.00     0.317 C 
BRANCH  25  26
HETATM   26  C7  UNL     1      -1.254  52.646 -11.586  1.00  0.00     0.042 A 
HETATM   27  C2  UNL     1      -2.612  52.914 -11.351  1.00  0.00     0.079 A 
HETATM   28  C3  UNL     1      -2.991  54.048 -10.618  1.00  0.00     0.037 A 
HETATM   29  C4  UNL     1      -2.026  54.935 -10.140  1.00  0.00     0.006 A 
HETATM   30  C5  UNL     1      -0.678  54.686 -10.380  1.00  0.00     0.043 A 
HETATM   31  C6  UNL     1      -0.305  53.549 -11.092  1.00  0.00     0.127 A 
HETATM   32  F1  UNL     1       1.002  53.334 -11.311  1.00  0.00    -0.205 F 
BRANCH  27  33
HETATM   33  O1  UNL     1      -3.519  51.989 -11.799  1.00  0.00    -0.355 OA
HETATM   34  C1  UNL     1      -4.311  51.387 -10.780  1.00  0.00     0.210 C 
ENDBRANCH  27  33
ENDBRANCH  25  26
ENDBRANCH  23  25
ENDBRANCH  15  19
ENDBRANCH   1  13
BRANCH   7  35
HETATM   35  C18 UNL     1      -1.535  50.714 -24.182  1.00  0.00    -0.006 A 
HETATM   36  C19 UNL     1      -2.188  49.711 -23.382  1.00  0.00     0.016 A 
HETATM   37  C20 UNL     1      -3.110  48.766 -23.894  1.00  0.00     0.033 A 
HETATM   38  C21 UNL     1      -3.342  48.895 -25.272  1.00  0.00     0.059 A 
HETATM   39  N6  UNL     1      -4.154  48.197 -26.082  1.00  0.00    -0.299 N 
HETATM   40  C24 UNL     1      -2.658  49.902 -26.042  1.00  0.00     0.010 A 
HETATM   41  N7  UNL     1      -3.996  48.761 -27.298  1.00  0.00    -0.306 N 
ATOM     42  H6  UNL     1      -4.758  47.413 -25.834  1.00  0.00     0.187 HD
HETATM   43  C22 UNL     1      -4.751  48.254 -28.419  1.00  0.00     0.177 C 
HETATM   44  C23 UNL     1      -3.095  49.786 -27.333  1.00  0.00     0.123 A 
HETATM   45  C25 UNL     1      -1.740  50.836 -25.579  1.00  0.00     0.029 A 
ENDBRANCH   7  35
TORSDOF 6
ENDMDL
MODEL 2
REMARK minimizedAffinity -9.42179775
REMARK CNNscore 0.464178205
REMARK CNNaffinity 7.07479095
REMARK  6 active torsions:
REMARK  status: ('A' for Active; 'I' for Inactive)
REMARK    1  A    between atoms: O1_2  and  C2_3 
REMARK    2  A    between atoms: C7_9  and  C8_10 
REMARK    3  A    between atoms: C8_10  and  N1_11 
REMARK    4  A    between atoms: C12_15  and  N2_16 
REMARK       I    between atoms: N2_16  and  C13_17 
REMARK       I    between atoms: C13_17  and  N3_19 
REMARK    5  A    between atoms: N3_19  and  C14_20 
REMARK    6  A    between atoms: C17_26  and  C18_27 
ROOT
HETATM    1  C14 UNL     1       0.536  51.827 -18.119  1.00  0.00     0.111 A 
HETATM    2  C15 UNL     1       1.070  52.992 -18.673  1.00  0.00     0.080 A 
HETATM    3  C16 UNL     1       0.953  53.110 -20.059  1.00  0.00     0.065 A 
HETATM    4  N4  UNL     1       1.338  54.084 -20.935  1.00  0.00    -0.299 N 
HETATM    5  N5  UNL     1       1.006  53.841 -22.211  1.00  0.00    -0.299 N 
ATOM      6  H5  UNL     1       1.175  54.432 -23.024  1.00  0.00     0.187 HD
HETATM    7  C17 UNL     1       0.401  52.642 -22.175  1.00  0.00     0.072 A 
HETATM    8  C26 UNL     1       0.344  52.138 -20.842  1.00  0.00     0.036 A 
HETATM    9  C27 UNL     1      -0.161  51.003 -20.206  1.00  0.00     0.105 A 
HETATM   10  N8  UNL     1      -0.042  50.865 -18.861  1.00  0.00    -0.351 N 
ATOM     11  H8  UNL     1      -0.395  50.022 -18.407  1.00  0.00     0.166 HD
HETATM   12  H19 UNL     1       1.810  54.956 -20.723  1.00  0.00     0.187 HD
ENDROOT
BRANCH   1  13
HETATM   13  N3  UNL     1       0.618  51.702 -16.726  1.00  0.00    -0.295 N 
HETATM   14  C13 UNL     1       1.776  51.728 -15.981  1.00  0.00     0.322 C 
HETATM   15  N2  UNL     1       1.484  51.533 -14.639  1.00  0.00    -0.337 N 
HETATM   16  O2  UNL     1       2.921  51.879 -16.380  1.00  0.00    -0.247 OA
HETATM   17  H16 UNL     1       0.593  51.890 -14.334  1.00  0.00     0.164 HD
HETATM   18  H17 UNL     1      -0.220  51.444 -16.238  1.00  0.00     0.172 HD
BRANCH  15  19
HETATM   19  C12 UNL     1       2.552  51.542 -13.637  1.00  0.00     0.114 C 
HETATM   20  C11 UNL     1       3.079  50.117 -13.448  1.00  0.00     0.029 C 
HETATM   21  C10 UNL     1       4.108  50.069 -12.329  1.00  0.00     0.032 C 
HETATM   22  C9  UNL     1       3.541  50.650 -11.031  1.00  0.00     0.273 C 
HETATM   23  N1  UNL     1       3.087  52.033 -11.220  1.00  0.00     0.094 N 
HETATM   24  C28 UNL     1       2.072  52.128 -12.287  1.00  0.00     0.297 C 
BRANCH  23  25
HETATM   25  C8  UNL     1       2.550  52.612  -9.969  1.00  0.00     0.317 C 
BRANCH  25  26
HETATM   26  C7  UNL     1       3.172  53.939  -9.597  1.00  0.00     0.042 A 
HETATM   27  C2  UNL     1       2.458  55.144  -9.692  1.00  0.00     0.079 A 
HETATM   28  C3  UNL     1       3.068  56.356  -9.341  1.00  0.00     0.037 A 
HETATM   29  C4  UNL     1       4.399  56.381  -8.920  1.00  0.00     0.006 A 
HETATM   30  C5  UNL     1       5.119  55.193  -8.835  1.00  0.00     0.043 A 
HETATM   31  C6  UNL     1       4.503  53.989  -9.168  1.00  0.00     0.127 A 
HETATM   32  F1  UNL     1       5.222  52.859  -9.079  1.00  0.00    -0.205 F 
BRANCH  27  33
HETATM   33  O1  UNL     1       1.140  55.064 -10.064  1.00  0.00    -0.355 OA
HETATM   34  C1  UNL     1       0.208  55.251  -9.005  1.00  0.00     0.210 C 
ENDBRANCH  27  33
ENDBRANCH  25  26
ENDBRANCH  23  25
ENDBRANCH  15  19
ENDBRANCH   1  13
BRANCH   7  35
HETATM   35  C18 UNL     1      -0.125  52.025 -23.395  1.00  0.00    -0.006 A 
HETATM   36  C19 UNL     1       0.569  52.230 -24.640  1.00  0.00     0.016 A 
HETATM   37  C20 UNL     1       0.174  51.652 -25.871  1.00  0.00     0.033 A 
HETATM   38  C21 UNL     1      -0.970  50.845 -25.773  1.00  0.00     0.059 A 
HETATM   39  N6  UNL     1      -1.611  50.134 -26.716  1.00  0.00    -0.299 N 
HETATM   40  C24 UNL     1      -1.646  50.676 -24.513  1.00  0.00     0.010 A 
HETATM   41  N7  UNL     1      -2.628  49.534 -26.062  1.00  0.00    -0.306 N 
ATOM     42  H6  UNL     1      -1.380  50.063 -27.707  1.00  0.00     0.187 HD
HETATM   43  C22 UNL     1      -3.523  48.665 -26.788  1.00  0.00     0.177 C 
HETATM   44  C23 UNL     1      -2.703  49.837 -24.733  1.00  0.00     0.123 A 
HETATM   45  C25 UNL     1      -1.297  51.234 -23.290  1.00  0.00     0.029 A 
ENDBRANCH   7  35
TORSDOF 6
ENDMDL
MODEL 3
REMARK minimizedAffinity -10.5864344
REMARK CNNscore 0.457836062
REMARK CNNaffinity 7.43477297
REMARK  6 active torsions:
REMARK  status: ('A' for Active; 'I' for Inactive)
REMARK    1  A    between atoms: O1_2  and  C2_3 
REMARK    2  A    between atoms: C7_9  and  C8_10 
REMARK    3  A    between atoms: C8_10  and  N1_11 
REMARK    4  A    between atoms: C12_15  and  N2_16 
REMARK       I    between atoms: N2_16  and  C13_17 
REMARK       I    between atoms: C13_17  and  N3_19 
REMARK    5  A    between atoms: N3_19  and  C14_20 
REMARK    6  A    between atoms: C17_26  and  C18_27 
ROOT
HETATM    1  C14 UNL     1       0.889  52.969 -19.669  1.00  0.00     0.111 A 
HETATM    2  C15 UNL     1       1.555  54.005 -20.326  1.00  0.00     0.080 A 
HETATM    3  C16 UNL     1       1.343  54.080 -21.705  1.00  0.00     0.065 A 
HETATM    4  N4  UNL     1       1.805  54.937 -22.661  1.00  0.00    -0.299 N 
HETATM    5  N5  UNL     1       1.333  54.696 -23.892  1.00  0.00    -0.299 N 
ATOM      6  H5  UNL     1       1.526  55.215 -24.748  1.00  0.00     0.187 HD
HETATM    7  C17 UNL     1       0.549  53.616 -23.743  1.00  0.00     0.072 A 
HETATM    8  C26 UNL     1       0.523  53.187 -22.383  1.00  0.00     0.036 A 
HETATM    9  C27 UNL     1      -0.102  52.179 -21.647  1.00  0.00     0.105 A 
HETATM   10  N8  UNL     1       0.104  52.083 -20.309  1.00  0.00    -0.351 N 
ATOM     11  H8  UNL     1      -0.340  51.331 -19.783  1.00  0.00     0.166 HD
HETATM   12  H19 UNL     1       2.426  55.728 -22.535  1.00  0.00     0.187 HD
ENDROOT
BRANCH   1  13
HETATM   13  N3  UNL     1       1.065  52.894 -18.280  1.00  0.00    -0.295 N 
HETATM   14  C13 UNL     1       0.622  51.876 -17.466  1.00  0.00     0.322 C 
HETATM   15  N2  UNL     1       0.935  52.151 -16.144  1.00  0.00    -0.337 N 
HETATM   16  O2  UNL     1       0.022  50.861 -17.792  1.00  0.00    -0.247 OA
HETATM   17  H16 UNL     1       1.782  52.678 -16.001  1.00  0.00     0.164 HD
HETATM   18  H17 UNL     1       1.430  53.707 -17.819  1.00  0.00     0.172 HD
BRANCH  15  19
HETATM   19  C12 UNL     1       0.587  51.203 -15.084  1.00  0.00     0.114 C 
HETATM   20  C11 UNL     1       0.970  49.789 -15.525  1.00  0.00     0.029 C 
HETATM   21  C10 UNL     1       0.514  48.763 -14.498  1.00  0.00     0.032 C 
HETATM   22  C9  UNL     1      -0.984  48.892 -14.215  1.00  0.00     0.273 C 
HETATM   23  N1  UNL     1      -1.324  50.241 -13.745  1.00  0.00     0.094 N 
HETATM   24  C28 UNL     1      -0.916  51.272 -14.719  1.00  0.00     0.297 C 
BRANCH  23  25
HETATM   25  C8  UNL     1      -2.768  50.375 -13.453  1.00  0.00     0.317 C 
BRANCH  25  26
HETATM   26  C7  UNL     1      -3.074  51.334 -12.326  1.00  0.00     0.042 A 
HETATM   27  C2  UNL     1      -2.880  50.983 -10.981  1.00  0.00     0.079 A 
HETATM   28  C3  UNL     1      -3.178  51.899  -9.962  1.00  0.00     0.037 A 
HETATM   29  C4  UNL     1      -3.696  53.157 -10.272  1.00  0.00     0.006 A 
HETATM   30  C5  UNL     1      -3.905  53.510 -11.602  1.00  0.00     0.043 A 
HETATM   31  C6  UNL     1      -3.591  52.604 -12.612  1.00  0.00     0.127 A 
HETATM   32  F1  UNL     1      -3.804  52.969 -13.885  1.00  0.00    -0.205 F 
BRANCH  27  33
HETATM   33  O1  UNL     1      -2.325  49.755 -10.728  1.00  0.00    -0.355 OA
HETATM   34  C1  UNL     1      -1.050  49.795 -10.096  1.00  0.00     0.210 C 
ENDBRANCH  27  33
ENDBRANCH  25  26
ENDBRANCH  23  25
ENDBRANCH  15  19
ENDBRANCH   1  13
BRANCH   7  35
HETATM   35  C18 UNL     1      -0.169  53.041 -24.883  1.00  0.00    -0.006 A 
HETATM   36  C19 UNL     1       0.104  53.538 -26.206  1.00  0.00     0.016 A 
HETATM   37  C20 UNL     1      -0.501  53.032 -27.382  1.00  0.00     0.033 A 
HETATM   38  C21 UNL     1      -1.402  51.982 -27.146  1.00  0.00     0.059 A 
HETATM   39  N6  UNL     1      -2.134  51.258 -28.009  1.00  0.00    -0.299 N 
HETATM   40  C24 UNL     1      -1.660  51.522 -25.806  1.00  0.00     0.010 A 
HETATM   41  N7  UNL     1      -2.801  50.374 -27.237  1.00  0.00    -0.306 N 
ATOM     42  H6  UNL     1      -2.177  51.355 -29.023  1.00  0.00     0.187 HD
HETATM   43  C22 UNL     1      -3.683  49.415 -27.858  1.00  0.00     0.177 C 
HETATM   44  C23 UNL     1      -2.561  50.497 -25.899  1.00  0.00     0.123 A 
HETATM   45  C25 UNL     1      -1.097  52.000 -24.629  1.00  0.00     0.029 A 
ENDBRANCH   7  35
TORSDOF 6
ENDMDL
MODEL 4
REMARK minimizedAffinity -9.50256824
REMARK CNNscore 0.389448434
REMARK CNNaffinity 6.76880646
REMARK  6 active torsions:
REMARK  status: ('A' for Active; 'I' for Inactive)
REMARK    1  A    between atoms: O1_2  and  C2_3 
REMARK    2  A    between atoms: C7_9  and  C8_10 
REMARK    3  A    between atoms: C8_10  and  N1_11 
REMARK    4  A    between atoms: C12_15  and  N2_16 
REMARK       I    between atoms: N2_16  and  C13_17 
REMARK       I    between atoms: C13_17  and  N3_19 
REMARK    5  A    between atoms: N3_19  and  C14_20 
REMARK    6  A    between atoms: C17_26  and  C18_27 
ROOT
HETATM    1  C14 UNL     1       0.063  51.320 -17.495  1.00  0.00     0.111 A 
HETATM    2  C15 UNL     1       0.613  52.560 -17.820  1.00  0.00     0.080 A 
HETATM    3  C16 UNL     1       0.684  52.851 -19.184  1.00  0.00     0.065 A 
HETATM    4  N4  UNL     1       1.141  53.940 -19.870  1.00  0.00    -0.299 N 
HETATM    5  N5  UNL     1       1.000  53.852 -21.200  1.00  0.00    -0.299 N 
ATOM      6  H5  UNL     1       1.252  54.547 -21.902  1.00  0.00     0.187 HD
HETATM    7  C17 UNL     1       0.453  52.642 -21.398  1.00  0.00     0.072 A 
HETATM    8  C26 UNL     1       0.235  51.970 -20.159  1.00  0.00     0.036 A 
HETATM    9  C27 UNL     1      -0.299  50.749 -19.745  1.00  0.00     0.105 A 
HETATM   10  N8  UNL     1      -0.362  50.444 -18.424  1.00  0.00    -0.351 N 
ATOM     11  H8  UNL     1      -0.735  49.540 -18.132  1.00  0.00     0.166 HD
HETATM   12  H19 UNL     1       1.537  54.791 -19.487  1.00  0.00     0.187 HD
ENDROOT
BRANCH   1  13
HETATM   13  N3  UNL     1      -0.044  51.020 -16.130  1.00  0.00    -0.295 N 
HETATM   14  C13 UNL     1       0.694  51.594 -15.119  1.00  0.00     0.322 C 
HETATM   15  N2  UNL     1       0.354  51.027 -13.900  1.00  0.00    -0.337 N 
HETATM   16  O2  UNL     1       1.546  52.465 -15.214  1.00  0.00    -0.247 OA
HETATM   17  H16 UNL     1      -0.603  50.724 -13.816  1.00  0.00     0.164 HD
HETATM   18  H17 UNL     1      -0.611  50.232 -15.876  1.00  0.00     0.172 HD
BRANCH  15  19
HETATM   19  C12 UNL     1       0.988  51.489 -12.663  1.00  0.00     0.114 C 
HETATM   20  C11 UNL     1       0.767  50.447 -11.563  1.00  0.00     0.029 C 
HETATM   21  C10 UNL     1       1.310  50.947 -10.233  1.00  0.00     0.032 C 
HETATM   22  C9  UNL     1       0.711  52.307  -9.867  1.00  0.00     0.273 C 
HETATM   23  N1  UNL     1       0.976  53.305 -10.910  1.00  0.00     0.094 N 
HETATM   24  C28 UNL     1       0.451  52.872 -12.220  1.00  0.00     0.297 C 
BRANCH  23  25
HETATM   25  C8  UNL     1       0.414  54.629 -10.562  1.00  0.00     0.317 C 
BRANCH  25  26
HETATM   26  C7  UNL     1       1.164  55.335  -9.457  1.00  0.00     0.042 A 
HETATM   27  C2  UNL     1       2.479  55.797  -9.631  1.00  0.00     0.079 A 
HETATM   28  C3  UNL     1       3.144  56.446  -8.581  1.00  0.00     0.037 A 
HETATM   29  C4  UNL     1       2.517  56.616  -7.345  1.00  0.00     0.006 A 
HETATM   30  C5  UNL     1       1.219  56.150  -7.159  1.00  0.00     0.043 A 
HETATM   31  C6  UNL     1       0.556  55.522  -8.210  1.00  0.00     0.127 A 
HETATM   32  F1  UNL     1      -0.694  55.081  -8.002  1.00  0.00    -0.205 F 
BRANCH  27  33
HETATM   33  O1  UNL     1       3.035  55.650 -10.875  1.00  0.00    -0.355 OA
HETATM   34  C1  UNL     1       4.453  55.529 -10.885  1.00  0.00     0.210 C 
ENDBRANCH  27  33
ENDBRANCH  25  26
ENDBRANCH  23  25
ENDBRANCH  15  19
ENDBRANCH   1  13
BRANCH   7  35
HETATM   35  C18 UNL     1       0.130  52.171 -22.747  1.00  0.00    -0.006 A 
HETATM   36  C19 UNL     1      -1.041  51.356 -22.944  1.00  0.00     0.016 A 
HETATM   37  C20 UNL     1      -1.470  50.877 -24.205  1.00  0.00     0.033 A 
HETATM   38  C21 UNL     1      -0.645  51.275 -25.269  1.00  0.00     0.059 A 
HETATM   39  N6  UNL     1      -0.751  51.029 -26.585  1.00  0.00    -0.299 N 
HETATM   40  C24 UNL     1       0.526  52.079 -25.031  1.00  0.00     0.010 A 
HETATM   41  N7  UNL     1       0.299  51.670 -27.141  1.00  0.00    -0.306 N 
ATOM     42  H6  UNL     1      -1.466  50.479 -27.060  1.00  0.00     0.187 HD
HETATM   43  C22 UNL     1       0.481  51.626 -28.572  1.00  0.00     0.177 C 
HETATM   44  C23 UNL     1       1.109  52.309 -26.246  1.00  0.00     0.123 A 
HETATM   45  C25 UNL     1       0.985  52.556 -23.810  1.00  0.00     0.029 A 
ENDBRANCH   7  35
TORSDOF 6
ENDMDL
MODEL 5
REMARK minimizedAffinity -9.88890457
REMARK CNNscore 0.347377628
REMARK CNNaffinity 7.05207253
REMARK  6 active torsions:
REMARK  status: ('A' for Active; 'I' for Inactive)
REMARK    1  A    between atoms: O1_2  and  C2_3 
REMARK    2  A    between atoms: C7_9  and  C8_10 
REMARK    3  A    between atoms: C8_10  and  N1_11 
REMARK    4  A    between atoms: C12_15  and  N2_16 
REMARK       I    between atoms: N2_16  and  C13_17 
REMARK       I    between atoms: C13_17  and  N3_19 
REMARK    5  A    between atoms: N3_19  and  C14_20 
REMARK    6  A    between atoms: C17_26  and  C18_27 
ROOT
HETATM    1  C14 UNL     1       0.102  51.475 -17.884  1.00  0.00     0.111 A 
HETATM    2  C15 UNL     1       0.675  52.669 -18.322  1.00  0.00     0.080 A 
HETATM    3  C16 UNL     1       0.664  52.873 -19.704  1.00  0.00     0.065 A 
HETATM    4  N4  UNL     1       1.114  53.897 -20.486  1.00  0.00    -0.299 N 
HETATM    5  N5  UNL     1       0.882  53.733 -21.796  1.00  0.00    -0.299 N 
ATOM      6  H5  UNL     1       1.112  54.373 -22.556  1.00  0.00     0.187 HD
HETATM    7  C17 UNL     1       0.278  52.537 -21.880  1.00  0.00     0.072 A 
HETATM    8  C26 UNL     1       0.119  51.952 -20.589  1.00  0.00     0.036 A 
HETATM    9  C27 UNL     1      -0.431  50.782 -20.065  1.00  0.00     0.105 A 
HETATM   10  N8  UNL     1      -0.417  50.562 -18.726  1.00  0.00    -0.351 N 
ATOM     11  H8  UNL     1      -0.802  49.694 -18.353  1.00  0.00     0.166 HD
HETATM   12  H19 UNL     1       1.567  54.753 -20.185  1.00  0.00     0.187 HD
ENDROOT
BRANCH   1  13
HETATM   13  N3  UNL     1       0.076  51.264 -16.498  1.00  0.00    -0.295 N 
HETATM   14  C13 UNL     1       0.752  52.007 -15.557  1.00  0.00     0.322 C 
HETATM   15  N2  UNL     1       0.529  51.490 -14.290  1.00  0.00    -0.337 N 
HETATM   16  O2  UNL     1       1.470  52.979 -15.744  1.00  0.00    -0.247 OA
HETATM   17  H16 UNL     1      -0.373  51.063 -14.150  1.00  0.00     0.164 HD
HETATM   18  H17 UNL     1      -0.367  50.425 -16.170  1.00  0.00     0.172 HD
BRANCH  15  19
HETATM   19  C12 UNL     1       1.125  52.125 -13.112  1.00  0.00     0.114 C 
HETATM   20  C11 UNL     1       2.436  51.416 -12.766  1.00  0.00     0.029 C 
HETATM   21  C10 UNL     1       3.023  51.972 -11.477  1.00  0.00     0.032 C 
HETATM   22  C9  UNL     1       2.010  51.901 -10.332  1.00  0.00     0.273 C 
HETATM   23  N1  UNL     1       0.779  52.628 -10.663  1.00  0.00     0.094 N 
HETATM   24  C28 UNL     1       0.161  52.112 -11.900  1.00  0.00     0.297 C 
BRANCH  23  25
HETATM   25  C8  UNL     1      -0.204  52.580  -9.559  1.00  0.00     0.317 C 
BRANCH  25  26
HETATM   26  C7  UNL     1      -1.640  52.691 -10.017  1.00  0.00     0.042 A 
HETATM   27  C2  UNL     1      -2.487  51.573 -10.077  1.00  0.00     0.079 A 
HETATM   28  C3  UNL     1      -3.813  51.713 -10.510  1.00  0.00     0.037 A 
HETATM   29  C4  UNL     1      -4.296  52.960 -10.913  1.00  0.00     0.006 A 
HETATM   30  C5  UNL     1      -3.460  54.071 -10.870  1.00  0.00     0.043 A 
HETATM   31  C6  UNL     1      -2.149  53.930 -10.422  1.00  0.00     0.127 A 
HETATM   32  F1  UNL     1      -1.365  55.019 -10.393  1.00  0.00    -0.205 F 
BRANCH  27  33
HETATM   33  O1  UNL     1      -1.982  50.380  -9.626  1.00  0.00    -0.355 OA
HETATM   34  C1  UNL     1      -2.846  49.656  -8.756  1.00  0.00     0.210 C 
ENDBRANCH  27  33
ENDBRANCH  25  26
ENDBRANCH  23  25
ENDBRANCH  15  19
ENDBRANCH   1  13
BRANCH   7  35
HETATM   35  C18 UNL     1      -0.152  51.998 -23.173  1.00  0.00    -0.006 A 
HETATM   36  C19 UNL     1       0.607  52.318 -24.353  1.00  0.00     0.016 A 
HETATM   37  C20 UNL     1       0.308  51.823 -25.646  1.00  0.00     0.033 A 
HETATM   38  C21 UNL     1      -0.810  50.975 -25.679  1.00  0.00     0.059 A 
HETATM   39  N6  UNL     1      -1.367  50.317 -26.709  1.00  0.00    -0.299 N 
HETATM   40  C24 UNL     1      -1.553  50.689 -24.479  1.00  0.00     0.010 A 
HETATM   41  N7  UNL     1      -2.399  49.637 -26.167  1.00  0.00    -0.306 N 
ATOM     42  H6  UNL     1      -1.075  50.329 -27.687  1.00  0.00     0.187 HD
HETATM   43  C22 UNL     1      -3.217  48.797 -27.008  1.00  0.00     0.177 C 
HETATM   44  C23 UNL     1      -2.564  49.836 -24.826  1.00  0.00     0.123 A 
HETATM   45  C25 UNL     1      -1.298  51.164 -23.199  1.00  0.00     0.029 A 
ENDBRANCH   7  35
TORSDOF 6
ENDMDL
MODEL 6
REMARK minimizedAffinity -9.61107922
REMARK CNNscore 0.233869746
REMARK CNNaffinity 6.67116785
REMARK  6 active torsions:
REMARK  status: ('A' for Active; 'I' for Inactive)
REMARK    1  A    between atoms: O1_2  and  C2_3 
REMARK    2  A    between atoms: C7_9  and  C8_10 
REMARK    3  A    between atoms: C8_10  and  N1_11 
REMARK    4  A    between atoms: C12_15  and  N2_16 
REMARK       I    between atoms: N2_16  and  C13_17 
REMARK       I    between atoms: C13_17  and  N3_19 
REMARK    5  A    between atoms: N3_19  and  C14_20 
REMARK    6  A    between atoms: C17_26  and  C18_27 
ROOT
HETATM    1  C14 UNL     1       0.915  51.940 -16.442  1.00  0.00     0.111 A 
HETATM    2  C15 UNL     1       0.410  50.656 -16.655  1.00  0.00     0.080 A 
HETATM    3  C16 UNL     1      -0.130  50.422 -17.921  1.00  0.00     0.065 A 
HETATM    4  N4  UNL     1      -0.697  49.318 -18.489  1.00  0.00    -0.299 N 
HETATM    5  N5  UNL     1      -1.068  49.485 -19.767  1.00  0.00    -0.299 N 
ATOM      6  H5  UNL     1      -1.491  48.797 -20.390  1.00  0.00     0.187 HD
HETATM    7  C17 UNL     1      -0.756  50.762 -20.041  1.00  0.00     0.072 A 
HETATM    8  C26 UNL     1      -0.164  51.397 -18.909  1.00  0.00     0.036 A 
HETATM    9  C27 UNL     1       0.360  52.655 -18.610  1.00  0.00     0.105 A 
HETATM   10  N8  UNL     1       0.876  52.904 -17.380  1.00  0.00    -0.351 N 
ATOM     11  H8  UNL     1       1.239  53.833 -17.163  1.00  0.00     0.166 HD
HETATM   12  H19 UNL     1      -0.838  48.408 -18.067  1.00  0.00     0.187 HD
ENDROOT
BRANCH   1  13
HETATM   13  N3  UNL     1       1.488  52.187 -15.187  1.00  0.00    -0.295 N 
HETATM   14  C13 UNL     1       0.807  52.271 -13.993  1.00  0.00     0.322 C 
HETATM   15  N2  UNL     1       1.686  52.568 -12.962  1.00  0.00    -0.337 N 
HETATM   16  O2  UNL     1      -0.392  52.131 -13.802  1.00  0.00    -0.247 OA
HETATM   17  H16 UNL     1       2.619  52.204 -13.071  1.00  0.00     0.164 HD
HETATM   18  H17 UNL     1       2.455  52.453 -15.168  1.00  0.00     0.172 HD
BRANCH  15  19
HETATM   19  C12 UNL     1       1.204  52.687 -11.585  1.00  0.00     0.114 C 
HETATM   20  C11 UNL     1       0.101  53.747 -11.525  1.00  0.00     0.029 C 
HETATM   21  C10 UNL     1      -0.341  53.982 -10.089  1.00  0.00     0.032 C 
HETATM   22  C9  UNL     1       0.849  54.340  -9.195  1.00  0.00     0.273 C 
HETATM   23  N1  UNL     1       1.874  53.289  -9.227  1.00  0.00     0.094 N 
HETATM   24  C28 UNL     1       2.348  53.037 -10.601  1.00  0.00     0.297 C 
BRANCH  23  25
HETATM   25  C8  UNL     1       3.024  53.615  -8.356  1.00  0.00     0.317 C 
BRANCH  25  26
HETATM   26  C7  UNL     1       3.119  55.081  -7.997  1.00  0.00     0.042 A 
HETATM   27  C2  UNL     1       3.887  55.980  -8.754  1.00  0.00     0.079 A 
HETATM   28  C3  UNL     1       3.953  57.333  -8.389  1.00  0.00     0.037 A 
HETATM   29  C4  UNL     1       3.279  57.793  -7.256  1.00  0.00     0.006 A 
HETATM   30  C5  UNL     1       2.527  56.906  -6.492  1.00  0.00     0.043 A 
HETATM   31  C6  UNL     1       2.449  55.568  -6.869  1.00  0.00     0.127 A 
HETATM   32  F1  UNL     1       1.717  54.734  -6.112  1.00  0.00    -0.205 F 
BRANCH  27  33
HETATM   33  O1  UNL     1       4.491  55.492  -9.884  1.00  0.00    -0.355 OA
HETATM   34  C1  UNL     1       5.874  55.188  -9.737  1.00  0.00     0.210 C 
ENDBRANCH  27  33
ENDBRANCH  25  26
ENDBRANCH  23  25
ENDBRANCH  15  19
ENDBRANCH   1  13
BRANCH   7  35
HETATM   35  C18 UNL     1      -1.003  51.332 -21.368  1.00  0.00    -0.006 A 
HETATM   36  C19 UNL     1      -2.361  51.514 -21.810  1.00  0.00     0.016 A 
HETATM   37  C20 UNL     1      -2.718  52.089 -23.054  1.00  0.00     0.033 A 
HETATM   38  C21 UNL     1      -1.616  52.478 -23.832  1.00  0.00     0.059 A 
HETATM   39  N6  UNL     1      -1.573  53.065 -25.039  1.00  0.00    -0.299 N 
HETATM   40  C24 UNL     1      -0.272  52.266 -23.361  1.00  0.00     0.010 A 
HETATM   41  N7  UNL     1      -0.258  53.229 -25.296  1.00  0.00    -0.306 N 
ATOM     42  H6  UNL     1      -2.360  53.330 -25.632  1.00  0.00     0.187 HD
HETATM   43  C22 UNL     1       0.151  53.859 -26.528  1.00  0.00     0.177 C 
HETATM   44  C23 UNL     1       0.571  52.753 -24.321  1.00  0.00     0.123 A 
HETATM   45  C25 UNL     1       0.117  51.696 -22.156  1.00  0.00     0.029 A 
ENDBRANCH   7  35
TORSDOF 6
ENDMDL
MODEL 7
REMARK minimizedAffinity -9.65632343
REMARK CNNscore 0.206566826
REMARK CNNaffinity 6.64046478
REMARK  6 active torsions:
REMARK  status: ('A' for Active; 'I' for Inactive)
REMARK    1  A    between atoms: O1_2  and  C2_3 
REMARK    2  A    between atoms: C7_9  and  C8_10 
REMARK    3  A    between atoms: C8_10  and  N1_11 
REMARK    4  A    between atoms: C12_15  and  N2_16 
REMARK       I    between atoms: N2_16  and  C13_17 
REMARK       I    between atoms: C13_17  and  N3_19 
REMARK    5  A    between atoms: N3_19  and  C14_20 
REMARK    6  A    between atoms: C17_26  and  C18_27 
ROOT
HETATM    1  C14 UNL     1       0.023  50.574 -16.700  1.00  0.00     0.111 A 
HETATM    2  C15 UNL     1      -0.506  49.508 -17.429  1.00  0.00     0.080 A 
HETATM    3  C16 UNL     1      -0.604  49.708 -18.807  1.00  0.00     0.065 A 
HETATM    4  N4  UNL     1      -1.051  48.913 -19.823  1.00  0.00    -0.299 N 
HETATM    5  N5  UNL     1      -0.947  49.463 -21.041  1.00  0.00    -0.299 N 
ATOM      6  H5  UNL     1      -1.199  49.049 -21.937  1.00  0.00     0.187 HD
HETATM    7  C17 UNL     1      -0.433  50.683 -20.812  1.00  0.00     0.072 A 
HETATM    8  C26 UNL     1      -0.201  50.887 -19.420  1.00  0.00     0.036 A 
HETATM    9  C27 UNL     1       0.314  51.904 -18.615  1.00  0.00     0.105 A 
HETATM   10  N8  UNL     1       0.403  51.732 -17.271  1.00  0.00    -0.351 N 
ATOM     11  H8  UNL     1       0.761  52.488 -16.688  1.00  0.00     0.166 HD
HETATM   12  H19 UNL     1      -1.418  47.971 -19.755  1.00  0.00     0.187 HD
ENDROOT
BRANCH   1  13
HETATM   13  N3  UNL     1       0.156  50.383 -15.318  1.00  0.00    -0.295 N 
HETATM   14  C13 UNL     1       0.301  51.378 -14.377  1.00  0.00     0.322 C 
HETATM   15  N2  UNL     1       0.448  50.823 -13.115  1.00  0.00    -0.337 N 
HETATM   16  O2  UNL     1       0.321  52.586 -14.560  1.00  0.00    -0.247 OA
HETATM   17  H16 UNL     1      -0.038  49.953 -12.965  1.00  0.00     0.164 HD
HETATM   18  H17 UNL     1       0.287  49.442 -14.995  1.00  0.00     0.172 HD
BRANCH  15  19
HETATM   19  C12 UNL     1       0.596  51.681 -11.938  1.00  0.00     0.114 C 
HETATM   20  C11 UNL     1      -0.563  52.680 -11.892  1.00  0.00     0.029 C 
HETATM   21  C10 UNL     1      -0.379  53.665 -10.748  1.00  0.00     0.032 C 
HETATM   22  C9  UNL     1       0.980  54.364 -10.833  1.00  0.00     0.273 C 
HETATM   23  N1  UNL     1       2.081  53.393 -10.825  1.00  0.00     0.094 N 
HETATM   24  C28 UNL     1       1.955  52.423 -11.931  1.00  0.00     0.297 C 
BRANCH  23  25
HETATM   25  C8  UNL     1       3.401  54.056 -10.893  1.00  0.00     0.317 C 
BRANCH  25  26
HETATM   26  C7  UNL     1       3.690  54.956  -9.714  1.00  0.00     0.042 A 
HETATM   27  C2  UNL     1       4.015  54.440  -8.449  1.00  0.00     0.079 A 
HETATM   28  C3  UNL     1       4.274  55.306  -7.378  1.00  0.00     0.037 A 
HETATM   29  C4  UNL     1       4.185  56.689  -7.550  1.00  0.00     0.006 A 
HETATM   30  C5  UNL     1       3.851  57.210  -8.796  1.00  0.00     0.043 A 
HETATM   31  C6  UNL     1       3.612  56.346  -9.861  1.00  0.00     0.127 A 
HETATM   32  F1  UNL     1       3.289  56.876 -11.052  1.00  0.00    -0.205 F 
BRANCH  27  33
HETATM   33  O1  UNL     1       4.137  53.078  -8.341  1.00  0.00    -0.355 OA
HETATM   34  C1  UNL     1       3.426  52.500  -7.251  1.00  0.00     0.210 C 
ENDBRANCH  27  33
ENDBRANCH  25  26
ENDBRANCH  23  25
ENDBRANCH  15  19
ENDBRANCH   1  13
BRANCH   7  35
HETATM   35  C18 UNL     1      -0.156  51.605 -21.917  1.00  0.00    -0.006 A 
HETATM   36  C19 UNL     1       0.734  52.715 -21.697  1.00  0.00     0.016 A 
HETATM   37  C20 UNL     1       1.103  53.644 -22.699  1.00  0.00     0.033 A 
HETATM   38  C21 UNL     1       0.521  53.385 -23.950  1.00  0.00     0.059 A 
HETATM   39  N6  UNL     1       0.656  54.034 -25.118  1.00  0.00    -0.299 N 
HETATM   40  C24 UNL     1      -0.376  52.273 -24.128  1.00  0.00     0.010 A 
HETATM   41  N7  UNL     1      -0.110  53.340 -25.987  1.00  0.00    -0.306 N 
ATOM     42  H6  UNL     1       1.213  54.867 -25.308  1.00  0.00     0.187 HD
HETATM   43  C22 UNL     1      -0.180  53.764 -27.366  1.00  0.00     0.177 C 
HETATM   44  C23 UNL     1      -0.764  52.275 -25.439  1.00  0.00     0.123 A 
HETATM   45  C25 UNL     1      -0.771  51.349 -23.168  1.00  0.00     0.029 A 
ENDBRANCH   7  35
TORSDOF 6
ENDMDL
MODEL 8
REMARK minimizedAffinity -9.4124527
REMARK CNNscore 0.175048694
REMARK CNNaffinity 6.45860291
REMARK  6 active torsions:
REMARK  status: ('A' for Active; 'I' for Inactive)
REMARK    1  A    between atoms: O1_2  and  C2_3 
REMARK    2  A    between atoms: C7_9  and  C8_10 
REMARK    3  A    between atoms: C8_10  and  N1_11 
REMARK    4  A    between atoms: C12_15  and  N2_16 
REMARK       I    between atoms: N2_16  and  C13_17 
REMARK       I    between atoms: C13_17  and  N3_19 
REMARK    5  A    between atoms: N3_19  and  C14_20 
REMARK    6  A    between atoms: C17_26  and  C18_27 
ROOT
HETATM    1  C14 UNL     1       0.713  52.256 -17.473  1.00  0.00     0.111 A 
HETATM    2  C15 UNL     1       0.251  50.952 -17.657  1.00  0.00     0.080 A 
HETATM    3  C16 UNL     1      -0.277  50.671 -18.919  1.00  0.00     0.065 A 
HETATM    4  N4  UNL     1      -0.806  49.536 -19.463  1.00  0.00    -0.299 N 
HETATM    5  N5  UNL     1      -1.179  49.661 -20.745  1.00  0.00    -0.299 N 
ATOM      6  H5  UNL     1      -1.577  48.946 -21.352  1.00  0.00     0.187 HD
HETATM    7  C17 UNL     1      -0.908  50.941 -21.047  1.00  0.00     0.072 A 
HETATM    8  C26 UNL     1      -0.340  51.621 -19.929  1.00  0.00     0.036 A 
HETATM    9  C27 UNL     1       0.142  52.903 -19.658  1.00  0.00     0.105 A 
HETATM   10  N8  UNL     1       0.646  53.196 -18.433  1.00  0.00    -0.351 N 
ATOM     11  H8  UNL     1       0.977  54.141 -18.237  1.00  0.00     0.166 HD
HETATM   12  H19 UNL     1      -0.918  48.632 -19.020  1.00  0.00     0.187 HD
ENDROOT
BRANCH   1  13
HETATM   13  N3  UNL     1       1.275  52.550 -16.223  1.00  0.00    -0.295 N 
HETATM   14  C13 UNL     1       1.275  51.720 -15.124  1.00  0.00     0.322 C 
HETATM   15  N2  UNL     1       1.881  52.353 -14.049  1.00  0.00    -0.337 N 
HETATM   16  O2  UNL     1       0.816  50.591 -15.037  1.00  0.00    -0.247 OA
HETATM   17  H16 UNL     1       2.617  52.999 -14.285  1.00  0.00     0.164 HD
HETATM   18  H17 UNL     1       1.589  53.491 -16.071  1.00  0.00     0.172 HD
BRANCH  15  19
HETATM   19  C12 UNL     1       2.025  51.663 -12.765  1.00  0.00     0.114 C 
HETATM   20  C11 UNL     1       0.732  50.906 -12.450  1.00  0.00     0.029 C 
HETATM   21  C10 UNL     1       0.803  50.274 -11.069  1.00  0.00     0.032 C 
HETATM   22  C9  UNL     1       1.134  51.318  -9.999  1.00  0.00     0.273 C 
HETATM   23  N1  UNL     1       2.401  51.998 -10.292  1.00  0.00     0.094 N 
HETATM   24  C28 UNL     1       2.375  52.643 -11.619  1.00  0.00     0.297 C 
BRANCH  23  25
HETATM   25  C8  UNL     1       2.740  53.000  -9.258  1.00  0.00     0.317 C 
BRANCH  25  26
HETATM   26  C7  UNL     1       4.194  53.415  -9.267  1.00  0.00     0.042 A 
HETATM   27  C2  UNL     1       5.216  52.540  -8.865  1.00  0.00     0.079 A 
HETATM   28  C3  UNL     1       6.553  52.961  -8.883  1.00  0.00     0.037 A 
HETATM   29  C4  UNL     1       6.879  54.261  -9.275  1.00  0.00     0.006 A 
HETATM   30  C5  UNL     1       5.872  55.139  -9.662  1.00  0.00     0.043 A 
HETATM   31  C6  UNL     1       4.547  54.711  -9.660  1.00  0.00     0.127 A 
HETATM   32  F1  UNL     1       3.596  55.580 -10.036  1.00  0.00    -0.205 F 
BRANCH  27  33
HETATM   33  O1  UNL     1       4.851  51.261  -8.534  1.00  0.00    -0.355 OA
HETATM   34  C1  UNL     1       5.520  50.241  -9.269  1.00  0.00     0.210 C 
ENDBRANCH  27  33
ENDBRANCH  25  26
ENDBRANCH  23  25
ENDBRANCH  15  19
ENDBRANCH   1  13
BRANCH   7  35
HETATM   35  C18 UNL     1      -1.170  51.472 -22.387  1.00  0.00    -0.006 A 
HETATM   36  C19 UNL     1      -2.527  51.755 -22.776  1.00  0.00     0.016 A 
HETATM   37  C20 UNL     1      -2.894  52.305 -24.028  1.00  0.00     0.033 A 
HETATM   38  C21 UNL     1      -1.803  52.559 -24.873  1.00  0.00     0.059 A 
HETATM   39  N6  UNL     1      -1.768  53.087 -26.108  1.00  0.00    -0.299 N 
HETATM   40  C24 UNL     1      -0.460  52.249 -24.455  1.00  0.00     0.010 A 
HETATM   41  N7  UNL     1      -0.458  53.121 -26.432  1.00  0.00    -0.306 N 
ATOM     42  H6  UNL     1      -2.558  53.394 -26.676  1.00  0.00     0.187 HD
HETATM   43  C22 UNL     1      -0.057  53.657 -27.710  1.00  0.00     0.177 C 
HETATM   44  C23 UNL     1       0.374  52.616 -25.474  1.00  0.00     0.123 A 
HETATM   45  C25 UNL     1      -0.063  51.700 -23.242  1.00  0.00     0.029 A 
ENDBRANCH   7  35
TORSDOF 6
ENDMDL
MODEL 9
REMARK minimizedAffinity -9.09314728
REMARK CNNscore 0.170744538
REMARK CNNaffinity 6.62805557
REMARK  6 active torsions:
REMARK  status: ('A' for Active; 'I' for Inactive)
REMARK    1  A    between atoms: O1_2  and  C2_3 
REMARK    2  A    between atoms: C7_9  and  C8_10 
REMARK    3  A    between atoms: C8_10  and  N1_11 
REMARK    4  A    between atoms: C12_15  and  N2_16 
REMARK       I    between atoms: N2_16  and  C13_17 
REMARK       I    between atoms: C13_17  and  N3_19 
REMARK    5  A    between atoms: N3_19  and  C14_20 
REMARK    6  A    between atoms: C17_26  and  C18_27 
ROOT
HETATM    1  C14 UNL     1       0.625  51.492 -16.574  1.00  0.00     0.111 A 
HETATM    2  C15 UNL     1      -0.033  50.412 -17.166  1.00  0.00     0.080 A 
HETATM    3  C16 UNL     1      -0.242  50.514 -18.543  1.00  0.00     0.065 A 
HETATM    4  N4  UNL     1      -0.829  49.678 -19.448  1.00  0.00    -0.299 N 
HETATM    5  N5  UNL     1      -0.800  50.126 -20.712  1.00  0.00    -0.299 N 
ATOM      6  H5  UNL     1      -1.159  49.664 -21.547  1.00  0.00     0.187 HD
HETATM    7  C17 UNL     1      -0.194  51.321 -20.628  1.00  0.00     0.072 A 
HETATM    8  C26 UNL     1       0.176  51.613 -19.281  1.00  0.00     0.036 A 
HETATM    9  C27 UNL     1       0.824  52.650 -18.609  1.00  0.00     0.105 A 
HETATM   10  N8  UNL     1       1.023  52.574 -17.268  1.00  0.00    -0.351 N 
ATOM     11  H8  UNL     1       1.479  53.345 -16.781  1.00  0.00     0.166 HD
HETATM   12  H19 UNL     1      -1.245  48.770 -19.274  1.00  0.00     0.187 HD
ENDROOT
BRANCH   1  13
HETATM   13  N3  UNL     1       0.871  51.396 -15.197  1.00  0.00    -0.295 N 
HETATM   14  C13 UNL     1       2.098  51.530 -14.587  1.00  0.00     0.322 C 
HETATM   15  N2  UNL     1       1.974  51.334 -13.220  1.00  0.00    -0.337 N 
HETATM   16  O2  UNL     1       3.175  51.771 -15.113  1.00  0.00    -0.247 OA
HETATM   17  H16 UNL     1       1.095  51.621 -12.819  1.00  0.00     0.164 HD
HETATM   18  H17 UNL     1       0.117  51.077 -14.617  1.00  0.00     0.172 HD
BRANCH  15  19
HETATM   19  C12 UNL     1       3.142  51.449 -12.344  1.00  0.00     0.114 C 
HETATM   20  C11 UNL     1       3.775  50.067 -12.163  1.00  0.00     0.029 C 
HETATM   21  C10 UNL     1       4.921  50.127 -11.164  1.00  0.00     0.032 C 
HETATM   22  C9  UNL     1       4.463  50.729  -9.833  1.00  0.00     0.273 C 
HETATM   23  N1  UNL     1       3.905  52.074 -10.020  1.00  0.00     0.094 N 
HETATM   24  C28 UNL     1       2.776  52.063 -10.971  1.00  0.00     0.297 C 
BRANCH  23  25
HETATM   25  C8  UNL     1       3.472  52.673  -8.739  1.00  0.00     0.317 C 
BRANCH  25  26
HETATM   26  C7  UNL     1       4.249  53.910  -8.353  1.00  0.00     0.042 A 
HETATM   27  C2  UNL     1       3.728  55.201  -8.539  1.00  0.00     0.079 A 
HETATM   28  C3  UNL     1       4.480  56.326  -8.171  1.00  0.00     0.037 A 
HETATM   29  C4  UNL     1       5.764  56.176  -7.643  1.00  0.00     0.006 A 
HETATM   30  C5  UNL     1       6.294  54.902  -7.468  1.00  0.00     0.043 A 
HETATM   31  C6  UNL     1       5.537  53.787  -7.818  1.00  0.00     0.127 A 
HETATM   32  F1  UNL     1       6.074  52.570  -7.640  1.00  0.00    -0.205 F 
BRANCH  27  33
HETATM   33  O1  UNL     1       2.446  55.296  -9.016  1.00  0.00    -0.355 OA
HETATM   34  C1  UNL     1       1.538  55.975  -8.155  1.00  0.00     0.210 C 
ENDBRANCH  27  33
ENDBRANCH  25  26
ENDBRANCH  23  25
ENDBRANCH  15  19
ENDBRANCH   1  13
BRANCH   7  35
HETATM   35  C18 UNL     1       0.039  52.135 -21.823  1.00  0.00    -0.006 A 
HETATM   36  C19 UNL     1       0.889  53.293 -21.728  1.00  0.00     0.016 A 
HETATM   37  C20 UNL     1       1.215  54.129 -22.823  1.00  0.00     0.033 A 
HETATM   38  C21 UNL     1       0.632  53.723 -24.034  1.00  0.00     0.059 A 
HETATM   39  N6  UNL     1       0.731  54.255 -25.264  1.00  0.00    -0.299 N 
HETATM   40  C24 UNL     1      -0.226  52.567 -24.087  1.00  0.00     0.010 A 
HETATM   41  N7  UNL     1      -0.016  53.450 -26.048  1.00  0.00    -0.306 N 
ATOM     42  H6  UNL     1       1.256  55.084 -25.543  1.00  0.00     0.187 HD
HETATM   43  C22 UNL     1      -0.115  53.729 -27.461  1.00  0.00     0.177 C 
HETATM   44  C23 UNL     1      -0.626  52.423 -25.387  1.00  0.00     0.123 A 
HETATM   45  C25 UNL     1      -0.577  51.732 -23.034  1.00  0.00     0.029 A 
ENDBRANCH   7  35
TORSDOF 6
ENDMDL
