MODEL 1
REMARK minimizedAffinity -9.46951389
REMARK CNNscore 0.776915967
REMARK CNNaffinity 7.33833075
REMARK  5 active torsions:
REMARK  status: ('A' for Active; 'I' for Inactive)
REMARK    1  A    between atoms: C4_4  and  C5_5 
REMARK    2  A    between atoms: C8_11  and  N3_12 
REMARK       I    between atoms: N3_12  and  C9_13 
REMARK       I    between atoms: C9_13  and  N4_15 
REMARK    3  A    between atoms: N4_15  and  C10_16 
REMARK    4  A    between atoms: C14_20  and  O2_21 
REMARK    5  A    between atoms: O2_21  and  C15_22 
ROOT
HETATM    1  N3  UNL     1       1.085  53.057 -18.162  1.00  0.00    -0.295 N 
HETATM    2  C9  UNL     1       0.938  52.005 -17.287  1.00  0.00     0.322 C 
HETATM    3  O1  UNL     1       0.761  50.826 -17.556  1.00  0.00    -0.247 OA
HETATM    4  N4  UNL     1       1.047  52.455 -15.977  1.00  0.00    -0.338 N 
HETATM    5  H7  UNL     1       1.482  53.898 -17.782  1.00  0.00     0.172 HD
HETATM    6  H8  UNL     1       0.697  53.390 -15.830  1.00  0.00     0.164 HD
ENDROOT
BRANCH   1   7
HETATM    7  C8  UNL     1       0.944  52.981 -19.554  1.00  0.00     0.111 A 
HETATM    8  C7  UNL     1       1.400  54.073 -20.291  1.00  0.00     0.080 A 
HETATM    9  C6  UNL     1       1.236  53.978 -21.673  1.00  0.00     0.065 A 
HETATM   10  N2  UNL     1       1.563  54.823 -22.694  1.00  0.00    -0.299 N 
HETATM   11  C23 UNL     1       0.651  52.876 -22.286  1.00  0.00     0.036 A 
HETATM   12  N1  UNL     1       1.253  54.359 -23.913  1.00  0.00    -0.299 N 
HETATM   13  H5  UNL     1       2.005  55.731 -22.630  1.00  0.00     0.187 HD
HETATM   14  C5  UNL     1       0.671  53.167 -23.685  1.00  0.00     0.072 A 
ATOM     15  H1  UNL     1       1.421  54.810 -24.813  1.00  0.00     0.187 HD
HETATM   16  C22 UNL     1       0.231  51.824 -21.471  1.00  0.00     0.105 A 
HETATM   17  N5  UNL     1       0.370  51.904 -20.123  1.00  0.00    -0.351 N 
ATOM     18  H5  UNL     1       0.036  51.141 -19.535  1.00  0.00     0.166 HD
BRANCH  14  19
HETATM   19  C4  UNL     1       0.179  52.353 -24.799  1.00  0.00    -0.004 A 
HETATM   20  C3  UNL     1       0.794  52.386 -26.055  1.00  0.00     0.038 A 
HETATM   21  C2  UNL     1       0.273  51.602 -27.080  1.00  0.00     0.005 A 
HETATM   22  C1  UNL     1       0.907  51.625 -28.439  1.00  0.00     0.068 C 
HETATM   23  N6  UNL     1      -0.802  50.799 -26.912  1.00  0.00    -0.369 N 
HETATM   24  C25 UNL     1      -1.369  50.767 -25.686  1.00  0.00     0.089 A 
ATOM     25  H6  UNL     1      -1.172  50.240 -27.682  1.00  0.00     0.165 HD
HETATM   26  C24 UNL     1      -0.921  51.513 -24.613  1.00  0.00     0.031 A 
ENDBRANCH  14  19
ENDBRANCH   1   7
BRANCH   4  27
HETATM   27  C10 UNL     1       0.867  51.522 -14.869  1.00  0.00     0.088 C 
HETATM   28  C11 UNL     1      -0.616  51.219 -14.630  1.00  0.00     0.025 C 
HETATM   29  C12 UNL     1      -0.808  50.154 -13.550  1.00  0.00     0.004 C 
HETATM   30  C13 UNL     1       0.330  50.113 -12.532  1.00  0.00     0.032 C 
HETATM   31  C14 UNL     1       0.937  51.497 -12.296  1.00  0.00     0.131 C 
HETATM   32  C21 UNL     1       1.530  52.069 -13.597  1.00  0.00     0.057 C 
BRANCH  31  33
HETATM   33  O2  UNL     1       1.962  51.343 -11.307  1.00  0.00    -0.346 OA
BRANCH  33  34
HETATM   34  C15 UNL     1       2.532  52.448 -10.741  1.00  0.00     0.072 A 
HETATM   35  C16 UNL     1       1.664  53.539 -10.606  1.00  0.00     0.038 A 
HETATM   36  C17 UNL     1       2.100  54.741 -10.039  1.00  0.00     0.030 A 
HETATM   37  C18 UNL     1       3.417  54.854  -9.601  1.00  0.00     0.072 A 
HETATM   38 CL1  UNL     1       3.954  56.328  -8.895  1.00  0.00    -0.081 Cl
HETATM   39  C19 UNL     1       4.282  53.769  -9.738  1.00  0.00     0.140 A 
HETATM   40  F1  UNL     1       5.555  53.854  -9.322  1.00  0.00    -0.204 F 
HETATM   41  C20 UNL     1       3.849  52.569 -10.306  1.00  0.00     0.080 A 
ENDBRANCH  33  34
ENDBRANCH  31  33
ENDBRANCH   4  27
TORSDOF 5
ENDMDL
MODEL 2
REMARK minimizedAffinity -10.1050673
REMARK CNNscore 0.718381763
REMARK CNNaffinity 7.79058456
REMARK  5 active torsions:
REMARK  status: ('A' for Active; 'I' for Inactive)
REMARK    1  A    between atoms: C4_4  and  C5_5 
REMARK    2  A    between atoms: C8_11  and  N3_12 
REMARK       I    between atoms: N3_12  and  C9_13 
REMARK       I    between atoms: C9_13  and  N4_15 
REMARK    3  A    between atoms: N4_15  and  C10_16 
REMARK    4  A    between atoms: C14_20  and  O2_21 
REMARK    5  A    between atoms: O2_21  and  C15_22 
ROOT
HETATM    1  N3  UNL     1       1.120  53.217 -18.401  1.00  0.00    -0.295 N 
HETATM    2  C9  UNL     1       1.095  52.308 -17.367  1.00  0.00     0.322 C 
HETATM    3  O1  UNL     1       0.868  51.110 -17.429  1.00  0.00    -0.247 OA
HETATM    4  N4  UNL     1       1.404  52.941 -16.168  1.00  0.00    -0.338 N 
HETATM    5  H7  UNL     1       1.579  54.091 -18.213  1.00  0.00     0.172 HD
HETATM    6  H8  UNL     1       1.091  53.899 -16.113  1.00  0.00     0.164 HD
ENDROOT
BRANCH   1   7
HETATM    7  C8  UNL     1       0.771  52.944 -19.730  1.00  0.00     0.111 A 
HETATM    8  C7  UNL     1      -0.290  52.062 -19.932  1.00  0.00     0.080 A 
HETATM    9  C6  UNL     1      -0.608  51.797 -21.264  1.00  0.00     0.065 A 
HETATM   10  N2  UNL     1      -1.568  51.013 -21.838  1.00  0.00    -0.299 N 
HETATM   11  C23 UNL     1       0.084  52.363 -22.328  1.00  0.00     0.036 A 
HETATM   12  N1  UNL     1      -1.565  51.033 -23.178  1.00  0.00    -0.299 N 
HETATM   13  H5  UNL     1      -2.261  50.441 -21.373  1.00  0.00     0.187 HD
HETATM   14  C5  UNL     1      -0.542  51.845 -23.504  1.00  0.00     0.072 A 
ATOM     15  H1  UNL     1      -2.198  50.543 -23.810  1.00  0.00     0.187 HD
HETATM   16  C22 UNL     1       1.127  53.243 -22.034  1.00  0.00     0.105 A 
HETATM   17  N5  UNL     1       1.460  53.502 -20.744  1.00  0.00    -0.351 N 
ATOM     18  H5  UNL     1       2.240  54.127 -20.540  1.00  0.00     0.166 HD
BRANCH  14  19
HETATM   19  C4  UNL     1      -0.216  52.105 -24.908  1.00  0.00    -0.004 A 
HETATM   20  C3  UNL     1       1.027  51.758 -25.446  1.00  0.00     0.038 A 
HETATM   21  C2  UNL     1       1.285  52.043 -26.784  1.00  0.00     0.005 A 
HETATM   22  C1  UNL     1       2.614  51.691 -27.384  1.00  0.00     0.068 C 
HETATM   23  N6  UNL     1       0.378  52.637 -27.593  1.00  0.00    -0.369 N 
HETATM   24  C25 UNL     1      -0.824  52.945 -27.059  1.00  0.00     0.089 A 
ATOM     25  H6  UNL     1       0.594  52.844 -28.568  1.00  0.00     0.165 HD
HETATM   26  C24 UNL     1      -1.164  52.702 -25.743  1.00  0.00     0.031 A 
ENDBRANCH  14  19
ENDBRANCH   1   7
BRANCH   4  27
HETATM   27  C10 UNL     1       1.383  52.185 -14.920  1.00  0.00     0.088 C 
HETATM   28  C11 UNL     1       2.666  51.367 -14.743  1.00  0.00     0.025 C 
HETATM   29  C12 UNL     1       2.703  50.664 -13.385  1.00  0.00     0.004 C 
HETATM   30  C13 UNL     1       1.315  50.361 -12.823  1.00  0.00     0.032 C 
HETATM   31  C14 UNL     1       0.300  50.071 -13.929  1.00  0.00     0.131 C 
HETATM   32  C21 UNL     1       0.141  51.283 -14.864  1.00  0.00     0.057 C 
BRANCH  31  33
HETATM   33  O2  UNL     1      -0.945  49.770 -13.288  1.00  0.00    -0.346 OA
BRANCH  33  34
HETATM   34  C15 UNL     1      -1.684  50.775 -12.733  1.00  0.00     0.072 A 
HETATM   35  C16 UNL     1      -1.445  50.981 -11.368  1.00  0.00     0.038 A 
HETATM   36  C17 UNL     1      -2.123  51.978 -10.660  1.00  0.00     0.030 A 
HETATM   37  C18 UNL     1      -3.049  52.779 -11.322  1.00  0.00     0.072 A 
HETATM   38 CL1  UNL     1      -3.879  54.013 -10.455  1.00  0.00    -0.081 Cl
HETATM   39  C19 UNL     1      -3.290  52.573 -12.680  1.00  0.00     0.140 A 
HETATM   40  F1  UNL     1      -4.177  53.334 -13.339  1.00  0.00    -0.204 F 
HETATM   41  C20 UNL     1      -2.616  51.576 -13.387  1.00  0.00     0.080 A 
ENDBRANCH  33  34
ENDBRANCH  31  33
ENDBRANCH   4  27
TORSDOF 5
ENDMDL
MODEL 3
REMARK minimizedAffinity -10.0608444
REMARK CNNscore 0.701934457
REMARK CNNaffinity 7.32868624
REMARK  5 active torsions:
REMARK  status: ('A' for Active; 'I' for Inactive)
REMARK    1  A    between atoms: C4_4  and  C5_5 
REMARK    2  A    between atoms: C8_11  and  N3_12 
REMARK       I    between atoms: N3_12  and  C9_13 
REMARK       I    between atoms: C9_13  and  N4_15 
REMARK    3  A    between atoms: N4_15  and  C10_16 
REMARK    4  A    between atoms: C14_20  and  O2_21 
REMARK    5  A    between atoms: O2_21  and  C15_22 
ROOT
HETATM    1  N3  UNL     1       0.246  52.280 -18.268  1.00  0.00    -0.295 N 
HETATM    2  C9  UNL     1       1.260  52.327 -17.338  1.00  0.00     0.322 C 
HETATM    3  O1  UNL     1       2.422  52.659 -17.515  1.00  0.00    -0.247 OA
HETATM    4  N4  UNL     1       0.778  51.958 -16.088  1.00  0.00    -0.338 N 
HETATM    5  H7  UNL     1      -0.690  52.244 -17.903  1.00  0.00     0.172 HD
HETATM    6  H8  UNL     1       0.042  51.268 -16.115  1.00  0.00     0.164 HD
ENDROOT
BRANCH   1   7
HETATM    7  C8  UNL     1       0.394  52.503 -19.643  1.00  0.00     0.111 A 
HETATM    8  C7  UNL     1       1.011  53.694 -20.023  1.00  0.00     0.080 A 
HETATM    9  C6  UNL     1       1.135  53.898 -21.397  1.00  0.00     0.065 A 
HETATM   10  N2  UNL     1       1.680  54.915 -22.127  1.00  0.00    -0.299 N 
HETATM   11  C23 UNL     1       0.670  52.984 -22.336  1.00  0.00     0.036 A 
HETATM   12  N1  UNL     1       1.620  54.734 -23.454  1.00  0.00    -0.299 N 
HETATM   13  H5  UNL     1       2.113  55.762 -21.783  1.00  0.00     0.187 HD
HETATM   14  C5  UNL     1       0.984  53.557 -23.608  1.00  0.00     0.072 A 
ATOM     15  H1  UNL     1       1.977  55.350 -24.184  1.00  0.00     0.187 HD
HETATM   16  C22 UNL     1       0.074  51.813 -21.867  1.00  0.00     0.105 A 
HETATM   17  N5  UNL     1      -0.067  51.604 -20.533  1.00  0.00    -0.351 N 
ATOM     18  H5  UNL     1      -0.528  50.756 -20.201  1.00  0.00     0.166 HD
BRANCH  14  19
HETATM   19  C4  UNL     1       0.720  53.023 -24.946  1.00  0.00    -0.004 A 
HETATM   20  C3  UNL     1       0.038  53.773 -25.909  1.00  0.00     0.038 A 
HETATM   21  C2  UNL     1      -0.198  53.208 -27.159  1.00  0.00     0.005 A 
HETATM   22  C1  UNL     1      -0.936  53.986 -28.208  1.00  0.00     0.068 C 
HETATM   23  N6  UNL     1       0.214  51.962 -27.488  1.00  0.00    -0.369 N 
HETATM   24  C25 UNL     1       0.889  51.263 -26.550  1.00  0.00     0.089 A 
ATOM     25  H6  UNL     1       0.021  51.566 -28.408  1.00  0.00     0.165 HD
HETATM   26  C24 UNL     1       1.164  51.743 -25.284  1.00  0.00     0.031 A 
ENDBRANCH  14  19
ENDBRANCH   1   7
BRANCH   4  27
HETATM   27  C10 UNL     1       1.690  51.878 -14.951  1.00  0.00     0.088 C 
HETATM   28  C11 UNL     1       2.440  50.543 -14.932  1.00  0.00     0.025 C 
HETATM   29  C12 UNL     1       3.482  50.497 -13.812  1.00  0.00     0.004 C 
HETATM   30  C13 UNL     1       3.132  51.391 -12.624  1.00  0.00     0.032 C 
HETATM   31  C14 UNL     1       1.621  51.490 -12.408  1.00  0.00     0.131 C 
HETATM   32  C21 UNL     1       0.926  52.101 -13.638  1.00  0.00     0.057 C 
BRANCH  31  33
HETATM   33  O2  UNL     1       1.415  52.318 -11.257  1.00  0.00    -0.346 OA
BRANCH  33  34
HETATM   34  C15 UNL     1       0.180  52.847 -11.012  1.00  0.00     0.072 A 
HETATM   35  C16 UNL     1      -0.845  51.897 -10.915  1.00  0.00     0.038 A 
HETATM   36  C17 UNL     1      -2.165  52.284 -10.662  1.00  0.00     0.030 A 
HETATM   37  C18 UNL     1      -2.464  53.634 -10.503  1.00  0.00     0.072 A 
HETATM   38 CL1  UNL     1      -4.086  54.114 -10.183  1.00  0.00    -0.081 Cl
HETATM   39  C19 UNL     1      -1.445  54.581 -10.602  1.00  0.00     0.140 A 
HETATM   40  F1  UNL     1      -1.709  55.888 -10.451  1.00  0.00    -0.204 F 
HETATM   41  C20 UNL     1      -0.127  54.196 -10.857  1.00  0.00     0.080 A 
ENDBRANCH  33  34
ENDBRANCH  31  33
ENDBRANCH   4  27
TORSDOF 5
ENDMDL
MODEL 4
REMARK minimizedAffinity -10.1801758
REMARK CNNscore 0.646132708
REMARK CNNaffinity 7.40024185
REMARK  5 active torsions:
REMARK  status: ('A' for Active; 'I' for Inactive)
REMARK    1  A    between atoms: C4_4  and  C5_5 
REMARK    2  A    between atoms: C8_11  and  N3_12 
REMARK       I    between atoms: N3_12  and  C9_13 
REMARK       I    between atoms: C9_13  and  N4_15 
REMARK    3  A    between atoms: N4_15  and  C10_16 
REMARK    4  A    between atoms: C14_20  and  O2_21 
REMARK    5  A    between atoms: O2_21  and  C15_22 
ROOT
HETATM    1  N3  UNL     1       1.205  53.014 -17.985  1.00  0.00    -0.295 N 
HETATM    2  C9  UNL     1       0.989  51.982 -17.100  1.00  0.00     0.322 C 
HETATM    3  O1  UNL     1       0.708  50.822 -17.358  1.00  0.00    -0.247 OA
HETATM    4  N4  UNL     1       1.163  52.428 -15.795  1.00  0.00    -0.338 N 
HETATM    5  H7  UNL     1       1.680  53.820 -17.618  1.00  0.00     0.172 HD
HETATM    6  H8  UNL     1       0.897  53.389 -15.647  1.00  0.00     0.164 HD
ENDROOT
BRANCH   1   7
HETATM    7  C8  UNL     1       1.029  52.944 -19.373  1.00  0.00     0.111 A 
HETATM    8  C7  UNL     1       1.474  54.036 -20.118  1.00  0.00     0.080 A 
HETATM    9  C6  UNL     1       1.274  53.946 -21.496  1.00  0.00     0.065 A 
HETATM   10  N2  UNL     1       1.581  54.793 -22.522  1.00  0.00    -0.299 N 
HETATM   11  C23 UNL     1       0.666  52.850 -22.097  1.00  0.00     0.036 A 
HETATM   12  N1  UNL     1       1.237  54.335 -23.734  1.00  0.00    -0.299 N 
HETATM   13  H5  UNL     1       2.030  55.698 -22.466  1.00  0.00     0.187 HD
HETATM   14  C5  UNL     1       0.653  53.146 -23.496  1.00  0.00     0.072 A 
ATOM     15  H1  UNL     1       1.385  54.788 -24.636  1.00  0.00     0.187 HD
HETATM   16  C22 UNL     1       0.260  51.798 -21.275  1.00  0.00     0.105 A 
HETATM   17  N5  UNL     1       0.434  51.873 -19.931  1.00  0.00    -0.351 N 
ATOM     18  H5  UNL     1       0.110  51.109 -19.337  1.00  0.00     0.166 HD
BRANCH  14  19
HETATM   19  C4  UNL     1       0.128  52.340 -24.599  1.00  0.00    -0.004 A 
HETATM   20  C3  UNL     1       0.732  52.346 -25.860  1.00  0.00     0.038 A 
HETATM   21  C2  UNL     1       0.180  51.571 -26.876  1.00  0.00     0.005 A 
HETATM   22  C1  UNL     1       0.802  51.567 -28.241  1.00  0.00     0.068 C 
HETATM   23  N6  UNL     1      -0.917  50.800 -26.693  1.00  0.00    -0.369 N 
HETATM   24  C25 UNL     1      -1.473  50.792 -25.462  1.00  0.00     0.089 A 
ATOM     25  H6  UNL     1      -1.309  50.247 -27.455  1.00  0.00     0.165 HD
HETATM   26  C24 UNL     1      -0.994  51.532 -24.398  1.00  0.00     0.031 A 
ENDBRANCH  14  19
ENDBRANCH   1   7
BRANCH   4  27
HETATM   27  C10 UNL     1       0.929  51.518 -14.679  1.00  0.00     0.088 C 
HETATM   28  C11 UNL     1       1.444  50.108 -14.991  1.00  0.00     0.025 C 
HETATM   29  C12 UNL     1       1.308  49.178 -13.785  1.00  0.00     0.004 C 
HETATM   30  C13 UNL     1       0.172  49.571 -12.842  1.00  0.00     0.032 C 
HETATM   31  C14 UNL     1      -1.000  50.205 -13.592  1.00  0.00     0.131 C 
HETATM   32  C21 UNL     1      -0.563  51.492 -14.314  1.00  0.00     0.057 C 
BRANCH  31  33
HETATM   33  O2  UNL     1      -2.011  50.499 -12.620  1.00  0.00    -0.346 OA
BRANCH  33  34
HETATM   34  C15 UNL     1      -1.977  51.683 -11.941  1.00  0.00     0.072 A 
HETATM   35  C16 UNL     1      -0.691  52.100 -11.573  1.00  0.00     0.038 A 
HETATM   36  C17 UNL     1      -0.493  53.296 -10.876  1.00  0.00     0.030 A 
HETATM   37  C18 UNL     1      -1.591  54.085 -10.543  1.00  0.00     0.072 A 
HETATM   38 CL1  UNL     1      -1.350  55.561  -9.693  1.00  0.00    -0.081 Cl
HETATM   39  C19 UNL     1      -2.871  53.669 -10.906  1.00  0.00     0.140 A 
HETATM   40  F1  UNL     1      -3.944  54.414 -10.598  1.00  0.00    -0.204 F 
HETATM   41  C20 UNL     1      -3.070  52.474 -11.600  1.00  0.00     0.080 A 
ENDBRANCH  33  34
ENDBRANCH  31  33
ENDBRANCH   4  27
TORSDOF 5
ENDMDL
MODEL 5
REMARK minimizedAffinity -10.233017
REMARK CNNscore 0.643471539
REMARK CNNaffinity 7.63474798
REMARK  5 active torsions:
REMARK  status: ('A' for Active; 'I' for Inactive)
REMARK    1  A    between atoms: C4_4  and  C5_5 
REMARK    2  A    between atoms: C8_11  and  N3_12 
REMARK       I    between atoms: N3_12  and  C9_13 
REMARK       I    between atoms: C9_13  and  N4_15 
REMARK    3  A    between atoms: N4_15  and  C10_16 
REMARK    4  A    between atoms: C14_20  and  O2_21 
REMARK    5  A    between atoms: O2_21  and  C15_22 
ROOT
HETATM    1  N3  UNL     1       1.360  53.351 -18.570  1.00  0.00    -0.295 N 
HETATM    2  C9  UNL     1       1.231  52.401 -17.582  1.00  0.00     0.322 C 
HETATM    3  O1  UNL     1       0.950  51.220 -17.712  1.00  0.00    -0.247 OA
HETATM    4  N4  UNL     1       1.501  52.965 -16.341  1.00  0.00    -0.338 N 
HETATM    5  H7  UNL     1       1.849  54.191 -18.317  1.00  0.00     0.172 HD
HETATM    6  H8  UNL     1       1.231  53.934 -16.258  1.00  0.00     0.164 HD
ENDROOT
BRANCH   1   7
HETATM    7  C8  UNL     1       1.075  53.154 -19.928  1.00  0.00     0.111 A 
HETATM    8  C7  UNL     1       1.534  54.129 -20.813  1.00  0.00     0.080 A 
HETATM    9  C6  UNL     1       1.226  53.915 -22.157  1.00  0.00     0.065 A 
HETATM   10  N2  UNL     1       1.509  54.629 -23.285  1.00  0.00    -0.299 N 
HETATM   11  C23 UNL     1       0.504  52.811 -22.595  1.00  0.00     0.036 A 
HETATM   12  N1  UNL     1       1.046  54.078 -24.416  1.00  0.00    -0.299 N 
HETATM   13  H5  UNL     1       2.020  55.500 -23.357  1.00  0.00     0.187 HD
HETATM   14  C5  UNL     1       0.405  52.964 -24.013  1.00  0.00     0.072 A 
ATOM     15  H1  UNL     1       1.155  54.424 -25.369  1.00  0.00     0.187 HD
HETATM   16  C22 UNL     1       0.092  51.880 -21.641  1.00  0.00     0.105 A 
HETATM   17  N5  UNL     1       0.371  52.078 -20.327  1.00  0.00    -0.351 N 
ATOM     18  H5  UNL     1       0.044  51.404 -19.635  1.00  0.00     0.166 HD
BRANCH  14  19
HETATM   19  C4  UNL     1      -0.253  52.091 -24.987  1.00  0.00    -0.004 A 
HETATM   20  C3  UNL     1      -1.222  51.160 -24.597  1.00  0.00     0.038 A 
HETATM   21  C2  UNL     1      -1.803  50.347 -25.564  1.00  0.00     0.005 A 
HETATM   22  C1  UNL     1      -2.837  49.333 -25.172  1.00  0.00     0.068 C 
HETATM   23  N6  UNL     1      -1.477  50.423 -26.875  1.00  0.00    -0.369 N 
HETATM   24  C25 UNL     1      -0.555  51.342 -27.234  1.00  0.00     0.089 A 
ATOM     25  H6  UNL     1      -1.910  49.809 -27.565  1.00  0.00     0.165 HD
HETATM   26  C24 UNL     1       0.075  52.187 -26.341  1.00  0.00     0.031 A 
ENDBRANCH  14  19
ENDBRANCH   1   7
BRANCH   4  27
HETATM   27  C10 UNL     1       1.371  52.158 -15.132  1.00  0.00     0.088 C 
HETATM   28  C11 UNL     1       2.620  51.301 -14.897  1.00  0.00     0.025 C 
HETATM   29  C12 UNL     1       2.541  50.540 -13.572  1.00  0.00     0.004 C 
HETATM   30  C13 UNL     1       1.110  50.248 -13.127  1.00  0.00     0.032 C 
HETATM   31  C14 UNL     1       0.173  50.030 -14.316  1.00  0.00     0.131 C 
HETATM   32  C21 UNL     1       0.110  51.284 -15.206  1.00  0.00     0.057 C 
BRANCH  31  33
HETATM   33  O2  UNL     1      -1.122  49.733 -13.782  1.00  0.00    -0.346 OA
BRANCH  33  34
HETATM   34  C15 UNL     1      -1.839  50.711 -13.154  1.00  0.00     0.072 A 
HETATM   35  C16 UNL     1      -1.652  50.762 -11.766  1.00  0.00     0.038 A 
HETATM   36  C17 UNL     1      -2.315  51.714 -10.985  1.00  0.00     0.030 A 
HETATM   37  C18 UNL     1      -3.174  52.624 -11.595  1.00  0.00     0.072 A 
HETATM   38 CL1  UNL     1      -3.985  53.801 -10.636  1.00  0.00    -0.081 Cl
HETATM   39  C19 UNL     1      -3.363  52.572 -12.975  1.00  0.00     0.140 A 
HETATM   40  F1  UNL     1      -4.184  53.440 -13.586  1.00  0.00    -0.204 F 
HETATM   41  C20 UNL     1      -2.703  51.621 -13.757  1.00  0.00     0.080 A 
ENDBRANCH  33  34
ENDBRANCH  31  33
ENDBRANCH   4  27
TORSDOF 5
ENDMDL
MODEL 6
REMARK minimizedAffinity -9.32889843
REMARK CNNscore 0.498725444
REMARK CNNaffinity 7.34618998
REMARK  5 active torsions:
REMARK  status: ('A' for Active; 'I' for Inactive)
REMARK    1  A    between atoms: C4_4  and  C5_5 
REMARK    2  A    between atoms: C8_11  and  N3_12 
REMARK       I    between atoms: N3_12  and  C9_13 
REMARK       I    between atoms: C9_13  and  N4_15 
REMARK    3  A    between atoms: N4_15  and  C10_16 
REMARK    4  A    between atoms: C14_20  and  O2_21 
REMARK    5  A    between atoms: O2_21  and  C15_22 
ROOT
HETATM    1  N3  UNL     1       1.186  53.040 -18.219  1.00  0.00    -0.295 N 
HETATM    2  C9  UNL     1       1.100  52.241 -17.101  1.00  0.00     0.322 C 
HETATM    3  O1  UNL     1       0.578  51.141 -17.006  1.00  0.00    -0.247 OA
HETATM    4  N4  UNL     1       1.738  52.852 -16.028  1.00  0.00    -0.338 N 
HETATM    5  H7  UNL     1       1.869  53.776 -18.187  1.00  0.00     0.172 HD
HETATM    6  H8  UNL     1       1.683  53.859 -16.032  1.00  0.00     0.164 HD
ENDROOT
BRANCH   1   7
HETATM    7  C8  UNL     1       0.578  52.777 -19.454  1.00  0.00     0.111 A 
HETATM    8  C7  UNL     1       1.206  53.295 -20.586  1.00  0.00     0.080 A 
HETATM    9  C6  UNL     1       0.572  53.030 -21.800  1.00  0.00     0.065 A 
HETATM   10  N2  UNL     1       0.889  53.357 -23.088  1.00  0.00    -0.299 N 
HETATM   11  C23 UNL     1      -0.610  52.306 -21.888  1.00  0.00     0.036 A 
HETATM   12  N1  UNL     1       0.022  52.896 -24.001  1.00  0.00    -0.299 N 
HETATM   13  H5  UNL     1       1.685  53.888 -23.415  1.00  0.00     0.187 HD
HETATM   14  C5  UNL     1      -0.923  52.260 -23.282  1.00  0.00     0.072 A 
ATOM     15  H1  UNL     1       0.068  53.003 -25.013  1.00  0.00     0.187 HD
HETATM   16  C22 UNL     1      -1.165  51.816 -20.704  1.00  0.00     0.105 A 
HETATM   17  N5  UNL     1      -0.570  52.075 -19.512  1.00  0.00    -0.351 N 
ATOM     18  H5  UNL     1      -0.997  51.735 -18.650  1.00  0.00     0.166 HD
BRANCH  14  19
HETATM   19  C4  UNL     1      -2.063  51.626 -23.947  1.00  0.00    -0.004 A 
HETATM   20  C3  UNL     1      -1.918  50.443 -24.677  1.00  0.00     0.038 A 
HETATM   21  C2  UNL     1      -3.034  49.894 -25.301  1.00  0.00     0.005 A 
HETATM   22  C1  UNL     1      -2.905  48.631 -26.099  1.00  0.00     0.068 C 
HETATM   23  N6  UNL     1      -4.263  50.454 -25.223  1.00  0.00    -0.369 N 
HETATM   24  C25 UNL     1      -4.386  51.586 -24.496  1.00  0.00     0.089 A 
ATOM     25  H6  UNL     1      -5.066  50.038 -25.697  1.00  0.00     0.165 HD
HETATM   26  C24 UNL     1      -3.333  52.200 -23.848  1.00  0.00     0.031 A 
ENDBRANCH  14  19
ENDBRANCH   1   7
BRANCH   4  27
HETATM   27  C10 UNL     1       1.727  52.213 -14.716  1.00  0.00     0.088 C 
HETATM   28  C11 UNL     1       2.332  50.807 -14.775  1.00  0.00     0.025 C 
HETATM   29  C12 UNL     1       2.431  50.176 -13.385  1.00  0.00     0.004 C 
HETATM   30  C13 UNL     1       1.382  50.703 -12.407  1.00  0.00     0.032 C 
HETATM   31  C14 UNL     1       0.074  51.066 -13.110  1.00  0.00     0.131 C 
HETATM   32  C21 UNL     1       0.298  52.175 -14.154  1.00  0.00     0.057 C 
BRANCH  31  33
HETATM   33  O2  UNL     1      -0.837  51.511 -12.098  1.00  0.00    -0.346 OA
BRANCH  33  34
HETATM   34  C15 UNL     1      -2.025  50.861 -11.920  1.00  0.00     0.072 A 
HETATM   35  C16 UNL     1      -2.125  49.644 -12.607  1.00  0.00     0.038 A 
HETATM   36  C17 UNL     1      -3.280  48.860 -12.519  1.00  0.00     0.030 A 
HETATM   37  C18 UNL     1      -4.346  49.296 -11.738  1.00  0.00     0.072 A 
HETATM   38 CL1  UNL     1      -5.765  48.329 -11.621  1.00  0.00    -0.081 Cl
HETATM   39  C19 UNL     1      -4.249  50.509 -11.057  1.00  0.00     0.140 A 
HETATM   40  F1  UNL     1      -5.263  50.948 -10.296  1.00  0.00    -0.204 F 
HETATM   41  C20 UNL     1      -3.097  51.293 -11.145  1.00  0.00     0.080 A 
ENDBRANCH  33  34
ENDBRANCH  31  33
ENDBRANCH   4  27
TORSDOF 5
ENDMDL
MODEL 7
REMARK minimizedAffinity -9.03925514
REMARK CNNscore 0.48210901
REMARK CNNaffinity 7.41492462
REMARK  5 active torsions:
REMARK  status: ('A' for Active; 'I' for Inactive)
REMARK    1  A    between atoms: C4_4  and  C5_5 
REMARK    2  A    between atoms: C8_11  and  N3_12 
REMARK       I    between atoms: N3_12  and  C9_13 
REMARK       I    between atoms: C9_13  and  N4_15 
REMARK    3  A    between atoms: N4_15  and  C10_16 
REMARK    4  A    between atoms: C14_20  and  O2_21 
REMARK    5  A    between atoms: O2_21  and  C15_22 
ROOT
HETATM    1  N3  UNL     1       1.252  53.134 -18.103  1.00  0.00    -0.295 N 
HETATM    2  C9  UNL     1       1.104  52.333 -16.993  1.00  0.00     0.322 C 
HETATM    3  O1  UNL     1       0.558  51.243 -16.924  1.00  0.00    -0.247 OA
HETATM    4  N4  UNL     1       1.707  52.929 -15.891  1.00  0.00    -0.338 N 
HETATM    5  H7  UNL     1       1.947  53.857 -18.038  1.00  0.00     0.172 HD
HETATM    6  H8  UNL     1       1.670  53.937 -15.893  1.00  0.00     0.164 HD
ENDROOT
BRANCH   1   7
HETATM    7  C8  UNL     1       0.692  52.886 -19.363  1.00  0.00     0.111 A 
HETATM    8  C7  UNL     1       1.342  53.451 -20.460  1.00  0.00     0.080 A 
HETATM    9  C6  UNL     1       0.756  53.200 -21.701  1.00  0.00     0.065 A 
HETATM   10  N2  UNL     1       1.105  53.569 -22.969  1.00  0.00    -0.299 N 
HETATM   11  C23 UNL     1      -0.402  52.445 -21.846  1.00  0.00     0.036 A 
HETATM   12  N1  UNL     1       0.282  53.108 -23.921  1.00  0.00    -0.299 N 
HETATM   13  H5  UNL     1       1.896  54.131 -23.256  1.00  0.00     0.187 HD
HETATM   14  C5  UNL     1      -0.667  52.427 -23.251  1.00  0.00     0.072 A 
ATOM     15  H1  UNL     1       0.358  53.243 -24.929  1.00  0.00     0.187 HD
HETATM   16  C22 UNL     1      -0.980  51.910 -20.694  1.00  0.00     0.105 A 
HETATM   17  N5  UNL     1      -0.432  52.155 -19.477  1.00  0.00    -0.351 N 
ATOM     18  H5  UNL     1      -0.878  51.780 -18.639  1.00  0.00     0.166 HD
BRANCH  14  19
HETATM   19  C4  UNL     1      -1.766  51.779 -23.970  1.00  0.00    -0.004 A 
HETATM   20  C3  UNL     1      -2.009  50.407 -23.850  1.00  0.00     0.038 A 
HETATM   21  C2  UNL     1      -3.059  49.844 -24.569  1.00  0.00     0.005 A 
HETATM   22  C1  UNL     1      -3.335  48.374 -24.467  1.00  0.00     0.068 C 
HETATM   23  N6  UNL     1      -3.865  50.571 -25.375  1.00  0.00    -0.369 N 
HETATM   24  C25 UNL     1      -3.627  51.898 -25.461  1.00  0.00     0.089 A 
ATOM     25  H6  UNL     1      -4.624  50.134 -25.900  1.00  0.00     0.165 HD
HETATM   26  C24 UNL     1      -2.606  52.540 -24.786  1.00  0.00     0.031 A 
ENDBRANCH  14  19
ENDBRANCH   1   7
BRANCH   4  27
HETATM   27  C10 UNL     1       1.628  52.286 -14.583  1.00  0.00     0.088 C 
HETATM   28  C11 UNL     1       2.525  51.046 -14.516  1.00  0.00     0.025 C 
HETATM   29  C12 UNL     1       2.538  50.434 -13.114  1.00  0.00     0.004 C 
HETATM   30  C13 UNL     1       1.260  50.707 -12.323  1.00  0.00     0.032 C 
HETATM   31  C14 UNL     1       0.031  50.787 -13.230  1.00  0.00     0.131 C 
HETATM   32  C21 UNL     1       0.171  51.932 -14.250  1.00  0.00     0.057 C 
BRANCH  31  33
HETATM   33  O2  UNL     1      -1.102  51.010 -12.383  1.00  0.00    -0.346 OA
BRANCH  33  34
HETATM   34  C15 UNL     1      -1.006  51.882 -11.336  1.00  0.00     0.072 A 
HETATM   35  C16 UNL     1      -0.490  53.139 -11.677  1.00  0.00     0.038 A 
HETATM   36  C17 UNL     1      -0.337  54.140 -10.713  1.00  0.00     0.030 A 
HETATM   37  C18 UNL     1      -0.703  53.885  -9.394  1.00  0.00     0.072 A 
HETATM   38 CL1  UNL     1      -0.524  55.118  -8.208  1.00  0.00    -0.081 Cl
HETATM   39  C19 UNL     1      -1.214  52.633  -9.054  1.00  0.00     0.140 A 
HETATM   40  F1  UNL     1      -1.576  52.364  -7.790  1.00  0.00    -0.204 F 
HETATM   41  C20 UNL     1      -1.366  51.631 -10.014  1.00  0.00     0.080 A 
ENDBRANCH  33  34
ENDBRANCH  31  33
ENDBRANCH   4  27
TORSDOF 5
ENDMDL
MODEL 8
REMARK minimizedAffinity -8.48455429
REMARK CNNscore 0.354388177
REMARK CNNaffinity 6.90108109
REMARK  5 active torsions:
REMARK  status: ('A' for Active; 'I' for Inactive)
REMARK    1  A    between atoms: C4_4  and  C5_5 
REMARK    2  A    between atoms: C8_11  and  N3_12 
REMARK       I    between atoms: N3_12  and  C9_13 
REMARK       I    between atoms: C9_13  and  N4_15 
REMARK    3  A    between atoms: N4_15  and  C10_16 
REMARK    4  A    between atoms: C14_20  and  O2_21 
REMARK    5  A    between atoms: O2_21  and  C15_22 
ROOT
HETATM    1  N3  UNL     1       0.375  51.521 -17.446  1.00  0.00    -0.295 N 
HETATM    2  C9  UNL     1      -0.367  51.289 -16.310  1.00  0.00     0.322 C 
HETATM    3  O1  UNL     1      -1.542  50.964 -16.237  1.00  0.00    -0.247 OA
HETATM    4  N4  UNL     1       0.428  51.449 -15.181  1.00  0.00    -0.338 N 
HETATM    5  H7  UNL     1       1.374  51.516 -17.333  1.00  0.00     0.172 HD
HETATM    6  H8  UNL     1       1.146  52.151 -15.276  1.00  0.00     0.164 HD
ENDROOT
BRANCH   1   7
HETATM    7  C8  UNL     1      -0.126  51.534 -18.755  1.00  0.00     0.111 A 
HETATM    8  C7  UNL     1       0.584  52.285 -19.691  1.00  0.00     0.080 A 
HETATM    9  C6  UNL     1       0.057  52.292 -20.982  1.00  0.00     0.065 A 
HETATM   10  N2  UNL     1       0.472  52.889 -22.138  1.00  0.00    -0.299 N 
HETATM   11  C23 UNL     1      -1.103  51.606 -21.323  1.00  0.00     0.036 A 
HETATM   12  N1  UNL     1      -0.310  52.640 -23.198  1.00  0.00    -0.299 N 
HETATM   13  H5  UNL     1       1.284  53.478 -22.274  1.00  0.00     0.187 HD
HETATM   14  C5  UNL     1      -1.300  51.866 -22.716  1.00  0.00     0.072 A 
ATOM     15  H1  UNL     1      -0.183  52.965 -24.156  1.00  0.00     0.187 HD
HETATM   16  C22 UNL     1      -1.745  50.873 -20.324  1.00  0.00     0.105 A 
HETATM   17  N5  UNL     1      -1.254  50.865 -19.059  1.00  0.00    -0.351 N 
ATOM     18  H5  UNL     1      -1.745  50.346 -18.331  1.00  0.00     0.166 HD
BRANCH  14  19
HETATM   19  C4  UNL     1      -2.372  51.395 -23.595  1.00  0.00    -0.004 A 
HETATM   20  C3  UNL     1      -2.267  50.188 -24.293  1.00  0.00     0.038 A 
HETATM   21  C2  UNL     1      -3.311  49.798 -25.126  1.00  0.00     0.005 A 
HETATM   22  C1  UNL     1      -3.220  48.513 -25.894  1.00  0.00     0.068 C 
HETATM   23  N6  UNL     1      -4.434  50.536 -25.284  1.00  0.00    -0.369 N 
HETATM   24  C25 UNL     1      -4.525  51.688 -24.585  1.00  0.00     0.089 A 
ATOM     25  H6  UNL     1      -5.183  50.234 -25.908  1.00  0.00     0.165 HD
HETATM   26  C24 UNL     1      -3.536  52.152 -23.739  1.00  0.00     0.031 A 
ENDBRANCH  14  19
ENDBRANCH   1   7
BRANCH   4  27
HETATM   27  C10 UNL     1      -0.160  51.309 -13.853  1.00  0.00     0.088 C 
HETATM   28  C11 UNL     1      -1.610  51.804 -13.830  1.00  0.00     0.025 C 
HETATM   29  C12 UNL     1      -2.270  51.554 -12.473  1.00  0.00     0.004 C 
HETATM   30  C13 UNL     1      -1.276  51.519 -11.314  1.00  0.00     0.032 C 
HETATM   31  C14 UNL     1      -0.090  52.455 -11.549  1.00  0.00     0.131 C 
HETATM   32  C21 UNL     1       0.692  52.050 -12.811  1.00  0.00     0.057 C 
BRANCH  31  33
HETATM   33  O2  UNL     1       0.751  52.365 -10.392  1.00  0.00    -0.346 OA
BRANCH  33  34
HETATM   34  C15 UNL     1       1.865  53.148 -10.299  1.00  0.00     0.072 A 
HETATM   35  C16 UNL     1       3.032  52.452  -9.957  1.00  0.00     0.038 A 
HETATM   36  C17 UNL     1       4.256  53.116  -9.828  1.00  0.00     0.030 A 
HETATM   37  C18 UNL     1       4.316  54.490 -10.044  1.00  0.00     0.072 A 
HETATM   38 CL1  UNL     1       5.822  55.309  -9.895  1.00  0.00    -0.081 Cl
HETATM   39  C19 UNL     1       3.155  55.184 -10.382  1.00  0.00     0.140 A 
HETATM   40  F1  UNL     1       3.188  56.508 -10.597  1.00  0.00    -0.204 F 
HETATM   41  C20 UNL     1       1.932  54.523 -10.509  1.00  0.00     0.080 A 
ENDBRANCH  33  34
ENDBRANCH  31  33
ENDBRANCH   4  27
TORSDOF 5
ENDMDL
MODEL 9
REMARK minimizedAffinity -9.18424892
REMARK CNNscore 0.323870182
REMARK CNNaffinity 7.35445642
REMARK  5 active torsions:
REMARK  status: ('A' for Active; 'I' for Inactive)
REMARK    1  A    between atoms: C4_4  and  C5_5 
REMARK    2  A    between atoms: C8_11  and  N3_12 
REMARK       I    between atoms: N3_12  and  C9_13 
REMARK       I    between atoms: C9_13  and  N4_15 
REMARK    3  A    between atoms: N4_15  and  C10_16 
REMARK    4  A    between atoms: C14_20  and  O2_21 
REMARK    5  A    between atoms: O2_21  and  C15_22 
ROOT
HETATM    1  N3  UNL     1       0.506  53.010 -20.766  1.00  0.00    -0.295 N 
HETATM    2  C9  UNL     1       0.213  52.200 -21.839  1.00  0.00     0.322 C 
HETATM    3  O1  UNL     1      -0.133  51.029 -21.820  1.00  0.00    -0.247 OA
HETATM    4  N4  UNL     1       0.335  52.916 -23.024  1.00  0.00    -0.338 N 
HETATM    5  H7  UNL     1       0.512  53.999 -20.945  1.00  0.00     0.172 HD
HETATM    6  H8  UNL     1       1.051  53.626 -23.007  1.00  0.00     0.164 HD
ENDROOT
BRANCH   1   7
HETATM    7  C8  UNL     1       0.571  52.595 -19.429  1.00  0.00     0.111 A 
HETATM    8  C7  UNL     1      -0.429  51.727 -18.993  1.00  0.00     0.080 A 
HETATM    9  C6  UNL     1      -0.350  51.340 -17.655  1.00  0.00     0.065 A 
HETATM   10  N2  UNL     1      -1.124  50.512 -16.894  1.00  0.00    -0.299 N 
HETATM   11  C23 UNL     1       0.651  51.789 -16.802  1.00  0.00     0.036 A 
HETATM   12  N1  UNL     1      -0.705  50.377 -15.628  1.00  0.00    -0.299 N 
HETATM   13  H5  UNL     1      -1.952  50.003 -17.177  1.00  0.00     0.187 HD
HETATM   14  C5  UNL     1       0.379  51.171 -15.542  1.00  0.00     0.072 A 
ATOM     15  H1  UNL     1      -1.116  49.801 -14.894  1.00  0.00     0.187 HD
HETATM   16  C22 UNL     1       1.617  52.649 -17.326  1.00  0.00     0.105 A 
HETATM   17  N5  UNL     1       1.548  53.047 -18.621  1.00  0.00    -0.351 N 
ATOM     18  H5  UNL     1       2.245  53.697 -18.987  1.00  0.00     0.166 HD
BRANCH  14  19
HETATM   19  C4  UNL     1       1.114  51.293 -14.281  1.00  0.00    -0.004 A 
HETATM   20  C3  UNL     1       0.741  52.224 -13.306  1.00  0.00     0.038 A 
HETATM   21  C2  UNL     1       1.486  52.305 -12.133  1.00  0.00     0.005 A 
HETATM   22  C1  UNL     1       1.114  53.301 -11.075  1.00  0.00     0.068 C 
HETATM   23  N6  UNL     1       2.555  51.514 -11.890  1.00  0.00    -0.369 N 
HETATM   24  C25 UNL     1       2.886  50.608 -12.836  1.00  0.00     0.089 A 
ATOM     25  H6  UNL     1       3.092  51.598 -11.026  1.00  0.00     0.165 HD
HETATM   26  C24 UNL     1       2.206  50.460 -14.029  1.00  0.00     0.031 A 
ENDBRANCH  14  19
ENDBRANCH   1   7
BRANCH   4  27
HETATM   27  C10 UNL     1       0.126  52.245 -24.304  1.00  0.00     0.088 C 
HETATM   28  C11 UNL     1       1.324  52.444 -25.239  1.00  0.00     0.025 C 
HETATM   29  C12 UNL     1       1.165  51.650 -26.536  1.00  0.00     0.004 C 
HETATM   30  C13 UNL     1      -0.293  51.408 -26.922  1.00  0.00     0.032 C 
HETATM   31  C14 UNL     1      -1.199  52.561 -26.488  1.00  0.00     0.131 C 
HETATM   32  C21 UNL     1      -1.172  52.738 -24.959  1.00  0.00     0.057 C 
BRANCH  31  33
HETATM   33  O2  UNL     1      -2.524  52.243 -26.930  1.00  0.00    -0.346 OA
BRANCH  33  34
HETATM   34  C15 UNL     1      -3.210  51.221 -26.338  1.00  0.00     0.072 A 
HETATM   35  C16 UNL     1      -3.829  51.566 -25.130  1.00  0.00     0.038 A 
HETATM   36  C17 UNL     1      -4.574  50.628 -24.408  1.00  0.00     0.030 A 
HETATM   37  C18 UNL     1      -4.703  49.331 -24.899  1.00  0.00     0.072 A 
HETATM   38 CL1  UNL     1      -5.626  48.177 -24.017  1.00  0.00    -0.081 Cl
HETATM   39  C19 UNL     1      -4.085  48.986 -26.100  1.00  0.00     0.140 A 
HETATM   40  F1  UNL     1      -4.197  47.743 -26.594  1.00  0.00    -0.204 F 
HETATM   41  C20 UNL     1      -3.340  49.921 -26.821  1.00  0.00     0.080 A 
ENDBRANCH  33  34
ENDBRANCH  31  33
ENDBRANCH   4  27
TORSDOF 5
ENDMDL
