MODEL 1
REMARK minimizedAffinity -9.13753128
REMARK  6 active torsions:
REMARK  status: ('A' for Active; 'I' for Inactive)
REMARK    1  A    between atoms: O1_2  and  C2_3 
REMARK    2  A    between atoms: C2_3  and  C3_4 
REMARK    3  A    between atoms: C3_4  and  N1_5 
REMARK    4  A    between atoms: C3_4  and  C17_28 
REMARK       I    between atoms: N1_5  and  C4_6 
REMARK       I    between atoms: C4_6  and  N2_8 
REMARK    5  A    between atoms: N2_8  and  C5_9 
REMARK    6  A    between atoms: N5_16  and  C9_17 
ROOT
HETATM    1  C5  UNL     1       0.823  52.971 -19.508  1.00  0.00     0.111 A 
HETATM    2  C6  UNL     1       1.322  54.060 -20.210  1.00  0.00     0.080 A 
HETATM    3  C7  UNL     1       1.229  53.964 -21.598  1.00  0.00     0.067 A 
HETATM    4  N3  UNL     1       1.601  54.813 -22.601  1.00  0.00    -0.298 N 
HETATM    5  N4  UNL     1       1.360  54.344 -23.834  1.00  0.00    -0.284 N 
ATOM      6  H4  UNL     1       1.579  54.790 -24.725  1.00  0.00     0.188 HD
HETATM    7  C8  UNL     1       0.769  53.161 -23.633  1.00  0.00     0.134 A 
HETATM    8  N5  UNL     1       0.343  52.302 -24.595  1.00  0.00    -0.339 N 
HETATM    9  C15 UNL     1       0.674  52.866 -22.241  1.00  0.00     0.053 A 
HETATM   10  C16 UNL     1       0.181  51.825 -21.455  1.00  0.00     0.107 A 
HETATM   11  N6  UNL     1       0.266  51.888 -20.100  1.00  0.00    -0.351 N 
ATOM     12  H6  UNL     1      -0.089  51.120 -19.530  1.00  0.00     0.166 HD
HETATM   13  H10 UNL     1       2.039  55.723 -22.513  1.00  0.00     0.187 HD
HETATM   14  H11 UNL     1       0.300  51.317 -24.365  1.00  0.00     0.167 HD
ENDROOT
BRANCH   1  15
HETATM   15  N2  UNL     1       0.829  52.884 -18.115  1.00  0.00    -0.295 N 
HETATM   16  C4  UNL     1       0.502  51.813 -17.328  1.00  0.00     0.322 C 
HETATM   17  N1  UNL     1       0.673  52.115 -15.993  1.00  0.00    -0.332 N 
HETATM   18  O2  UNL     1       0.094  50.726 -17.712  1.00  0.00    -0.247 OA
HETATM   19  H7  UNL     1       1.441  52.746 -15.815  1.00  0.00     0.165 HD
HETATM   20  H8  UNL     1       0.997  53.773 -17.673  1.00  0.00     0.172 HD
BRANCH  17  21
HETATM   21  C3  UNL     1       0.483  51.088 -14.966  1.00  0.00     0.143 C 
BRANCH  21  22
HETATM   22  C2  UNL     1      -0.401  51.563 -13.786  1.00  0.00     0.197 C 
BRANCH  22  23
HETATM   23  O1  UNL     1       0.008  52.870 -13.360  1.00  0.00    -0.394 OA
HETATM   24  C1  UNL     1      -0.075  53.009 -11.948  1.00  0.00     0.201 C 
ENDBRANCH  22  23
ENDBRANCH  21  22
BRANCH  21  25
HETATM   25  C17 UNL     1       1.851  50.623 -14.479  1.00  0.00    -0.033 A 
HETATM   26  C18 UNL     1       1.988  49.508 -13.634  1.00  0.00     0.009 A 
HETATM   27  C19 UNL     1       3.246  49.103 -13.187  1.00  0.00     0.001 A 
HETATM   28  C20 UNL     1       4.384  49.804 -13.579  1.00  0.00     0.000 A 
HETATM   29  C21 UNL     1       4.266  50.910 -14.420  1.00  0.00     0.001 A 
HETATM   30  C22 UNL     1       3.008  51.317 -14.868  1.00  0.00     0.009 A 
ENDBRANCH  21  25
ENDBRANCH  17  21
ENDBRANCH   1  15
BRANCH   8  31
HETATM   31  C9  UNL     1       0.343  52.519 -25.995  1.00  0.00     0.055 A 
HETATM   32  C10 UNL     1      -0.705  53.283 -26.540  1.00  0.00     0.031 A 
HETATM   33  C11 UNL     1      -0.816  53.480 -27.919  1.00  0.00     0.002 A 
HETATM   34  C12 UNL     1       0.118  52.912 -28.781  1.00  0.00     0.002 A 
HETATM   35  C13 UNL     1       1.168  52.155 -28.263  1.00  0.00     0.026 A 
HETATM   36  C14 UNL     1       1.283  51.956 -26.881  1.00  0.00     0.060 A 
HETATM   37 CL1  UNL     1       2.691  51.112 -26.328  1.00  0.00    -0.082 Cl
ENDBRANCH   8  31
TORSDOF 6
ENDMDL
MODEL 2
REMARK minimizedAffinity -9.12713718
REMARK  6 active torsions:
REMARK  status: ('A' for Active; 'I' for Inactive)
REMARK    1  A    between atoms: O1_2  and  C2_3 
REMARK    2  A    between atoms: C2_3  and  C3_4 
REMARK    3  A    between atoms: C3_4  and  N1_5 
REMARK    4  A    between atoms: C3_4  and  C17_28 
REMARK       I    between atoms: N1_5  and  C4_6 
REMARK       I    between atoms: C4_6  and  N2_8 
REMARK    5  A    between atoms: N2_8  and  C5_9 
REMARK    6  A    between atoms: N5_16  and  C9_17 
ROOT
HETATM    1  C5  UNL     1       0.877  52.978 -19.344  1.00  0.00     0.111 A 
HETATM    2  C6  UNL     1       0.043  52.033 -19.927  1.00  0.00     0.080 A 
HETATM    3  C7  UNL     1       0.004  52.057 -21.321  1.00  0.00     0.067 A 
HETATM    4  N3  UNL     1      -0.681  51.301 -22.230  1.00  0.00    -0.298 N 
HETATM    5  N4  UNL     1      -0.467  51.651 -23.506  1.00  0.00    -0.284 N 
ATOM      6  H4  UNL     1      -0.889  51.249 -24.343  1.00  0.00     0.188 HD
HETATM    7  C8  UNL     1       0.425  52.646 -23.435  1.00  0.00     0.134 A 
HETATM    8  N5  UNL     1       0.946  53.334 -24.485  1.00  0.00    -0.339 N 
HETATM    9  C15 UNL     1       0.745  52.951 -22.080  1.00  0.00     0.053 A 
HETATM   10  C16 UNL     1       1.571  53.854 -21.410  1.00  0.00     0.107 A 
HETATM   11  N6  UNL     1       1.623  53.859 -20.052  1.00  0.00    -0.351 N 
ATOM     12  H6  UNL     1       2.222  54.527 -19.566  1.00  0.00     0.166 HD
HETATM   13  H10 UNL     1      -1.324  50.539 -22.044  1.00  0.00     0.187 HD
HETATM   14  H11 UNL     1       1.263  54.281 -24.319  1.00  0.00     0.167 HD
ENDROOT
BRANCH   1  15
HETATM   15  N2  UNL     1       1.048  53.108 -17.965  1.00  0.00    -0.295 N 
HETATM   16  C4  UNL     1       1.000  52.133 -17.006  1.00  0.00     0.322 C 
HETATM   17  N1  UNL     1       1.259  52.659 -15.758  1.00  0.00    -0.332 N 
HETATM   18  O2  UNL     1       0.749  50.949 -17.185  1.00  0.00    -0.247 OA
HETATM   19  H7  UNL     1       1.920  53.422 -15.768  1.00  0.00     0.165 HD
HETATM   20  H8  UNL     1       1.106  54.070 -17.672  1.00  0.00     0.172 HD
BRANCH  17  21
HETATM   21  C3  UNL     1       1.363  51.785 -14.587  1.00  0.00     0.143 C 
BRANCH  21  22
HETATM   22  C2  UNL     1       1.540  50.292 -14.956  1.00  0.00     0.197 C 
BRANCH  22  23
HETATM   23  O1  UNL     1       2.435  49.660 -14.030  1.00  0.00    -0.394 OA
HETATM   24  C1  UNL     1       3.618  50.426 -13.842  1.00  0.00     0.201 C 
ENDBRANCH  22  23
ENDBRANCH  21  22
BRANCH  21  25
HETATM   25  C17 UNL     1       0.137  51.996 -13.706  1.00  0.00    -0.033 A 
HETATM   26  C18 UNL     1       0.210  52.739 -12.514  1.00  0.00     0.009 A 
HETATM   27  C19 UNL     1      -0.920  52.911 -11.713  1.00  0.00     0.001 A 
HETATM   28  C20 UNL     1      -2.135  52.346 -12.090  1.00  0.00     0.000 A 
HETATM   29  C21 UNL     1      -2.224  51.610 -13.271  1.00  0.00     0.001 A 
HETATM   30  C22 UNL     1      -1.096  51.436 -14.074  1.00  0.00     0.009 A 
ENDBRANCH  21  25
ENDBRANCH  17  21
ENDBRANCH   1  15
BRANCH   8  31
HETATM   31  C9  UNL     1       0.736  53.079 -25.863  1.00  0.00     0.055 A 
HETATM   32  C10 UNL     1      -0.160  53.914 -26.554  1.00  0.00     0.031 A 
HETATM   33  C11 UNL     1      -0.477  53.681 -27.896  1.00  0.00     0.002 A 
HETATM   34  C12 UNL     1       0.095  52.606 -28.570  1.00  0.00     0.002 A 
HETATM   35  C13 UNL     1       0.990  51.769 -27.906  1.00  0.00     0.026 A 
HETATM   36  C14 UNL     1       1.310  51.999 -26.562  1.00  0.00     0.060 A 
HETATM   37 CL1  UNL     1       2.528  50.983 -25.865  1.00  0.00    -0.082 Cl
ENDBRANCH   8  31
TORSDOF 6
ENDMDL
MODEL 3
REMARK minimizedAffinity -9.08313847
REMARK  6 active torsions:
REMARK  status: ('A' for Active; 'I' for Inactive)
REMARK    1  A    between atoms: O1_2  and  C2_3 
REMARK    2  A    between atoms: C2_3  and  C3_4 
REMARK    3  A    between atoms: C3_4  and  N1_5 
REMARK    4  A    between atoms: C3_4  and  C17_28 
REMARK       I    between atoms: N1_5  and  C4_6 
REMARK       I    between atoms: C4_6  and  N2_8 
REMARK    5  A    between atoms: N2_8  and  C5_9 
REMARK    6  A    between atoms: N5_16  and  C9_17 
ROOT
HETATM    1  C5  UNL     1       0.882  52.845 -18.981  1.00  0.00     0.111 A 
HETATM    2  C6  UNL     1       0.009  51.897 -19.500  1.00  0.00     0.080 A 
HETATM    3  C7  UNL     1      -0.093  51.885 -20.891  1.00  0.00     0.067 A 
HETATM    4  N3  UNL     1      -0.828  51.116 -21.747  1.00  0.00    -0.298 N 
HETATM    5  N4  UNL     1      -0.667  51.428 -23.040  1.00  0.00    -0.284 N 
ATOM      6  H4  UNL     1      -1.133  51.011 -23.846  1.00  0.00     0.188 HD
HETATM    7  C8  UNL     1       0.240  52.411 -23.037  1.00  0.00     0.134 A 
HETATM    8  N5  UNL     1       0.722  53.064 -24.127  1.00  0.00    -0.339 N 
HETATM    9  C15 UNL     1       0.626  52.748 -21.706  1.00  0.00     0.053 A 
HETATM   10  C16 UNL     1       1.493  53.656 -21.099  1.00  0.00     0.107 A 
HETATM   11  N6  UNL     1       1.607  53.696 -19.745  1.00  0.00    -0.351 N 
ATOM     12  H6  UNL     1       2.237  54.367 -19.305  1.00  0.00     0.166 HD
HETATM   13  H10 UNL     1      -1.473  50.369 -21.512  1.00  0.00     0.187 HD
HETATM   14  H11 UNL     1       1.060  54.010 -24.001  1.00  0.00     0.167 HD
ENDROOT
BRANCH   1  15
HETATM   15  N2  UNL     1       1.118  53.009 -17.615  1.00  0.00    -0.295 N 
HETATM   16  C4  UNL     1       1.022  52.077 -16.617  1.00  0.00     0.322 C 
HETATM   17  N1  UNL     1       1.374  52.623 -15.401  1.00  0.00    -0.332 N 
HETATM   18  O2  UNL     1       0.661  50.915 -16.740  1.00  0.00    -0.247 OA
HETATM   19  H7  UNL     1       2.099  53.323 -15.465  1.00  0.00     0.165 HD
HETATM   20  H8  UNL     1       1.271  53.972 -17.362  1.00  0.00     0.172 HD
BRANCH  17  21
HETATM   21  C3  UNL     1       1.447  51.786 -14.201  1.00  0.00     0.143 C 
BRANCH  21  22
HETATM   22  C2  UNL     1       1.517  50.272 -14.518  1.00  0.00     0.197 C 
BRANCH  22  23
HETATM   23  O1  UNL     1       2.604  49.670 -13.801  1.00  0.00    -0.394 OA
HETATM   24  C1  UNL     1       3.796  50.436 -13.919  1.00  0.00     0.201 C 
ENDBRANCH  22  23
ENDBRANCH  21  22
BRANCH  21  25
HETATM   25  C17 UNL     1       0.257  52.109 -13.304  1.00  0.00    -0.033 A 
HETATM   26  C18 UNL     1       0.403  52.898 -12.149  1.00  0.00     0.009 A 
HETATM   27  C19 UNL     1      -0.694  53.173 -11.332  1.00  0.00     0.001 A 
HETATM   28  C20 UNL     1      -1.950  52.666 -11.656  1.00  0.00     0.000 A 
HETATM   29  C21 UNL     1      -2.112  51.885 -12.800  1.00  0.00     0.001 A 
HETATM   30  C22 UNL     1      -1.016  51.608 -13.619  1.00  0.00     0.009 A 
ENDBRANCH  21  25
ENDBRANCH  17  21
ENDBRANCH   1  15
BRANCH   8  31
HETATM   31  C9  UNL     1       0.446  52.776 -25.487  1.00  0.00     0.055 A 
HETATM   32  C10 UNL     1       0.456  51.427 -25.885  1.00  0.00     0.031 A 
HETATM   33  C11 UNL     1       0.266  51.066 -27.223  1.00  0.00     0.002 A 
HETATM   34  C12 UNL     1       0.066  52.050 -28.187  1.00  0.00     0.002 A 
HETATM   35  C13 UNL     1       0.047  53.392 -27.814  1.00  0.00     0.026 A 
HETATM   36  C14 UNL     1       0.236  53.757 -26.475  1.00  0.00     0.060 A 
HETATM   37 CL1  UNL     1       0.067  55.439 -26.092  1.00  0.00    -0.082 Cl
ENDBRANCH   8  31
TORSDOF 6
ENDMDL
MODEL 4
REMARK minimizedAffinity -9.05813599
REMARK  6 active torsions:
REMARK  status: ('A' for Active; 'I' for Inactive)
REMARK    1  A    between atoms: O1_2  and  C2_3 
REMARK    2  A    between atoms: C2_3  and  C3_4 
REMARK    3  A    between atoms: C3_4  and  N1_5 
REMARK    4  A    between atoms: C3_4  and  C17_28 
REMARK       I    between atoms: N1_5  and  C4_6 
REMARK       I    between atoms: C4_6  and  N2_8 
REMARK    5  A    between atoms: N2_8  and  C5_9 
REMARK    6  A    between atoms: N5_16  and  C9_17 
ROOT
HETATM    1  C5  UNL     1      -3.318  48.783 -24.834  1.00  0.00     0.111 A 
HETATM    2  C6  UNL     1      -4.649  48.386 -24.799  1.00  0.00     0.080 A 
HETATM    3  C7  UNL     1      -5.256  48.242 -26.046  1.00  0.00     0.067 A 
HETATM    4  N3  UNL     1      -6.520  47.875 -26.411  1.00  0.00    -0.298 N 
HETATM    5  N4  UNL     1      -6.731  47.875 -27.734  1.00  0.00    -0.284 N 
ATOM      6  H4  UNL     1      -7.598  47.665 -28.229  1.00  0.00     0.188 HD
HETATM    7  C8  UNL     1      -5.549  48.214 -28.262  1.00  0.00     0.134 A 
HETATM    8  N5  UNL     1      -5.269  48.355 -29.584  1.00  0.00    -0.339 N 
HETATM    9  C15 UNL     1      -4.588  48.470 -27.241  1.00  0.00     0.053 A 
HETATM   10  C16 UNL     1      -3.246  48.849 -27.180  1.00  0.00     0.107 A 
HETATM   11  N6  UNL     1      -2.631  49.006 -25.979  1.00  0.00    -0.351 N 
ATOM     12  H6  UNL     1      -1.652  49.290 -25.939  1.00  0.00     0.166 HD
HETATM   13  H10 UNL     1      -7.293  47.625 -25.803  1.00  0.00     0.187 HD
HETATM   14  H11 UNL     1      -4.520  48.983 -29.845  1.00  0.00     0.167 HD
ENDROOT
BRANCH   1  15
HETATM   15  N2  UNL     1      -2.544  48.980 -23.690  1.00  0.00    -0.295 N 
HETATM   16  C4  UNL     1      -2.615  49.999 -22.778  1.00  0.00     0.322 C 
HETATM   17  N1  UNL     1      -1.700  49.814 -21.763  1.00  0.00    -0.332 N 
HETATM   18  O2  UNL     1      -3.360  50.968 -22.828  1.00  0.00    -0.247 OA
HETATM   19  H7  UNL     1      -1.544  48.844 -21.529  1.00  0.00     0.165 HD
HETATM   20  H8  UNL     1      -1.781  48.326 -23.622  1.00  0.00     0.172 HD
BRANCH  17  21
HETATM   21  C3  UNL     1      -1.663  50.725 -20.617  1.00  0.00     0.143 C 
BRANCH  21  22
HETATM   22  C2  UNL     1      -3.046  51.337 -20.281  1.00  0.00     0.197 C 
BRANCH  22  23
HETATM   23  O1  UNL     1      -3.098  51.703 -18.895  1.00  0.00    -0.394 OA
HETATM   24  C1  UNL     1      -2.904  50.576 -18.050  1.00  0.00     0.201 C 
ENDBRANCH  22  23
ENDBRANCH  21  22
BRANCH  21  25
HETATM   25  C17 UNL     1      -0.629  51.812 -20.886  1.00  0.00    -0.033 A 
HETATM   26  C18 UNL     1      -0.147  52.638 -19.855  1.00  0.00     0.009 A 
HETATM   27  C19 UNL     1       0.790  53.636 -20.122  1.00  0.00     0.001 A 
HETATM   28  C20 UNL     1       1.260  53.824 -21.419  1.00  0.00     0.000 A 
HETATM   29  C21 UNL     1       0.795  53.011 -22.452  1.00  0.00     0.001 A 
HETATM   30  C22 UNL     1      -0.143  52.011 -22.188  1.00  0.00     0.009 A 
ENDBRANCH  21  25
ENDBRANCH  17  21
ENDBRANCH   1  15
BRANCH   8  31
HETATM   31  C9  UNL     1      -6.131  48.077 -30.674  1.00  0.00     0.055 A 
HETATM   32  C10 UNL     1      -7.336  48.798 -30.756  1.00  0.00     0.031 A 
HETATM   33  C11 UNL     1      -8.272  48.530 -31.760  1.00  0.00     0.002 A 
HETATM   34  C12 UNL     1      -8.022  47.532 -32.697  1.00  0.00     0.002 A 
HETATM   35  C13 UNL     1      -6.832  46.808 -32.637  1.00  0.00     0.026 A 
HETATM   36  C14 UNL     1      -5.891  47.075 -31.634  1.00  0.00     0.060 A 
HETATM   37 CL1  UNL     1      -4.391  46.213 -31.722  1.00  0.00    -0.082 Cl
ENDBRANCH   8  31
TORSDOF 6
ENDMDL
MODEL 5
REMARK minimizedAffinity -8.79359913
REMARK  6 active torsions:
REMARK  status: ('A' for Active; 'I' for Inactive)
REMARK    1  A    between atoms: O1_2  and  C2_3 
REMARK    2  A    between atoms: C2_3  and  C3_4 
REMARK    3  A    between atoms: C3_4  and  N1_5 
REMARK    4  A    between atoms: C3_4  and  C17_28 
REMARK       I    between atoms: N1_5  and  C4_6 
REMARK       I    between atoms: C4_6  and  N2_8 
REMARK    5  A    between atoms: N2_8  and  C5_9 
REMARK    6  A    between atoms: N5_16  and  C9_17 
ROOT
HETATM    1  C5  UNL     1      -4.240  48.997 -25.963  1.00  0.00     0.111 A 
HETATM    2  C6  UNL     1      -3.828  48.345 -24.808  1.00  0.00     0.080 A 
HETATM    3  C7  UNL     1      -2.959  49.073 -23.996  1.00  0.00     0.067 A 
HETATM    4  N3  UNL     1      -2.354  48.776 -22.808  1.00  0.00    -0.298 N 
HETATM    5  N4  UNL     1      -1.555  49.746 -22.342  1.00  0.00    -0.284 N 
ATOM      6  H4  UNL     1      -0.986  49.733 -21.496  1.00  0.00     0.188 HD
HETATM    7  C8  UNL     1      -1.672  50.734 -23.235  1.00  0.00     0.134 A 
HETATM    8  N5  UNL     1      -1.037  51.935 -23.194  1.00  0.00    -0.339 N 
HETATM    9  C15 UNL     1      -2.535  50.357 -24.306  1.00  0.00     0.053 A 
HETATM   10  C16 UNL     1      -3.014  50.941 -25.479  1.00  0.00     0.107 A 
HETATM   11  N6  UNL     1      -3.855  50.253 -26.294  1.00  0.00    -0.351 N 
ATOM     12  H6  UNL     1      -4.197  50.681 -27.155  1.00  0.00     0.166 HD
HETATM   13  H10 UNL     1      -2.433  47.920 -22.268  1.00  0.00     0.187 HD
HETATM   14  H11 UNL     1      -0.871  52.413 -24.071  1.00  0.00     0.167 HD
ENDROOT
BRANCH   1  15
HETATM   15  N2  UNL     1      -5.108  48.432 -26.899  1.00  0.00    -0.295 N 
HETATM   16  C4  UNL     1      -4.977  48.383 -28.261  1.00  0.00     0.322 C 
HETATM   17  N1  UNL     1      -6.032  47.702 -28.830  1.00  0.00    -0.332 N 
HETATM   18  O2  UNL     1      -4.074  48.876 -28.922  1.00  0.00    -0.247 OA
HETATM   19  H7  UNL     1      -6.383  46.947 -28.260  1.00  0.00     0.165 HD
HETATM   20  H8  UNL     1      -5.976  48.129 -26.487  1.00  0.00     0.172 HD
BRANCH  17  21
HETATM   21  C3  UNL     1      -6.055  47.432 -30.270  1.00  0.00     0.143 C 
BRANCH  21  22
HETATM   22  C2  UNL     1      -5.307  48.502 -31.102  1.00  0.00     0.197 C 
BRANCH  22  23
HETATM   23  O1  UNL     1      -4.394  47.869 -32.010  1.00  0.00    -0.394 OA
HETATM   24  C1  UNL     1      -4.890  47.883 -33.343  1.00  0.00     0.201 C 
ENDBRANCH  22  23
ENDBRANCH  21  22
BRANCH  21  25
HETATM   25  C17 UNL     1      -7.505  47.295 -30.721  1.00  0.00    -0.033 A 
HETATM   26  C18 UNL     1      -8.495  48.195 -30.287  1.00  0.00     0.009 A 
HETATM   27  C19 UNL     1      -9.820  48.047 -30.699  1.00  0.00     0.001 A 
HETATM   28  C20 UNL     1     -10.175  47.002 -31.548  1.00  0.00     0.000 A 
HETATM   29  C21 UNL     1      -9.204  46.104 -31.990  1.00  0.00     0.001 A 
HETATM   30  C22 UNL     1      -7.878  46.249 -31.579  1.00  0.00     0.009 A 
ENDBRANCH  21  25
ENDBRANCH  17  21
ENDBRANCH   1  15
BRANCH   8  31
HETATM   31  C9  UNL     1      -0.206  52.427 -22.157  1.00  0.00     0.055 A 
HETATM   32  C10 UNL     1      -0.392  51.903 -20.865  1.00  0.00     0.031 A 
HETATM   33  C11 UNL     1       0.337  52.389 -19.776  1.00  0.00     0.002 A 
HETATM   34  C12 UNL     1       1.264  53.412 -19.958  1.00  0.00     0.002 A 
HETATM   35  C13 UNL     1       1.468  53.942 -21.231  1.00  0.00     0.026 A 
HETATM   36  C14 UNL     1       0.740  53.457 -22.325  1.00  0.00     0.060 A 
HETATM   37 CL1  UNL     1       1.159  54.088 -23.883  1.00  0.00    -0.082 Cl
ENDBRANCH   8  31
TORSDOF 6
ENDMDL
MODEL 6
REMARK minimizedAffinity -8.71119213
REMARK  6 active torsions:
REMARK  status: ('A' for Active; 'I' for Inactive)
REMARK    1  A    between atoms: O1_2  and  C2_3 
REMARK    2  A    between atoms: C2_3  and  C3_4 
REMARK    3  A    between atoms: C3_4  and  N1_5 
REMARK    4  A    between atoms: C3_4  and  C17_28 
REMARK       I    between atoms: N1_5  and  C4_6 
REMARK       I    between atoms: C4_6  and  N2_8 
REMARK    5  A    between atoms: N2_8  and  C5_9 
REMARK    6  A    between atoms: N5_16  and  C9_17 
ROOT
HETATM    1  C5  UNL     1      -3.001  50.792 -27.387  1.00  0.00     0.111 A 
HETATM    2  C6  UNL     1      -1.640  51.071 -27.408  1.00  0.00     0.080 A 
HETATM    3  C7  UNL     1      -1.094  51.445 -26.180  1.00  0.00     0.067 A 
HETATM    4  N3  UNL     1       0.176  51.787 -25.811  1.00  0.00    -0.298 N 
HETATM    5  N4  UNL     1       0.301  52.111 -24.516  1.00  0.00    -0.284 N 
ATOM      6  H4  UNL     1       1.141  52.423 -24.029  1.00  0.00     0.188 HD
HETATM    7  C8  UNL     1      -0.923  51.935 -24.007  1.00  0.00     0.134 A 
HETATM    8  N5  UNL     1      -1.296  52.149 -22.717  1.00  0.00    -0.339 N 
HETATM    9  C15 UNL     1      -1.844  51.529 -25.016  1.00  0.00     0.053 A 
HETATM   10  C16 UNL     1      -3.201  51.212 -25.086  1.00  0.00     0.107 A 
HETATM   11  N6  UNL     1      -3.762  50.853 -26.270  1.00  0.00    -0.351 N 
ATOM     12  H6  UNL     1      -4.757  50.630 -26.317  1.00  0.00     0.166 HD
HETATM   13  H10 UNL     1       1.002  51.834 -26.398  1.00  0.00     0.187 HD
HETATM   14  H11 UNL     1      -2.264  52.381 -22.537  1.00  0.00     0.167 HD
ENDROOT
BRANCH   1  15
HETATM   15  N2  UNL     1      -3.724  50.402 -28.515  1.00  0.00    -0.295 N 
HETATM   16  C4  UNL     1      -4.182  49.154 -28.843  1.00  0.00     0.322 C 
HETATM   17  N1  UNL     1      -4.889  49.187 -30.026  1.00  0.00    -0.332 N 
HETATM   18  O2  UNL     1      -3.998  48.124 -28.211  1.00  0.00    -0.247 OA
HETATM   19  H7  UNL     1      -5.405  50.043 -30.168  1.00  0.00     0.165 HD
HETATM   20  H8  UNL     1      -3.803  51.139 -29.197  1.00  0.00     0.172 HD
BRANCH  17  21
HETATM   21  C3  UNL     1      -5.565  47.986 -30.525  1.00  0.00     0.143 C 
BRANCH  21  22
HETATM   22  C2  UNL     1      -5.421  47.798 -32.055  1.00  0.00     0.197 C 
BRANCH  22  23
HETATM   23  O1  UNL     1      -4.092  48.141 -32.469  1.00  0.00    -0.394 OA
HETATM   24  C1  UNL     1      -3.747  47.508 -33.695  1.00  0.00     0.201 C 
ENDBRANCH  22  23
ENDBRANCH  21  22
BRANCH  21  25
HETATM   25  C17 UNL     1      -7.032  48.041 -30.110  1.00  0.00    -0.033 A 
HETATM   26  C18 UNL     1      -7.998  48.671 -30.914  1.00  0.00     0.009 A 
HETATM   27  C19 UNL     1      -9.333  48.723 -30.513  1.00  0.00     0.001 A 
HETATM   28  C20 UNL     1      -9.723  48.146 -29.307  1.00  0.00     0.000 A 
HETATM   29  C21 UNL     1      -8.777  47.514 -28.500  1.00  0.00     0.001 A 
HETATM   30  C22 UNL     1      -7.440  47.461 -28.899  1.00  0.00     0.009 A 
ENDBRANCH  21  25
ENDBRANCH  17  21
ENDBRANCH   1  15
BRANCH   8  31
HETATM   31  C9  UNL     1      -0.455  52.501 -21.632  1.00  0.00     0.055 A 
HETATM   32  C10 UNL     1       0.635  53.349 -21.897  1.00  0.00     0.031 A 
HETATM   33  C11 UNL     1       1.552  53.682 -20.895  1.00  0.00     0.002 A 
HETATM   34  C12 UNL     1       1.397  53.169 -19.611  1.00  0.00     0.002 A 
HETATM   35  C13 UNL     1       0.321  52.331 -19.325  1.00  0.00     0.026 A 
HETATM   36  C14 UNL     1      -0.601  51.995 -20.326  1.00  0.00     0.060 A 
HETATM   37 CL1  UNL     1      -1.972  51.055 -19.840  1.00  0.00    -0.082 Cl
ENDBRANCH   8  31
TORSDOF 6
ENDMDL
MODEL 7
REMARK minimizedAffinity -8.6682806
REMARK  6 active torsions:
REMARK  status: ('A' for Active; 'I' for Inactive)
REMARK    1  A    between atoms: O1_2  and  C2_3 
REMARK    2  A    between atoms: C2_3  and  C3_4 
REMARK    3  A    between atoms: C3_4  and  N1_5 
REMARK    4  A    between atoms: C3_4  and  C17_28 
REMARK       I    between atoms: N1_5  and  C4_6 
REMARK       I    between atoms: C4_6  and  N2_8 
REMARK    5  A    between atoms: N2_8  and  C5_9 
REMARK    6  A    between atoms: N5_16  and  C9_17 
ROOT
HETATM    1  C5  UNL     1      -3.387  49.943 -27.431  1.00  0.00     0.111 A 
HETATM    2  C6  UNL     1      -3.082  51.298 -27.423  1.00  0.00     0.080 A 
HETATM    3  C7  UNL     1      -2.464  51.759 -26.261  1.00  0.00     0.067 A 
HETATM    4  N3  UNL     1      -2.023  52.997 -25.889  1.00  0.00    -0.298 N 
HETATM    5  N4  UNL     1      -1.493  53.044 -24.659  1.00  0.00    -0.284 N 
ATOM      6  H4  UNL     1      -1.129  53.860 -24.167  1.00  0.00     0.188 HD
HETATM    7  C8  UNL     1      -1.549  51.781 -24.223  1.00  0.00     0.134 A 
HETATM    8  N5  UNL     1      -1.130  51.330 -23.011  1.00  0.00    -0.339 N 
HETATM    9  C15 UNL     1      -2.165  50.932 -25.188  1.00  0.00     0.053 A 
HETATM   10  C16 UNL     1      -2.491  49.579 -25.291  1.00  0.00     0.107 A 
HETATM   11  N6  UNL     1      -3.101  49.104 -26.408  1.00  0.00    -0.351 N 
ATOM     12  H6  UNL     1      -3.344  48.115 -26.475  1.00  0.00     0.166 HD
HETATM   13  H10 UNL     1      -2.068  53.858 -26.424  1.00  0.00     0.187 HD
HETATM   14  H11 UNL     1      -1.573  50.500 -22.636  1.00  0.00     0.167 HD
ENDROOT
BRANCH   1  15
HETATM   15  N2  UNL     1      -4.005  49.299 -28.504  1.00  0.00    -0.295 N 
HETATM   16  C4  UNL     1      -5.012  48.372 -28.474  1.00  0.00     0.322 C 
HETATM   17  N1  UNL     1      -5.376  48.003 -29.752  1.00  0.00    -0.332 N 
HETATM   18  O2  UNL     1      -5.534  47.898 -27.475  1.00  0.00    -0.247 OA
HETATM   19  H7  UNL     1      -5.303  48.750 -30.427  1.00  0.00     0.165 HD
HETATM   20  H8  UNL     1      -3.551  49.490 -29.383  1.00  0.00     0.172 HD
BRANCH  17  21
HETATM   21  C3  UNL     1      -6.507  47.097 -29.973  1.00  0.00     0.143 C 
BRANCH  21  22
HETATM   22  C2  UNL     1      -7.169  46.618 -28.658  1.00  0.00     0.197 C 
BRANCH  22  23
HETATM   23  O1  UNL     1      -8.579  46.874 -28.695  1.00  0.00    -0.394 OA
HETATM   24  C1  UNL     1      -8.866  48.248 -28.471  1.00  0.00     0.201 C 
ENDBRANCH  22  23
ENDBRANCH  21  22
BRANCH  21  25
HETATM   25  C17 UNL     1      -6.034  45.919 -30.816  1.00  0.00    -0.033 A 
HETATM   26  C18 UNL     1      -4.949  46.040 -31.702  1.00  0.00     0.009 A 
HETATM   27  C19 UNL     1      -4.538  44.955 -32.476  1.00  0.00     0.001 A 
HETATM   28  C20 UNL     1      -5.201  43.735 -32.377  1.00  0.00     0.000 A 
HETATM   29  C21 UNL     1      -6.277  43.597 -31.500  1.00  0.00     0.001 A 
HETATM   30  C22 UNL     1      -6.691  44.682 -30.724  1.00  0.00     0.009 A 
ENDBRANCH  21  25
ENDBRANCH  17  21
ENDBRANCH   1  15
BRANCH   8  31
HETATM   31  C9  UNL     1      -0.463  52.074 -22.006  1.00  0.00     0.055 A 
HETATM   32  C10 UNL     1       0.680  52.803 -22.382  1.00  0.00     0.031 A 
HETATM   33  C11 UNL     1       1.436  53.502 -21.436  1.00  0.00     0.002 A 
HETATM   34  C12 UNL     1       1.064  53.481 -20.095  1.00  0.00     0.002 A 
HETATM   35  C13 UNL     1      -0.068  52.769 -19.701  1.00  0.00     0.026 A 
HETATM   36  C14 UNL     1      -0.828  52.068 -20.646  1.00  0.00     0.060 A 
HETATM   37 CL1  UNL     1      -2.286  51.324 -20.078  1.00  0.00    -0.082 Cl
ENDBRANCH   8  31
TORSDOF 6
ENDMDL
MODEL 8
REMARK minimizedAffinity -8.64096355
REMARK  6 active torsions:
REMARK  status: ('A' for Active; 'I' for Inactive)
REMARK    1  A    between atoms: O1_2  and  C2_3 
REMARK    2  A    between atoms: C2_3  and  C3_4 
REMARK    3  A    between atoms: C3_4  and  N1_5 
REMARK    4  A    between atoms: C3_4  and  C17_28 
REMARK       I    between atoms: N1_5  and  C4_6 
REMARK       I    between atoms: C4_6  and  N2_8 
REMARK    5  A    between atoms: N2_8  and  C5_9 
REMARK    6  A    between atoms: N5_16  and  C9_17 
ROOT
HETATM    1  C5  UNL     1      -4.016  48.721 -26.199  1.00  0.00     0.111 A 
HETATM    2  C6  UNL     1      -4.433  48.812 -24.878  1.00  0.00     0.080 A 
HETATM    3  C7  UNL     1      -3.571  49.507 -24.031  1.00  0.00     0.067 A 
HETATM    4  N3  UNL     1      -3.638  49.800 -22.698  1.00  0.00    -0.298 N 
HETATM    5  N4  UNL     1      -2.582  50.483 -22.234  1.00  0.00    -0.284 N 
ATOM      6  H4  UNL     1      -2.404  50.782 -21.275  1.00  0.00     0.188 HD
HETATM    7  C8  UNL     1      -1.813  50.683 -23.310  1.00  0.00     0.134 A 
HETATM    8  N5  UNL     1      -0.617  51.329 -23.335  1.00  0.00    -0.339 N 
HETATM    9  C15 UNL     1      -2.383  50.076 -24.467  1.00  0.00     0.053 A 
HETATM   10  C16 UNL     1      -2.052  49.950 -25.816  1.00  0.00     0.107 A 
HETATM   11  N6  UNL     1      -2.869  49.271 -26.663  1.00  0.00    -0.351 N 
ATOM     12  H6  UNL     1      -2.618  49.175 -27.648  1.00  0.00     0.166 HD
HETATM   13  H10 UNL     1      -4.371  49.550 -22.044  1.00  0.00     0.187 HD
HETATM   14  H11 UNL     1       0.042  51.076 -24.059  1.00  0.00     0.167 HD
ENDROOT
BRANCH   1  15
HETATM   15  N2  UNL     1      -4.743  48.065 -27.194  1.00  0.00    -0.295 N 
HETATM   16  C4  UNL     1      -4.772  48.323 -28.538  1.00  0.00     0.322 C 
HETATM   17  N1  UNL     1      -5.589  47.426 -29.192  1.00  0.00    -0.332 N 
HETATM   18  O2  UNL     1      -4.183  49.226 -29.117  1.00  0.00    -0.247 OA
HETATM   19  H7  UNL     1      -5.585  46.502 -28.785  1.00  0.00     0.165 HD
HETATM   20  H8  UNL     1      -5.396  47.396 -26.817  1.00  0.00     0.172 HD
BRANCH  17  21
HETATM   21  C3  UNL     1      -5.694  47.441 -30.653  1.00  0.00     0.143 C 
BRANCH  21  22
HETATM   22  C2  UNL     1      -6.959  48.172 -31.165  1.00  0.00     0.197 C 
BRANCH  22  23
HETATM   23  O1  UNL     1      -7.039  48.076 -32.593  1.00  0.00    -0.394 OA
HETATM   24  C1  UNL     1      -8.374  47.850 -33.028  1.00  0.00     0.201 C 
ENDBRANCH  22  23
ENDBRANCH  21  22
BRANCH  21  25
HETATM   25  C17 UNL     1      -5.640  46.006 -31.165  1.00  0.00    -0.033 A 
HETATM   26  C18 UNL     1      -6.591  45.050 -30.767  1.00  0.00     0.009 A 
HETATM   27  C19 UNL     1      -6.519  43.737 -31.234  1.00  0.00     0.001 A 
HETATM   28  C20 UNL     1      -5.499  43.361 -32.104  1.00  0.00     0.000 A 
HETATM   29  C21 UNL     1      -4.550  44.298 -32.511  1.00  0.00     0.001 A 
HETATM   30  C22 UNL     1      -4.619  45.612 -32.045  1.00  0.00     0.009 A 
ENDBRANCH  21  25
ENDBRANCH  17  21
ENDBRANCH   1  15
BRANCH   8  31
HETATM   31  C9  UNL     1       0.009  52.008 -22.261  1.00  0.00     0.055 A 
HETATM   32  C10 UNL     1      -0.101  51.445 -20.977  1.00  0.00     0.031 A 
HETATM   33  C11 UNL     1       0.426  52.092 -19.855  1.00  0.00     0.002 A 
HETATM   34  C12 UNL     1       1.070  53.317 -19.997  1.00  0.00     0.002 A 
HETATM   35  C13 UNL     1       1.196  53.892 -21.261  1.00  0.00     0.026 A 
HETATM   36  C14 UNL     1       0.669  53.246 -22.387  1.00  0.00     0.060 A 
HETATM   37 CL1  UNL     1       0.989  53.975 -23.926  1.00  0.00    -0.082 Cl
ENDBRANCH   8  31
TORSDOF 6
ENDMDL
MODEL 9
REMARK minimizedAffinity -8.46786308
REMARK  6 active torsions:
REMARK  status: ('A' for Active; 'I' for Inactive)
REMARK    1  A    between atoms: O1_2  and  C2_3 
REMARK    2  A    between atoms: C2_3  and  C3_4 
REMARK    3  A    between atoms: C3_4  and  N1_5 
REMARK    4  A    between atoms: C3_4  and  C17_28 
REMARK       I    between atoms: N1_5  and  C4_6 
REMARK       I    between atoms: C4_6  and  N2_8 
REMARK    5  A    between atoms: N2_8  and  C5_9 
REMARK    6  A    between atoms: N5_16  and  C9_17 
ROOT
HETATM    1  C5  UNL     1      -3.511  49.086 -25.668  1.00  0.00     0.111 A 
HETATM    2  C6  UNL     1      -4.684  48.605 -25.101  1.00  0.00     0.080 A 
HETATM    3  C7  UNL     1      -5.606  48.078 -26.005  1.00  0.00     0.067 A 
HETATM    4  N3  UNL     1      -6.842  47.523 -25.832  1.00  0.00    -0.298 N 
HETATM    5  N4  UNL     1      -7.438  47.147 -26.972  1.00  0.00    -0.284 N 
ATOM      6  H4  UNL     1      -8.366  46.740 -27.086  1.00  0.00     0.188 HD
HETATM    7  C8  UNL     1      -6.543  47.426 -27.926  1.00  0.00     0.134 A 
HETATM    8  N5  UNL     1      -6.702  47.224 -29.261  1.00  0.00    -0.339 N 
HETATM    9  C15 UNL     1      -5.375  48.027 -27.373  1.00  0.00     0.053 A 
HETATM   10  C16 UNL     1      -4.160  48.517 -27.852  1.00  0.00     0.107 A 
HETATM   11  N6  UNL     1      -3.247  49.044 -26.995  1.00  0.00    -0.351 N 
ATOM     12  H6  UNL     1      -2.363  49.409 -27.352  1.00  0.00     0.166 HD
HETATM   13  H10 UNL     1      -7.344  47.386 -24.961  1.00  0.00     0.187 HD
HETATM   14  H11 UNL     1      -6.180  47.817 -29.894  1.00  0.00     0.167 HD
ENDROOT
BRANCH   1  15
HETATM   15  N2  UNL     1      -2.471  49.649 -24.926  1.00  0.00    -0.295 N 
HETATM   16  C4  UNL     1      -1.974  50.923 -24.989  1.00  0.00     0.322 C 
HETATM   17  N1  UNL     1      -0.968  51.102 -24.063  1.00  0.00    -0.332 N 
HETATM   18  O2  UNL     1      -2.331  51.805 -25.756  1.00  0.00    -0.247 OA
HETATM   19  H7  UNL     1      -1.104  50.581 -23.209  1.00  0.00     0.165 HD
HETATM   20  H8  UNL     1      -1.986  48.969 -24.363  1.00  0.00     0.172 HD
BRANCH  17  21
HETATM   21  C3  UNL     1      -0.354  52.420 -23.874  1.00  0.00     0.143 C 
BRANCH  21  22
HETATM   22  C2  UNL     1       0.861  52.663 -24.801  1.00  0.00     0.197 C 
BRANCH  22  23
HETATM   23  O1  UNL     1       0.622  53.805 -25.635  1.00  0.00    -0.394 OA
HETATM   24  C1  UNL     1       0.253  53.420 -26.954  1.00  0.00     0.201 C 
ENDBRANCH  22  23
ENDBRANCH  21  22
BRANCH  21  25
HETATM   25  C17 UNL     1       0.029  52.576 -22.406  1.00  0.00    -0.033 A 
HETATM   26  C18 UNL     1      -0.577  51.799 -21.404  1.00  0.00     0.009 A 
HETATM   27  C19 UNL     1      -0.224  51.964 -20.064  1.00  0.00     0.001 A 
HETATM   28  C20 UNL     1       0.738  52.906 -19.707  1.00  0.00     0.000 A 
HETATM   29  C21 UNL     1       1.351  53.682 -20.690  1.00  0.00     0.001 A 
HETATM   30  C22 UNL     1       0.999  53.519 -22.031  1.00  0.00     0.009 A 
ENDBRANCH  21  25
ENDBRANCH  17  21
ENDBRANCH   1  15
BRANCH   8  31
HETATM   31  C9  UNL     1      -7.793  46.591 -29.905  1.00  0.00     0.055 A 
HETATM   32  C10 UNL     1      -7.789  45.186 -29.972  1.00  0.00     0.031 A 
HETATM   33  C11 UNL     1      -8.792  44.491 -30.655  1.00  0.00     0.002 A 
HETATM   34  C12 UNL     1      -9.816  45.190 -31.287  1.00  0.00     0.002 A 
HETATM   35  C13 UNL     1      -9.843  46.582 -31.229  1.00  0.00     0.026 A 
HETATM   36  C14 UNL     1      -8.840  47.282 -30.545  1.00  0.00     0.060 A 
HETATM   37 CL1  UNL     1      -9.033  48.999 -30.420  1.00  0.00    -0.082 Cl
ENDBRANCH   8  31
TORSDOF 6
ENDMDL
