MODEL 1
REMARK minimizedAffinity -8.2486515
REMARK  7 active torsions:
REMARK  status: ('A' for Active; 'I' for Inactive)
REMARK    1  A    between atoms: O1_2  and  C2_3 
REMARK    2  A    between atoms: C2_3  and  C3_4 
REMARK    3  A    between atoms: C3_4  and  N1_5 
REMARK    4  A    between atoms: C3_4  and  C15_26 
REMARK       I    between atoms: N1_5  and  C4_6 
REMARK       I    between atoms: C4_6  and  N2_8 
REMARK    5  A    between atoms: N2_8  and  C5_9 
REMARK    6  A    between atoms: C8_15  and  O3_16 
REMARK    7  A    between atoms: O3_16  and  C9_17 
ROOT
HETATM    1  C5  UNL     1      -0.649  50.888 -21.064  1.00  0.00     0.111 A 
HETATM    2  C6  UNL     1       0.128  52.018 -20.779  1.00  0.00     0.080 A 
HETATM    3  C7  UNL     1       0.410  52.221 -19.424  1.00  0.00     0.067 A 
HETATM    4  N3  UNL     1       1.122  53.193 -18.757  1.00  0.00    -0.298 N 
HETATM    5  N4  UNL     1       1.214  53.004 -17.420  1.00  0.00    -0.279 N 
ATOM      6  H4  UNL     1       1.684  53.581 -16.723  1.00  0.00     0.189 HD
HETATM    7  C8  UNL     1       0.534  51.872 -17.247  1.00  0.00     0.171 A 
HETATM    8  C13 UNL     1      -0.033  51.354 -18.437  1.00  0.00     0.060 A 
HETATM    9  C14 UNL     1      -0.825  50.257 -18.805  1.00  0.00     0.108 A 
HETATM   10  N5  UNL     1      -1.127  50.038 -20.116  1.00  0.00    -0.351 N 
ATOM     11  H5  UNL     1      -1.707  49.242 -20.384  1.00  0.00     0.166 HD
HETATM   12  H10 UNL     1       1.565  54.004 -19.151  1.00  0.00     0.187 HD
ENDROOT
BRANCH   1  13
HETATM   13  N2  UNL     1      -0.991  50.490 -22.357  1.00  0.00    -0.295 N 
HETATM   14  C4  UNL     1      -1.237  51.258 -23.465  1.00  0.00     0.322 C 
HETATM   15  N1  UNL     1      -1.412  50.473 -24.575  1.00  0.00    -0.332 N 
HETATM   16  O2  UNL     1      -1.288  52.478 -23.502  1.00  0.00    -0.247 OA
HETATM   17  H7  UNL     1      -1.000  49.562 -24.537  1.00  0.00     0.165 HD
HETATM   18  H8  UNL     1      -1.069  49.492 -22.442  1.00  0.00     0.172 HD
BRANCH  15  19
HETATM   19  C3  UNL     1      -1.561  51.041 -25.911  1.00  0.00     0.143 C 
BRANCH  19  20
HETATM   20  C2  UNL     1      -2.418  50.117 -26.809  1.00  0.00     0.197 C 
BRANCH  20  21
HETATM   21  O1  UNL     1      -3.714  49.818 -26.275  1.00  0.00    -0.394 OA
HETATM   22  C1  UNL     1      -4.050  48.434 -26.319  1.00  0.00     0.201 C 
ENDBRANCH  20  21
ENDBRANCH  19  20
BRANCH  19  23
HETATM   23  C15 UNL     1      -0.200  51.288 -26.551  1.00  0.00    -0.033 A 
HETATM   24  C16 UNL     1       1.007  51.158 -25.824  1.00  0.00     0.009 A 
HETATM   25  C17 UNL     1       2.244  51.398 -26.437  1.00  0.00     0.001 A 
HETATM   26  C18 UNL     1       2.303  51.764 -27.778  1.00  0.00     0.000 A 
HETATM   27  C19 UNL     1       1.120  51.886 -28.512  1.00  0.00     0.001 A 
HETATM   28  C20 UNL     1      -0.130  51.646 -27.910  1.00  0.00     0.009 A 
ENDBRANCH  19  23
ENDBRANCH  15  19
ENDBRANCH   1  13
BRANCH   7  29
HETATM   29  O3  UNL     1       0.411  51.325 -16.020  1.00  0.00    -0.326 OA
BRANCH  29  30
HETATM   30  C9  UNL     1       1.167  51.957 -14.976  1.00  0.00     0.156 C 
HETATM   31  C10 UNL     1       2.352  51.196 -14.398  1.00  0.00     0.061 C 
HETATM   32  C11 UNL     1       2.434  51.791 -12.995  1.00  0.00     0.170 C 
HETATM   33  O4  UNL     1       1.091  52.144 -12.585  1.00  0.00    -0.389 OA
HETATM   34  C12 UNL     1       0.255  52.057 -13.733  1.00  0.00     0.200 C 
ENDBRANCH  29  30
ENDBRANCH   7  29
TORSDOF 7
ENDMDL
MODEL 2
REMARK minimizedAffinity -8.21236515
REMARK  7 active torsions:
REMARK  status: ('A' for Active; 'I' for Inactive)
REMARK    1  A    between atoms: O1_2  and  C2_3 
REMARK    2  A    between atoms: C2_3  and  C3_4 
REMARK    3  A    between atoms: C3_4  and  N1_5 
REMARK    4  A    between atoms: C3_4  and  C15_26 
REMARK       I    between atoms: N1_5  and  C4_6 
REMARK       I    between atoms: C4_6  and  N2_8 
REMARK    5  A    between atoms: N2_8  and  C5_9 
REMARK    6  A    between atoms: C8_15  and  O3_16 
REMARK    7  A    between atoms: O3_16  and  C9_17 
ROOT
HETATM    1  C5  UNL     1      -2.545  51.213 -27.048  1.00  0.00     0.111 A 
HETATM    2  C6  UNL     1      -1.896  52.419 -27.343  1.00  0.00     0.080 A 
HETATM    3  C7  UNL     1      -0.955  52.836 -26.395  1.00  0.00     0.067 A 
HETATM    4  N3  UNL     1      -0.133  53.938 -26.323  1.00  0.00    -0.298 N 
HETATM    5  N4  UNL     1       0.692  53.955 -25.251  1.00  0.00    -0.279 N 
ATOM      6  H4  UNL     1       1.383  54.656 -24.986  1.00  0.00     0.189 HD
HETATM    7  C8  UNL     1       0.372  52.820 -24.630  1.00  0.00     0.171 A 
HETATM    8  C13 UNL     1      -0.674  52.099 -25.256  1.00  0.00     0.060 A 
HETATM    9  C14 UNL     1      -1.385  50.912 -25.024  1.00  0.00     0.108 A 
HETATM   10  N5  UNL     1      -2.316  50.484 -25.923  1.00  0.00    -0.351 N 
ATOM     11  H5  UNL     1      -2.837  49.623 -25.753  1.00  0.00     0.166 HD
HETATM   12  H10 UNL     1      -0.086  54.708 -26.967  1.00  0.00     0.187 HD
ENDROOT
BRANCH   1  13
HETATM   13  N2  UNL     1      -3.476  50.608 -27.893  1.00  0.00    -0.295 N 
HETATM   14  C4  UNL     1      -3.800  49.283 -28.020  1.00  0.00     0.322 C 
HETATM   15  N1  UNL     1      -4.862  49.118 -28.872  1.00  0.00    -0.332 N 
HETATM   16  O2  UNL     1      -3.251  48.347 -27.460  1.00  0.00    -0.247 OA
HETATM   17  H7  UNL     1      -5.461  49.912 -28.983  1.00  0.00     0.165 HD
HETATM   18  H8  UNL     1      -3.946  51.273 -28.482  1.00  0.00     0.172 HD
BRANCH  15  19
HETATM   19  C3  UNL     1      -5.491  47.820 -29.086  1.00  0.00     0.143 C 
BRANCH  19  20
HETATM   20  C2  UNL     1      -5.657  47.531 -30.597  1.00  0.00     0.197 C 
BRANCH  20  21
HETATM   21  O1  UNL     1      -4.786  48.296 -31.439  1.00  0.00    -0.394 OA
HETATM   22  C1  UNL     1      -4.920  47.999 -32.827  1.00  0.00     0.201 C 
ENDBRANCH  20  21
ENDBRANCH  19  20
BRANCH  19  23
HETATM   23  C15 UNL     1      -6.840  47.746 -28.381  1.00  0.00    -0.033 A 
HETATM   24  C16 UNL     1      -6.965  47.305 -27.042  1.00  0.00     0.009 A 
HETATM   25  C17 UNL     1      -8.219  47.242 -26.421  1.00  0.00     0.001 A 
HETATM   26  C18 UNL     1      -9.365  47.619 -27.114  1.00  0.00     0.000 A 
HETATM   27  C19 UNL     1      -9.256  48.068 -28.433  1.00  0.00     0.001 A 
HETATM   28  C20 UNL     1      -8.003  48.138 -29.069  1.00  0.00     0.009 A 
ENDBRANCH  19  23
ENDBRANCH  15  19
ENDBRANCH   1  13
BRANCH   7  29
HETATM   29  O3  UNL     1       1.006  52.454 -23.498  1.00  0.00    -0.326 OA
BRANCH  29  30
HETATM   30  C9  UNL     1       0.449  52.963 -22.277  1.00  0.00     0.156 C 
HETATM   31  C10 UNL     1       1.322  53.874 -21.425  1.00  0.00     0.061 C 
HETATM   32  C11 UNL     1       0.733  53.638 -20.036  1.00  0.00     0.170 C 
HETATM   33  O4  UNL     1       0.248  52.275 -19.987  1.00  0.00    -0.389 OA
HETATM   34  C12 UNL     1       0.254  51.769 -21.317  1.00  0.00     0.200 C 
ENDBRANCH  29  30
ENDBRANCH   7  29
TORSDOF 7
ENDMDL
MODEL 3
REMARK minimizedAffinity -8.20546341
REMARK  7 active torsions:
REMARK  status: ('A' for Active; 'I' for Inactive)
REMARK    1  A    between atoms: O1_2  and  C2_3 
REMARK    2  A    between atoms: C2_3  and  C3_4 
REMARK    3  A    between atoms: C3_4  and  N1_5 
REMARK    4  A    between atoms: C3_4  and  C15_26 
REMARK       I    between atoms: N1_5  and  C4_6 
REMARK       I    between atoms: C4_6  and  N2_8 
REMARK    5  A    between atoms: N2_8  and  C5_9 
REMARK    6  A    between atoms: C8_15  and  O3_16 
REMARK    7  A    between atoms: O3_16  and  C9_17 
ROOT
HETATM    1  C5  UNL     1      -3.102  48.872 -24.515  1.00  0.00     0.111 A 
HETATM    2  C6  UNL     1      -4.446  48.480 -24.574  1.00  0.00     0.080 A 
HETATM    3  C7  UNL     1      -4.967  48.334 -25.864  1.00  0.00     0.067 A 
HETATM    4  N3  UNL     1      -6.212  47.975 -26.330  1.00  0.00    -0.298 N 
HETATM    5  N4  UNL     1      -6.306  47.892 -27.677  1.00  0.00    -0.279 N 
ATOM      6  H4  UNL     1      -7.115  47.648 -28.248  1.00  0.00     0.189 HD
HETATM    7  C8  UNL     1      -5.073  48.212 -28.067  1.00  0.00     0.171 A 
HETATM    8  C13 UNL     1      -4.202  48.544 -27.001  1.00  0.00     0.060 A 
HETATM    9  C14 UNL     1      -2.869  48.956 -26.854  1.00  0.00     0.108 A 
HETATM   10  N5  UNL     1      -2.335  49.119 -25.610  1.00  0.00    -0.351 N 
ATOM     11  H5  UNL     1      -1.367  49.423 -25.502  1.00  0.00     0.166 HD
HETATM   12  H10 UNL     1      -7.033  47.775 -25.786  1.00  0.00     0.187 HD
ENDROOT
BRANCH   1  13
HETATM   13  N2  UNL     1      -2.391  49.021 -23.323  1.00  0.00    -0.295 N 
HETATM   14  C4  UNL     1      -2.336  50.095 -22.475  1.00  0.00     0.322 C 
HETATM   15  N1  UNL     1      -1.624  49.789 -21.343  1.00  0.00    -0.332 N 
HETATM   16  O2  UNL     1      -2.847  51.189 -22.658  1.00  0.00    -0.247 OA
HETATM   17  H7  UNL     1      -1.569  48.817 -21.111  1.00  0.00     0.165 HD
HETATM   18  H8  UNL     1      -1.849  48.206 -23.098  1.00  0.00     0.172 HD
BRANCH  15  19
HETATM   19  C3  UNL     1      -1.520  50.712 -20.219  1.00  0.00     0.143 C 
BRANCH  19  20
HETATM   20  C2  UNL     1      -2.905  51.306 -19.865  1.00  0.00     0.197 C 
BRANCH  20  21
HETATM   21  O1  UNL     1      -3.079  51.598 -18.472  1.00  0.00    -0.394 OA
HETATM   22  C1  UNL     1      -2.858  50.478 -17.618  1.00  0.00     0.201 C 
ENDBRANCH  20  21
ENDBRANCH  19  20
BRANCH  19  23
HETATM   23  C15 UNL     1      -0.527  51.827 -20.521  1.00  0.00    -0.033 A 
HETATM   24  C16 UNL     1       0.256  51.836 -21.699  1.00  0.00     0.009 A 
HETATM   25  C17 UNL     1       1.166  52.872 -21.949  1.00  0.00     0.001 A 
HETATM   26  C18 UNL     1       1.310  53.914 -21.039  1.00  0.00     0.000 A 
HETATM   27  C19 UNL     1       0.535  53.925 -19.876  1.00  0.00     0.001 A 
HETATM   28  C20 UNL     1      -0.384  52.892 -19.613  1.00  0.00     0.009 A 
ENDBRANCH  19  23
ENDBRANCH  15  19
ENDBRANCH   1  13
BRANCH   7  29
HETATM   29  O3  UNL     1      -4.748  48.223 -29.375  1.00  0.00    -0.326 OA
BRANCH  29  30
HETATM   30  C9  UNL     1      -5.629  47.496 -30.245  1.00  0.00     0.156 C 
HETATM   31  C10 UNL     1      -5.002  46.650 -31.344  1.00  0.00     0.061 C 
HETATM   32  C11 UNL     1      -6.122  46.630 -32.381  1.00  0.00     0.170 C 
HETATM   33  O4  UNL     1      -6.842  47.881 -32.279  1.00  0.00    -0.389 OA
HETATM   34  C12 UNL     1      -6.413  48.528 -31.086  1.00  0.00     0.200 C 
ENDBRANCH  29  30
ENDBRANCH   7  29
TORSDOF 7
ENDMDL
MODEL 4
REMARK minimizedAffinity -8.17505455
REMARK  7 active torsions:
REMARK  status: ('A' for Active; 'I' for Inactive)
REMARK    1  A    between atoms: O1_2  and  C2_3 
REMARK    2  A    between atoms: C2_3  and  C3_4 
REMARK    3  A    between atoms: C3_4  and  N1_5 
REMARK    4  A    between atoms: C3_4  and  C15_26 
REMARK       I    between atoms: N1_5  and  C4_6 
REMARK       I    between atoms: C4_6  and  N2_8 
REMARK    5  A    between atoms: N2_8  and  C5_9 
REMARK    6  A    between atoms: C8_15  and  O3_16 
REMARK    7  A    between atoms: O3_16  and  C9_17 
ROOT
HETATM    1  C5  UNL     1       0.348  52.346 -19.984  1.00  0.00     0.111 A 
HETATM    2  C6  UNL     1       1.050  53.137 -19.065  1.00  0.00     0.080 A 
HETATM    3  C7  UNL     1       1.062  52.657 -17.752  1.00  0.00     0.067 A 
HETATM    4  N3  UNL     1       1.626  53.136 -16.591  1.00  0.00    -0.298 N 
HETATM    5  N4  UNL     1       1.456  52.337 -15.512  1.00  0.00    -0.279 N 
ATOM      6  H4  UNL     1       1.778  52.476 -14.555  1.00  0.00     0.189 HD
HETATM    7  C8  UNL     1       0.758  51.322 -16.019  1.00  0.00     0.171 A 
HETATM    8  C13 UNL     1       0.437  51.474 -17.390  1.00  0.00     0.060 A 
HETATM    9  C14 UNL     1      -0.265  50.752 -18.367  1.00  0.00     0.108 A 
HETATM   10  N5  UNL     1      -0.304  51.199 -19.654  1.00  0.00    -0.351 N 
ATOM     11  H5  UNL     1      -0.817  50.677 -20.364  1.00  0.00     0.166 HD
HETATM   12  H10 UNL     1       2.135  53.994 -16.468  1.00  0.00     0.187 HD
ENDROOT
BRANCH   1  13
HETATM   13  N2  UNL     1       0.266  52.632 -21.348  1.00  0.00    -0.295 N 
HETATM   14  C4  UNL     1      -0.282  51.886 -22.358  1.00  0.00     0.322 C 
HETATM   15  N1  UNL     1      -0.276  52.583 -23.539  1.00  0.00    -0.332 N 
HETATM   16  O2  UNL     1      -0.736  50.757 -22.260  1.00  0.00    -0.247 OA
HETATM   17  H7  UNL     1      -0.240  53.580 -23.459  1.00  0.00     0.165 HD
HETATM   18  H8  UNL     1       0.690  53.512 -21.580  1.00  0.00     0.172 HD
BRANCH  15  19
HETATM   19  C3  UNL     1      -0.916  52.071 -24.745  1.00  0.00     0.143 C 
BRANCH  19  20
HETATM   20  C2  UNL     1      -1.610  50.716 -24.467  1.00  0.00     0.197 C 
BRANCH  20  21
HETATM   21  O1  UNL     1      -2.756  50.464 -25.290  1.00  0.00    -0.394 OA
HETATM   22  C1  UNL     1      -3.705  51.528 -25.297  1.00  0.00     0.201 C 
ENDBRANCH  20  21
ENDBRANCH  19  20
BRANCH  19  23
HETATM   23  C15 UNL     1       0.094  51.926 -25.878  1.00  0.00    -0.033 A 
HETATM   24  C16 UNL     1      -0.291  51.982 -27.238  1.00  0.00     0.009 A 
HETATM   25  C17 UNL     1       0.658  51.840 -28.259  1.00  0.00     0.001 A 
HETATM   26  C18 UNL     1       2.000  51.645 -27.948  1.00  0.00     0.000 A 
HETATM   27  C19 UNL     1       2.396  51.599 -26.609  1.00  0.00     0.001 A 
HETATM   28  C20 UNL     1       1.455  51.742 -25.572  1.00  0.00     0.009 A 
ENDBRANCH  19  23
ENDBRANCH  15  19
ENDBRANCH   1  13
BRANCH   7  29
HETATM   29  O3  UNL     1       0.399  50.279 -15.243  1.00  0.00    -0.326 OA
BRANCH  29  30
HETATM   30  C9  UNL     1      -0.804  50.453 -14.480  1.00  0.00     0.156 C 
HETATM   31  C10 UNL     1      -2.087  50.759 -15.238  1.00  0.00     0.061 C 
HETATM   32  C11 UNL     1      -2.888  51.512 -14.180  1.00  0.00     0.170 C 
HETATM   33  O4  UNL     1      -1.950  52.227 -13.340  1.00  0.00    -0.389 OA
HETATM   34  C12 UNL     1      -0.646  51.744 -13.646  1.00  0.00     0.200 C 
ENDBRANCH  29  30
ENDBRANCH   7  29
TORSDOF 7
ENDMDL
MODEL 5
REMARK minimizedAffinity -8.15569973
REMARK  7 active torsions:
REMARK  status: ('A' for Active; 'I' for Inactive)
REMARK    1  A    between atoms: O1_2  and  C2_3 
REMARK    2  A    between atoms: C2_3  and  C3_4 
REMARK    3  A    between atoms: C3_4  and  N1_5 
REMARK    4  A    between atoms: C3_4  and  C15_26 
REMARK       I    between atoms: N1_5  and  C4_6 
REMARK       I    between atoms: C4_6  and  N2_8 
REMARK    5  A    between atoms: N2_8  and  C5_9 
REMARK    6  A    between atoms: C8_15  and  O3_16 
REMARK    7  A    between atoms: O3_16  and  C9_17 
ROOT
HETATM    1  C5  UNL     1       0.828  52.960 -19.793  1.00  0.00     0.111 A 
HETATM    2  C6  UNL     1       1.357  54.048 -20.500  1.00  0.00     0.080 A 
HETATM    3  C7  UNL     1       1.209  53.984 -21.889  1.00  0.00     0.067 A 
HETATM    4  N3  UNL     1       1.586  54.833 -22.905  1.00  0.00    -0.298 N 
HETATM    5  N4  UNL     1       1.204  54.436 -24.141  1.00  0.00    -0.279 N 
ATOM      6  H4  UNL     1       1.365  54.893 -25.038  1.00  0.00     0.189 HD
HETATM    7  C8  UNL     1       0.565  53.296 -23.886  1.00  0.00     0.171 A 
HETATM    8  C13 UNL     1       0.568  52.928 -22.518  1.00  0.00     0.060 A 
HETATM    9  C14 UNL     1       0.086  51.867 -21.739  1.00  0.00     0.108 A 
HETATM   10  N5  UNL     1       0.225  51.894 -20.382  1.00  0.00    -0.351 N 
ATOM     11  H5  UNL     1      -0.122  51.120 -19.815  1.00  0.00     0.166 HD
HETATM   12  H10 UNL     1       2.102  55.692 -22.823  1.00  0.00     0.187 HD
ENDROOT
BRANCH   1  13
HETATM   13  N2  UNL     1       0.833  52.865 -18.400  1.00  0.00    -0.295 N 
HETATM   14  C4  UNL     1       0.441  51.824 -17.600  1.00  0.00     0.322 C 
HETATM   15  N1  UNL     1       0.729  52.083 -16.285  1.00  0.00    -0.332 N 
HETATM   16  O2  UNL     1      -0.084  50.786 -17.970  1.00  0.00    -0.247 OA
HETATM   17  H7  UNL     1       1.460  52.746 -16.119  1.00  0.00     0.165 HD
HETATM   18  H8  UNL     1       1.168  53.705 -17.962  1.00  0.00     0.172 HD
BRANCH  15  19
HETATM   19  C3  UNL     1       0.533  51.087 -15.237  1.00  0.00     0.143 C 
BRANCH  19  20
HETATM   20  C2  UNL     1      -0.366  51.646 -14.108  1.00  0.00     0.197 C 
BRANCH  20  21
HETATM   21  O1  UNL     1       0.123  52.855 -13.513  1.00  0.00    -0.394 OA
HETATM   22  C1  UNL     1       0.057  52.863 -12.090  1.00  0.00     0.201 C 
ENDBRANCH  20  21
ENDBRANCH  19  20
BRANCH  19  23
HETATM   23  C15 UNL     1       1.869  50.624 -14.670  1.00  0.00    -0.033 A 
HETATM   24  C16 UNL     1       3.063  51.358 -14.866  1.00  0.00     0.009 A 
HETATM   25  C17 UNL     1       4.279  50.905 -14.338  1.00  0.00     0.001 A 
HETATM   26  C18 UNL     1       4.329  49.723 -13.605  1.00  0.00     0.000 A 
HETATM   27  C19 UNL     1       3.156  48.994 -13.393  1.00  0.00     0.001 A 
HETATM   28  C20 UNL     1       1.927  49.437 -13.916  1.00  0.00     0.009 A 
ENDBRANCH  19  23
ENDBRANCH  15  19
ENDBRANCH   1  13
BRANCH   7  29
HETATM   29  O3  UNL     1       0.002  52.585 -24.885  1.00  0.00    -0.326 OA
BRANCH  29  30
HETATM   30  C9  UNL     1       0.559  52.794 -26.191  1.00  0.00     0.156 C 
HETATM   31  C10 UNL     1      -0.334  53.422 -27.252  1.00  0.00     0.061 C 
HETATM   32  C11 UNL     1       0.287  52.870 -28.532  1.00  0.00     0.170 C 
HETATM   33  O4  UNL     1       0.828  51.561 -28.232  1.00  0.00    -0.389 OA
HETATM   34  C12 UNL     1       0.819  51.407 -26.817  1.00  0.00     0.200 C 
ENDBRANCH  29  30
ENDBRANCH   7  29
TORSDOF 7
ENDMDL
MODEL 6
REMARK minimizedAffinity -8.00891781
REMARK  7 active torsions:
REMARK  status: ('A' for Active; 'I' for Inactive)
REMARK    1  A    between atoms: O1_2  and  C2_3 
REMARK    2  A    between atoms: C2_3  and  C3_4 
REMARK    3  A    between atoms: C3_4  and  N1_5 
REMARK    4  A    between atoms: C3_4  and  C15_26 
REMARK       I    between atoms: N1_5  and  C4_6 
REMARK       I    between atoms: C4_6  and  N2_8 
REMARK    5  A    between atoms: N2_8  and  C5_9 
REMARK    6  A    between atoms: C8_15  and  O3_16 
REMARK    7  A    between atoms: O3_16  and  C9_17 
ROOT
HETATM    1  C5  UNL     1       0.774  53.001 -19.315  1.00  0.00     0.111 A 
HETATM    2  C6  UNL     1      -0.067  52.028 -19.870  1.00  0.00     0.080 A 
HETATM    3  C7  UNL     1      -0.128  52.019 -21.267  1.00  0.00     0.067 A 
HETATM    4  N3  UNL     1      -0.823  51.239 -22.164  1.00  0.00    -0.298 N 
HETATM    5  N4  UNL     1      -0.567  51.512 -23.464  1.00  0.00    -0.279 N 
ATOM      6  H4  UNL     1      -0.954  51.073 -24.299  1.00  0.00     0.189 HD
HETATM    7  C8  UNL     1       0.322  52.500 -23.375  1.00  0.00     0.171 A 
HETATM    8  C13 UNL     1       0.606  52.900 -22.046  1.00  0.00     0.060 A 
HETATM    9  C14 UNL     1       1.409  53.859 -21.412  1.00  0.00     0.108 A 
HETATM   10  N5  UNL     1       1.481  53.901 -20.051  1.00  0.00    -0.351 N 
ATOM     11  H5  UNL     1       2.061  54.601 -19.588  1.00  0.00     0.166 HD
HETATM   12  H10 UNL     1      -1.483  50.510 -21.955  1.00  0.00     0.187 HD
ENDROOT
BRANCH   1  13
HETATM   13  N2  UNL     1       1.006  53.135 -17.945  1.00  0.00    -0.295 N 
HETATM   14  C4  UNL     1       0.897  52.198 -16.952  1.00  0.00     0.322 C 
HETATM   15  N1  UNL     1       1.343  52.699 -15.756  1.00  0.00    -0.332 N 
HETATM   16  O2  UNL     1       0.476  51.058 -17.076  1.00  0.00    -0.247 OA
HETATM   17  H7  UNL     1       1.987  53.462 -15.814  1.00  0.00     0.165 HD
HETATM   18  H8  UNL     1       1.280  54.068 -17.694  1.00  0.00     0.172 HD
BRANCH  15  19
HETATM   19  C3  UNL     1       1.455  51.870 -14.561  1.00  0.00     0.143 C 
BRANCH  19  20
HETATM   20  C2  UNL     1       1.635  50.380 -14.941  1.00  0.00     0.197 C 
BRANCH  20  21
HETATM   21  O1  UNL     1       2.035  49.541 -13.850  1.00  0.00    -0.394 OA
HETATM   22  C1  UNL     1       3.380  49.752 -13.426  1.00  0.00     0.201 C 
ENDBRANCH  20  21
ENDBRANCH  19  20
BRANCH  19  23
HETATM   23  C15 UNL     1       0.238  52.044 -13.661  1.00  0.00    -0.033 A 
HETATM   24  C16 UNL     1      -1.016  51.468 -13.975  1.00  0.00     0.009 A 
HETATM   25  C17 UNL     1      -2.120  51.649 -13.132  1.00  0.00     0.001 A 
HETATM   26  C18 UNL     1      -1.997  52.398 -11.966  1.00  0.00     0.000 A 
HETATM   27  C19 UNL     1      -0.762  52.963 -11.637  1.00  0.00     0.001 A 
HETATM   28  C20 UNL     1       0.356  52.788 -12.473  1.00  0.00     0.009 A 
ENDBRANCH  19  23
ENDBRANCH  15  19
ENDBRANCH   1  13
BRANCH   7  29
HETATM   29  O3  UNL     1       0.854  53.048 -24.487  1.00  0.00    -0.326 OA
BRANCH  29  30
HETATM   30  C9  UNL     1       0.525  52.396 -25.723  1.00  0.00     0.156 C 
HETATM   31  C10 UNL     1       1.661  51.763 -26.514  1.00  0.00     0.061 C 
HETATM   32  C11 UNL     1       1.103  51.816 -27.934  1.00  0.00     0.170 C 
HETATM   33  O4  UNL     1       0.258  52.987 -28.033  1.00  0.00    -0.389 OA
HETATM   34  C12 UNL     1       0.053  53.483 -26.715  1.00  0.00     0.200 C 
ENDBRANCH  29  30
ENDBRANCH   7  29
TORSDOF 7
ENDMDL
MODEL 7
REMARK minimizedAffinity -7.97580242
REMARK  7 active torsions:
REMARK  status: ('A' for Active; 'I' for Inactive)
REMARK    1  A    between atoms: O1_2  and  C2_3 
REMARK    2  A    between atoms: C2_3  and  C3_4 
REMARK    3  A    between atoms: C3_4  and  N1_5 
REMARK    4  A    between atoms: C3_4  and  C15_26 
REMARK       I    between atoms: N1_5  and  C4_6 
REMARK       I    between atoms: C4_6  and  N2_8 
REMARK    5  A    between atoms: N2_8  and  C5_9 
REMARK    6  A    between atoms: C8_15  and  O3_16 
REMARK    7  A    between atoms: O3_16  and  C9_17 
ROOT
HETATM    1  C5  UNL     1      -0.307  52.068 -19.149  1.00  0.00     0.111 A 
HETATM    2  C6  UNL     1       0.737  52.881 -18.689  1.00  0.00     0.080 A 
HETATM    3  C7  UNL     1       1.145  52.639 -17.373  1.00  0.00     0.067 A 
HETATM    4  N3  UNL     1       2.111  53.212 -16.577  1.00  0.00    -0.298 N 
HETATM    5  N4  UNL     1       2.239  52.650 -15.353  1.00  0.00    -0.279 N 
ATOM      6  H4  UNL     1       2.877  52.898 -14.598  1.00  0.00     0.189 HD
HETATM    7  C8  UNL     1       1.316  51.690 -15.386  1.00  0.00     0.171 A 
HETATM    8  C13 UNL     1       0.567  51.653 -16.588  1.00  0.00     0.060 A 
HETATM    9  C14 UNL     1      -0.489  50.897 -17.117  1.00  0.00     0.108 A 
HETATM   10  N5  UNL     1      -0.917  51.116 -18.393  1.00  0.00    -0.351 N 
ATOM     11  H5  UNL     1      -1.688  50.570 -18.778  1.00  0.00     0.166 HD
HETATM   12  H10 UNL     1       2.713  53.984 -16.808  1.00  0.00     0.187 HD
ENDROOT
BRANCH   1  13
HETATM   13  N2  UNL     1      -0.816  52.123 -20.447  1.00  0.00    -0.295 N 
HETATM   14  C4  UNL     1      -0.164  51.966 -21.642  1.00  0.00     0.322 C 
HETATM   15  N1  UNL     1      -1.053  51.963 -22.687  1.00  0.00    -0.332 N 
HETATM   16  O2  UNL     1       1.040  51.833 -21.797  1.00  0.00    -0.247 OA
HETATM   17  H7  UNL     1      -1.993  51.709 -22.461  1.00  0.00     0.165 HD
HETATM   18  H8  UNL     1      -1.801  52.318 -20.463  1.00  0.00     0.172 HD
BRANCH  15  19
HETATM   19  C3  UNL     1      -0.637  51.684 -24.057  1.00  0.00     0.143 C 
BRANCH  19  20
HETATM   20  C2  UNL     1      -0.678  52.971 -24.917  1.00  0.00     0.197 C 
BRANCH  20  21
HETATM   21  O1  UNL     1       0.482  53.167 -25.735  1.00  0.00    -0.394 OA
HETATM   22  C1  UNL     1       0.186  53.626 -27.052  1.00  0.00     0.201 C 
ENDBRANCH  20  21
ENDBRANCH  19  20
BRANCH  19  23
HETATM   23  C15 UNL     1      -1.510  50.602 -24.681  1.00  0.00    -0.033 A 
HETATM   24  C16 UNL     1      -1.527  50.364 -26.076  1.00  0.00     0.009 A 
HETATM   25  C17 UNL     1      -2.344  49.365 -26.623  1.00  0.00     0.001 A 
HETATM   26  C18 UNL     1      -3.150  48.587 -25.798  1.00  0.00     0.000 A 
HETATM   27  C19 UNL     1      -3.134  48.804 -24.417  1.00  0.00     0.001 A 
HETATM   28  C20 UNL     1      -2.318  49.801 -23.853  1.00  0.00     0.009 A 
ENDBRANCH  19  23
ENDBRANCH  15  19
ENDBRANCH   1  13
BRANCH   7  29
HETATM   29  O3  UNL     1       1.141  50.868 -14.331  1.00  0.00    -0.326 OA
BRANCH  29  30
HETATM   30  C9  UNL     1       2.340  50.449 -13.660  1.00  0.00     0.156 C 
HETATM   31  C10 UNL     1       3.671  50.745 -14.336  1.00  0.00     0.061 C 
HETATM   32  C11 UNL     1       4.551  49.638 -13.762  1.00  0.00     0.170 C 
HETATM   33  O4  UNL     1       3.710  48.484 -13.523  1.00  0.00    -0.389 OA
HETATM   34  C12 UNL     1       2.357  48.904 -13.654  1.00  0.00     0.200 C 
ENDBRANCH  29  30
ENDBRANCH   7  29
TORSDOF 7
ENDMDL
MODEL 8
REMARK minimizedAffinity -7.93099403
REMARK  7 active torsions:
REMARK  status: ('A' for Active; 'I' for Inactive)
REMARK    1  A    between atoms: O1_2  and  C2_3 
REMARK    2  A    between atoms: C2_3  and  C3_4 
REMARK    3  A    between atoms: C3_4  and  N1_5 
REMARK    4  A    between atoms: C3_4  and  C15_26 
REMARK       I    between atoms: N1_5  and  C4_6 
REMARK       I    between atoms: C4_6  and  N2_8 
REMARK    5  A    between atoms: N2_8  and  C5_9 
REMARK    6  A    between atoms: C8_15  and  O3_16 
REMARK    7  A    between atoms: O3_16  and  C9_17 
ROOT
HETATM    1  C5  UNL     1      -2.967  49.248 -24.576  1.00  0.00     0.111 A 
HETATM    2  C6  UNL     1      -4.266  48.725 -24.550  1.00  0.00     0.080 A 
HETATM    3  C7  UNL     1      -4.821  48.446 -25.804  1.00  0.00     0.067 A 
HETATM    4  N3  UNL     1      -6.041  47.938 -26.189  1.00  0.00    -0.298 N 
HETATM    5  N4  UNL     1      -6.180  47.761 -27.523  1.00  0.00    -0.279 N 
ATOM      6  H4  UNL     1      -6.982  47.403 -28.041  1.00  0.00     0.189 HD
HETATM    7  C8  UNL     1      -5.002  48.174 -27.987  1.00  0.00     0.171 A 
HETATM    8  C13 UNL     1      -4.127  48.657 -26.984  1.00  0.00     0.060 A 
HETATM    9  C14 UNL     1      -2.837  49.206 -26.924  1.00  0.00     0.108 A 
HETATM   10  N5  UNL     1      -2.273  49.499 -25.718  1.00  0.00    -0.351 N 
ATOM     11  H5  UNL     1      -1.337  49.902 -25.673  1.00  0.00     0.166 HD
HETATM   12  H10 UNL     1      -6.816  47.694 -25.596  1.00  0.00     0.187 HD
ENDROOT
BRANCH   1  13
HETATM   13  N2  UNL     1      -2.227  49.542 -23.429  1.00  0.00    -0.295 N 
HETATM   14  C4  UNL     1      -1.551  50.688 -23.103  1.00  0.00     0.322 C 
HETATM   15  N1  UNL     1      -1.062  50.620 -21.823  1.00  0.00    -0.332 N 
HETATM   16  O2  UNL     1      -1.393  51.664 -23.820  1.00  0.00    -0.247 OA
HETATM   17  H7  UNL     1      -1.533  49.986 -21.208  1.00  0.00     0.165 HD
HETATM   18  H8  UNL     1      -2.205  48.773 -22.782  1.00  0.00     0.172 HD
BRANCH  15  19
HETATM   19  C3  UNL     1      -0.413  51.756 -21.179  1.00  0.00     0.143 C 
BRANCH  19  20
HETATM   20  C2  UNL     1       0.915  52.108 -21.894  1.00  0.00     0.197 C 
BRANCH  20  21
HETATM   21  O1  UNL     1       0.950  53.429 -22.448  1.00  0.00    -0.394 OA
HETATM   22  C1  UNL     1       1.583  54.389 -21.606  1.00  0.00     0.201 C 
ENDBRANCH  20  21
ENDBRANCH  19  20
BRANCH  19  23
HETATM   23  C15 UNL     1      -0.162  51.475 -19.703  1.00  0.00    -0.033 A 
HETATM   24  C16 UNL     1       0.426  52.434 -18.846  1.00  0.00     0.009 A 
HETATM   25  C17 UNL     1       0.651  52.147 -17.493  1.00  0.00     0.001 A 
HETATM   26  C18 UNL     1       0.293  50.908 -16.970  1.00  0.00     0.000 A 
HETATM   27  C19 UNL     1      -0.300  49.955 -17.802  1.00  0.00     0.001 A 
HETATM   28  C20 UNL     1      -0.533  50.230 -19.162  1.00  0.00     0.009 A 
ENDBRANCH  19  23
ENDBRANCH  15  19
ENDBRANCH   1  13
BRANCH   7  29
HETATM   29  O3  UNL     1      -4.732  48.134 -29.308  1.00  0.00    -0.326 OA
BRANCH  29  30
HETATM   30  C9  UNL     1      -5.722  47.498 -30.130  1.00  0.00     0.156 C 
HETATM   31  C10 UNL     1      -5.239  46.556 -31.223  1.00  0.00     0.061 C 
HETATM   32  C11 UNL     1      -6.387  46.646 -32.225  1.00  0.00     0.170 C 
HETATM   33  O4  UNL     1      -6.949  47.977 -32.136  1.00  0.00    -0.389 OA
HETATM   34  C12 UNL     1      -6.405  48.595 -30.975  1.00  0.00     0.200 C 
ENDBRANCH  29  30
ENDBRANCH   7  29
TORSDOF 7
ENDMDL
MODEL 9
REMARK minimizedAffinity -7.89090919
REMARK  7 active torsions:
REMARK  status: ('A' for Active; 'I' for Inactive)
REMARK    1  A    between atoms: O1_2  and  C2_3 
REMARK    2  A    between atoms: C2_3  and  C3_4 
REMARK    3  A    between atoms: C3_4  and  N1_5 
REMARK    4  A    between atoms: C3_4  and  C15_26 
REMARK       I    between atoms: N1_5  and  C4_6 
REMARK       I    between atoms: C4_6  and  N2_8 
REMARK    5  A    between atoms: N2_8  and  C5_9 
REMARK    6  A    between atoms: C8_15  and  O3_16 
REMARK    7  A    between atoms: O3_16  and  C9_17 
ROOT
HETATM    1  C5  UNL     1      -0.973  49.926 -21.154  1.00  0.00     0.111 A 
HETATM    2  C6  UNL     1      -1.338  48.924 -20.246  1.00  0.00     0.080 A 
HETATM    3  C7  UNL     1      -1.024  49.188 -18.908  1.00  0.00     0.067 A 
HETATM    4  N3  UNL     1      -1.213  48.470 -17.749  1.00  0.00    -0.298 N 
HETATM    5  N4  UNL     1      -0.812  49.104 -16.623  1.00  0.00    -0.279 N 
ATOM      6  H4  UNL     1      -0.850  48.780 -15.657  1.00  0.00     0.189 HD
HETATM    7  C8  UNL     1      -0.355  50.262 -17.099  1.00  0.00     0.171 A 
HETATM    8  C13 UNL     1      -0.411  50.365 -18.510  1.00  0.00     0.060 A 
HETATM    9  C14 UNL     1      -0.058  51.309 -19.486  1.00  0.00     0.108 A 
HETATM   10  N5  UNL     1      -0.341  51.076 -20.799  1.00  0.00    -0.351 N 
ATOM     11  H5  UNL     1      -0.080  51.760 -21.510  1.00  0.00     0.166 HD
HETATM   12  H10 UNL     1      -1.606  47.549 -17.658  1.00  0.00     0.187 HD
ENDROOT
BRANCH   1  13
HETATM   13  N2  UNL     1      -1.247  49.870 -22.521  1.00  0.00    -0.295 N 
HETATM   14  C4  UNL     1      -1.432  50.894 -23.412  1.00  0.00     0.322 C 
HETATM   15  N1  UNL     1      -1.549  50.415 -24.691  1.00  0.00    -0.332 N 
HETATM   16  O2  UNL     1      -1.479  52.085 -23.145  1.00  0.00    -0.247 OA
HETATM   17  H7  UNL     1      -1.142  49.517 -24.861  1.00  0.00     0.165 HD
HETATM   18  H8  UNL     1      -1.322  48.926 -22.857  1.00  0.00     0.172 HD
BRANCH  15  19
HETATM   19  C3  UNL     1      -1.626  51.301 -25.847  1.00  0.00     0.143 C 
BRANCH  19  20
HETATM   20  C2  UNL     1      -2.663  50.781 -26.871  1.00  0.00     0.197 C 
BRANCH  20  21
HETATM   21  O1  UNL     1      -2.668  49.356 -27.029  1.00  0.00    -0.394 OA
HETATM   22  C1  UNL     1      -3.945  48.818 -27.361  1.00  0.00     0.201 C 
ENDBRANCH  20  21
ENDBRANCH  19  20
BRANCH  19  23
HETATM   23  C15 UNL     1      -0.261  51.454 -26.507  1.00  0.00    -0.033 A 
HETATM   24  C16 UNL     1       0.945  51.259 -25.792  1.00  0.00     0.009 A 
HETATM   25  C17 UNL     1       2.186  51.412 -26.423  1.00  0.00     0.001 A 
HETATM   26  C18 UNL     1       2.252  51.754 -27.770  1.00  0.00     0.000 A 
HETATM   27  C19 UNL     1       1.070  51.938 -28.492  1.00  0.00     0.001 A 
HETATM   28  C20 UNL     1      -0.185  51.786 -27.872  1.00  0.00     0.009 A 
ENDBRANCH  19  23
ENDBRANCH  15  19
ENDBRANCH   1  13
BRANCH   7  29
HETATM   29  O3  UNL     1       0.126  51.206 -16.264  1.00  0.00    -0.326 OA
BRANCH  29  30
HETATM   30  C9  UNL     1       1.554  51.244 -16.121  1.00  0.00     0.156 C 
HETATM   31  C10 UNL     1       2.122  51.392 -14.717  1.00  0.00     0.061 C 
HETATM   32  C11 UNL     1       3.466  52.054 -15.006  1.00  0.00     0.170 C 
HETATM   33  O4  UNL     1       3.308  52.880 -16.184  1.00  0.00    -0.389 OA
HETATM   34  C12 UNL     1       2.055  52.551 -16.774  1.00  0.00     0.200 C 
ENDBRANCH  29  30
ENDBRANCH   7  29
TORSDOF 7
ENDMDL
