MODEL 1
REMARK minimizedAffinity -9.87379837
REMARK  6 active torsions:
REMARK  status: ('A' for Active; 'I' for Inactive)
REMARK    1  A    between atoms: O1_2  and  C2_3 
REMARK    2  A    between atoms: C7_9  and  C8_10 
REMARK    3  A    between atoms: C8_10  and  N1_11 
REMARK    4  A    between atoms: C12_15  and  N2_16 
REMARK       I    between atoms: N2_16  and  C13_17 
REMARK       I    between atoms: C13_17  and  N3_19 
REMARK    5  A    between atoms: N3_19  and  C14_20 
REMARK    6  A    between atoms: C17_26  and  C18_27 
ROOT
HETATM    1  N2  UNL     1      -1.197  50.643 -27.006  1.00  0.00    -0.337 N 
HETATM    2  C13 UNL     1      -2.521  50.380 -27.296  1.00  0.00     0.322 C 
HETATM    3  O2  UNL     1      -3.188  51.080 -28.049  1.00  0.00    -0.247 OA
HETATM    4  N3  UNL     1      -2.941  49.241 -26.660  1.00  0.00    -0.295 N 
HETATM    5  H16 UNL     1      -0.957  50.437 -26.044  1.00  0.00     0.164 HD
HETATM    6  H17 UNL     1      -2.237  48.647 -26.251  1.00  0.00     0.172 HD
ENDROOT
BRANCH   4   7
HETATM    7  C14 UNL     1      -4.205  48.651 -26.690  1.00  0.00     0.111 A 
HETATM    8  C15 UNL     1      -4.958  48.408 -25.547  1.00  0.00     0.080 A 
HETATM    9  C16 UNL     1      -6.200  47.815 -25.768  1.00  0.00     0.065 A 
HETATM   10  N4  UNL     1      -7.197  47.451 -24.910  1.00  0.00    -0.299 N 
HETATM   11  C24 UNL     1      -6.660  47.475 -27.033  1.00  0.00     0.036 A 
HETATM   12  N5  UNL     1      -8.262  46.900 -25.509  1.00  0.00    -0.299 N 
HETATM   13  H19 UNL     1      -7.203  47.534 -23.898  1.00  0.00     0.187 HD
HETATM   14  C17 UNL     1      -7.947  46.890 -26.816  1.00  0.00     0.072 A 
ATOM     15  H5  UNL     1      -9.120  46.564 -25.071  1.00  0.00     0.187 HD
HETATM   16  C25 UNL     1      -5.838  47.759 -28.126  1.00  0.00     0.105 A 
HETATM   17  N7  UNL     1      -4.620  48.333 -27.939  1.00  0.00    -0.351 N 
ATOM     18  H7  UNL     1      -4.018  48.523 -28.740  1.00  0.00     0.166 HD
BRANCH  14  19
HETATM   19  C18 UNL     1      -8.875  46.328 -27.796  1.00  0.00    -0.004 A 
HETATM   20  C19 UNL     1      -9.450  45.071 -27.613  1.00  0.00     0.031 A 
HETATM   21  C20 UNL     1     -10.335  44.609 -28.570  1.00  0.00     0.089 A 
HETATM   22  N6  UNL     1     -10.680  45.302 -29.676  1.00  0.00    -0.369 N 
HETATM   23  C21 UNL     1     -10.123  46.525 -29.842  1.00  0.00     0.005 A 
ATOM     24  H6  UNL     1     -11.333  44.920 -30.359  1.00  0.00     0.165 HD
HETATM   25  C22 UNL     1     -10.530  47.310 -31.052  1.00  0.00     0.068 C 
HETATM   26  C23 UNL     1      -9.228  47.070 -28.927  1.00  0.00     0.038 A 
ENDBRANCH  14  19
ENDBRANCH   4   7
BRANCH   1  27
HETATM   27  C12 UNL     1      -0.571  51.874 -27.498  1.00  0.00     0.114 C 
HETATM   28  C11 UNL     1       0.803  51.566 -28.108  1.00  0.00     0.029 C 
HETATM   29  C10 UNL     1       1.961  51.969 -27.197  1.00  0.00     0.032 C 
HETATM   30  C9  UNL     1       1.642  51.741 -25.721  1.00  0.00     0.273 C 
HETATM   31  N1  UNL     1       0.408  52.391 -25.251  1.00  0.00     0.094 N 
HETATM   32  C26 UNL     1      -0.443  52.900 -26.352  1.00  0.00     0.297 C 
BRANCH  31  33
HETATM   33  C8  UNL     1       0.708  53.441 -24.255  1.00  0.00     0.317 C 
BRANCH  33  34
HETATM   34  C7  UNL     1       0.541  53.008 -22.816  1.00  0.00     0.042 A 
HETATM   35  C2  UNL     1      -0.264  51.912 -22.449  1.00  0.00     0.079 A 
HETATM   36  C3  UNL     1      -0.381  51.563 -21.095  1.00  0.00     0.037 A 
HETATM   37  C4  UNL     1       0.289  52.294 -20.109  1.00  0.00     0.006 A 
HETATM   38  C5  UNL     1       1.083  53.377 -20.467  1.00  0.00     0.043 A 
HETATM   39  C6  UNL     1       1.206  53.720 -21.809  1.00  0.00     0.127 A 
HETATM   40  F1  UNL     1       1.976  54.772 -22.129  1.00  0.00    -0.205 F 
BRANCH  35  41
HETATM   41  O1  UNL     1      -0.878  51.240 -23.476  1.00  0.00    -0.355 OA
HETATM   42  C1  UNL     1      -2.169  50.700 -23.228  1.00  0.00     0.210 C 
ENDBRANCH  35  41
ENDBRANCH  33  34
ENDBRANCH  31  33
ENDBRANCH   1  27
TORSDOF 6
ENDMDL
MODEL 2
REMARK minimizedAffinity -9.81477451
REMARK  6 active torsions:
REMARK  status: ('A' for Active; 'I' for Inactive)
REMARK    1  A    between atoms: O1_2  and  C2_3 
REMARK    2  A    between atoms: C7_9  and  C8_10 
REMARK    3  A    between atoms: C8_10  and  N1_11 
REMARK    4  A    between atoms: C12_15  and  N2_16 
REMARK       I    between atoms: N2_16  and  C13_17 
REMARK       I    between atoms: C13_17  and  N3_19 
REMARK    5  A    between atoms: N3_19  and  C14_20 
REMARK    6  A    between atoms: C17_26  and  C18_27 
ROOT
HETATM    1  N2  UNL     1      -3.929  48.844 -23.934  1.00  0.00    -0.337 N 
HETATM    2  C13 UNL     1      -4.043  48.474 -25.260  1.00  0.00     0.322 C 
HETATM    3  O2  UNL     1      -3.073  48.210 -25.961  1.00  0.00    -0.247 OA
HETATM    4  N3  UNL     1      -5.358  48.420 -25.638  1.00  0.00    -0.295 N 
HETATM    5  H16 UNL     1      -4.603  49.550 -23.664  1.00  0.00     0.164 HD
HETATM    6  H17 UNL     1      -6.056  48.447 -24.911  1.00  0.00     0.172 HD
ENDROOT
BRANCH   4   7
HETATM    7  C14 UNL     1      -5.885  48.099 -26.890  1.00  0.00     0.111 A 
HETATM    8  C15 UNL     1      -7.062  47.381 -27.059  1.00  0.00     0.080 A 
HETATM    9  C16 UNL     1      -7.438  47.156 -28.383  1.00  0.00     0.065 A 
HETATM   10  N4  UNL     1      -8.515  46.519 -28.924  1.00  0.00    -0.299 N 
HETATM   11  C24 UNL     1      -6.691  47.603 -29.465  1.00  0.00     0.036 A 
HETATM   12  N5  UNL     1      -8.531  46.510 -30.265  1.00  0.00    -0.299 N 
HETATM   13  H19 UNL     1      -9.269  46.050 -28.430  1.00  0.00     0.187 HD
HETATM   14  C17 UNL     1      -7.409  47.158 -30.620  1.00  0.00     0.072 A 
ATOM     15  H5  UNL     1      -9.238  46.102 -30.878  1.00  0.00     0.187 HD
HETATM   16  C25 UNL     1      -5.523  48.321 -29.202  1.00  0.00     0.105 A 
HETATM   17  N7  UNL     1      -5.131  48.550 -27.921  1.00  0.00    -0.351 N 
ATOM     18  H7  UNL     1      -4.267  49.062 -27.736  1.00  0.00     0.166 HD
BRANCH  14  19
HETATM   19  C18 UNL     1      -7.067  47.326 -32.031  1.00  0.00    -0.004 A 
HETATM   20  C19 UNL     1      -8.033  47.213 -33.030  1.00  0.00     0.031 A 
HETATM   21  C20 UNL     1      -7.644  47.403 -34.344  1.00  0.00     0.089 A 
HETATM   22  N6  UNL     1      -6.381  47.693 -34.722  1.00  0.00    -0.369 N 
HETATM   23  C21 UNL     1      -5.451  47.809 -33.746  1.00  0.00     0.005 A 
ATOM     24  H6  UNL     1      -6.138  47.820 -35.704  1.00  0.00     0.165 HD
HETATM   25  C22 UNL     1      -4.055  48.165 -34.160  1.00  0.00     0.068 C 
HETATM   26  C23 UNL     1      -5.755  47.640 -32.399  1.00  0.00     0.038 A 
ENDBRANCH  14  19
ENDBRANCH   4   7
BRANCH   1  27
HETATM   27  C12 UNL     1      -2.604  49.066 -23.348  1.00  0.00     0.114 C 
HETATM   28  C11 UNL     1      -2.727  49.345 -21.843  1.00  0.00     0.029 C 
HETATM   29  C10 UNL     1      -2.546  50.822 -21.496  1.00  0.00     0.032 C 
HETATM   30  C9  UNL     1      -3.141  51.742 -22.558  1.00  0.00     0.273 C 
HETATM   31  N1  UNL     1      -2.650  51.504 -23.925  1.00  0.00     0.094 N 
HETATM   32  C26 UNL     1      -1.896  50.235 -24.064  1.00  0.00     0.297 C 
BRANCH  31  33
HETATM   33  C8  UNL     1      -1.878  52.661 -24.421  1.00  0.00     0.317 C 
BRANCH  33  34
HETATM   34  C7  UNL     1      -0.798  52.314 -25.422  1.00  0.00     0.042 A 
HETATM   35  C2  UNL     1      -1.072  52.137 -26.792  1.00  0.00     0.079 A 
HETATM   36  C3  UNL     1      -0.026  51.811 -27.669  1.00  0.00     0.037 A 
HETATM   37  C4  UNL     1       1.280  51.658 -27.196  1.00  0.00     0.006 A 
HETATM   38  C5  UNL     1       1.554  51.831 -25.844  1.00  0.00     0.043 A 
HETATM   39  C6  UNL     1       0.521  52.161 -24.975  1.00  0.00     0.127 A 
HETATM   40  F1  UNL     1       0.811  52.320 -23.674  1.00  0.00    -0.205 F 
BRANCH  35  41
HETATM   41  O1  UNL     1      -2.377  52.316 -27.178  1.00  0.00    -0.355 OA
HETATM   42  C1  UNL     1      -3.027  51.227 -27.819  1.00  0.00     0.210 C 
ENDBRANCH  35  41
ENDBRANCH  33  34
ENDBRANCH  31  33
ENDBRANCH   1  27
TORSDOF 6
ENDMDL
MODEL 3
REMARK minimizedAffinity -9.76441479
REMARK  6 active torsions:
REMARK  status: ('A' for Active; 'I' for Inactive)
REMARK    1  A    between atoms: O1_2  and  C2_3 
REMARK    2  A    between atoms: C7_9  and  C8_10 
REMARK    3  A    between atoms: C8_10  and  N1_11 
REMARK    4  A    between atoms: C12_15  and  N2_16 
REMARK       I    between atoms: N2_16  and  C13_17 
REMARK       I    between atoms: C13_17  and  N3_19 
REMARK    5  A    between atoms: N3_19  and  C14_20 
REMARK    6  A    between atoms: C17_26  and  C18_27 
ROOT
HETATM    1  N2  UNL     1      -1.272  50.688 -26.972  1.00  0.00    -0.337 N 
HETATM    2  C13 UNL     1      -2.562  50.387 -27.363  1.00  0.00     0.322 C 
HETATM    3  O2  UNL     1      -3.175  51.049 -28.193  1.00  0.00    -0.247 OA
HETATM    4  N3  UNL     1      -3.013  49.261 -26.727  1.00  0.00    -0.295 N 
HETATM    5  H16 UNL     1      -1.111  50.518 -25.986  1.00  0.00     0.164 HD
HETATM    6  H17 UNL     1      -2.335  48.696 -26.240  1.00  0.00     0.172 HD
ENDROOT
BRANCH   4   7
HETATM    7  C14 UNL     1      -4.259  48.643 -26.843  1.00  0.00     0.111 A 
HETATM    8  C15 UNL     1      -4.757  48.155 -28.045  1.00  0.00     0.080 A 
HETATM    9  C16 UNL     1      -6.019  47.566 -27.971  1.00  0.00     0.065 A 
HETATM   10  N4  UNL     1      -6.801  46.977 -28.920  1.00  0.00    -0.299 N 
HETATM   11  C24 UNL     1      -6.741  47.477 -26.789  1.00  0.00     0.036 A 
HETATM   12  N5  UNL     1      -7.972  46.516 -28.457  1.00  0.00    -0.299 N 
HETATM   13  H19 UNL     1      -6.601  46.875 -29.911  1.00  0.00     0.187 HD
HETATM   14  C17 UNL     1      -7.964  46.827 -27.150  1.00  0.00     0.072 A 
ATOM     15  H5  UNL     1      -8.705  46.036 -28.980  1.00  0.00     0.187 HD
HETATM   16  C25 UNL     1      -6.161  47.990 -25.627  1.00  0.00     0.105 A 
HETATM   17  N7  UNL     1      -4.935  48.575 -25.671  1.00  0.00    -0.351 N 
ATOM     18  H7  UNL     1      -4.524  48.962 -24.822  1.00  0.00     0.166 HD
BRANCH  14  19
HETATM   19  C18 UNL     1      -9.110  46.498 -26.304  1.00  0.00    -0.004 A 
HETATM   20  C19 UNL     1      -8.956  45.766 -25.127  1.00  0.00     0.031 A 
HETATM   21  C20 UNL     1     -10.081  45.506 -24.364  1.00  0.00     0.089 A 
HETATM   22  N6  UNL     1     -11.324  45.920 -24.688  1.00  0.00    -0.369 N 
HETATM   23  C21 UNL     1     -11.463  46.637 -25.828  1.00  0.00     0.005 A 
ATOM     24  H6  UNL     1     -12.126  45.702 -24.098  1.00  0.00     0.165 HD
HETATM   25  C22 UNL     1     -12.837  47.128 -26.172  1.00  0.00     0.068 C 
HETATM   26  C23 UNL     1     -10.386  46.950 -26.652  1.00  0.00     0.038 A 
ENDBRANCH  14  19
ENDBRANCH   4   7
BRANCH   1  27
HETATM   27  C12 UNL     1      -0.630  51.916 -27.450  1.00  0.00     0.114 C 
HETATM   28  C11 UNL     1       0.741  51.596 -28.063  1.00  0.00     0.029 C 
HETATM   29  C10 UNL     1       1.904  51.975 -27.146  1.00  0.00     0.032 C 
HETATM   30  C9  UNL     1       1.580  51.735 -25.674  1.00  0.00     0.273 C 
HETATM   31  N1  UNL     1       0.354  52.396 -25.197  1.00  0.00     0.094 N 
HETATM   32  C26 UNL     1      -0.489  52.928 -26.293  1.00  0.00     0.297 C 
BRANCH  31  33
HETATM   33  C8  UNL     1       0.667  53.431 -24.190  1.00  0.00     0.317 C 
BRANCH  33  34
HETATM   34  C7  UNL     1       0.521  52.976 -22.755  1.00  0.00     0.042 A 
HETATM   35  C2  UNL     1      -0.287  51.881 -22.392  1.00  0.00     0.079 A 
HETATM   36  C3  UNL     1      -0.384  51.512 -21.042  1.00  0.00     0.037 A 
HETATM   37  C4  UNL     1       0.308  52.221 -20.056  1.00  0.00     0.006 A 
HETATM   38  C5  UNL     1       1.105  53.304 -20.410  1.00  0.00     0.043 A 
HETATM   39  C6  UNL     1       1.209  53.667 -21.748  1.00  0.00     0.127 A 
HETATM   40  F1  UNL     1       1.982  54.717 -22.064  1.00  0.00    -0.205 F 
BRANCH  35  41
HETATM   41  O1  UNL     1      -0.923  51.231 -23.420  1.00  0.00    -0.355 OA
HETATM   42  C1  UNL     1      -1.919  50.276 -23.074  1.00  0.00     0.210 C 
ENDBRANCH  35  41
ENDBRANCH  33  34
ENDBRANCH  31  33
ENDBRANCH   1  27
TORSDOF 6
ENDMDL
MODEL 4
REMARK minimizedAffinity -9.7490406
REMARK  6 active torsions:
REMARK  status: ('A' for Active; 'I' for Inactive)
REMARK    1  A    between atoms: O1_2  and  C2_3 
REMARK    2  A    between atoms: C7_9  and  C8_10 
REMARK    3  A    between atoms: C8_10  and  N1_11 
REMARK    4  A    between atoms: C12_15  and  N2_16 
REMARK       I    between atoms: N2_16  and  C13_17 
REMARK       I    between atoms: C13_17  and  N3_19 
REMARK    5  A    between atoms: N3_19  and  C14_20 
REMARK    6  A    between atoms: C17_26  and  C18_27 
ROOT
HETATM    1  N2  UNL     1       0.741  52.038 -15.953  1.00  0.00    -0.337 N 
HETATM    2  C13 UNL     1       1.267  52.390 -17.181  1.00  0.00     0.322 C 
HETATM    3  O2  UNL     1       2.438  52.718 -17.331  1.00  0.00    -0.247 OA
HETATM    4  N3  UNL     1       0.319  52.285 -18.164  1.00  0.00    -0.295 N 
HETATM    5  H16 UNL     1      -0.212  52.358 -15.828  1.00  0.00     0.164 HD
HETATM    6  H17 UNL     1      -0.535  51.798 -17.941  1.00  0.00     0.172 HD
ENDROOT
BRANCH   4   7
HETATM    7  C14 UNL     1       0.453  52.559 -19.526  1.00  0.00     0.111 A 
HETATM    8  C15 UNL     1       1.054  53.714 -20.014  1.00  0.00     0.080 A 
HETATM    9  C16 UNL     1       1.102  53.818 -21.403  1.00  0.00     0.065 A 
HETATM   10  N4  UNL     1       1.618  54.779 -22.223  1.00  0.00    -0.299 N 
HETATM   11  C24 UNL     1       0.581  52.850 -22.251  1.00  0.00     0.036 A 
HETATM   12  N5  UNL     1       1.473  54.520 -23.530  1.00  0.00    -0.299 N 
HETATM   13  H19 UNL     1       2.067  55.648 -21.951  1.00  0.00     0.187 HD
HETATM   14  C17 UNL     1       0.822  53.345 -23.571  1.00  0.00     0.072 A 
ATOM     15  H5  UNL     1       1.787  55.088 -24.318  1.00  0.00     0.187 HD
HETATM   16  C25 UNL     1      -0.002  51.720 -21.674  1.00  0.00     0.105 A 
HETATM   17  N7  UNL     1      -0.067  51.595 -20.322  1.00  0.00    -0.351 N 
ATOM     18  H7  UNL     1      -0.509  50.774 -19.907  1.00  0.00     0.166 HD
BRANCH  14  19
HETATM   19  C18 UNL     1       0.459  52.745 -24.854  1.00  0.00    -0.004 A 
HETATM   20  C19 UNL     1       1.418  52.157 -25.677  1.00  0.00     0.031 A 
HETATM   21  C20 UNL     1       1.002  51.591 -26.869  1.00  0.00     0.089 A 
HETATM   22  N6  UNL     1      -0.281  51.571 -27.287  1.00  0.00    -0.369 N 
HETATM   23  C21 UNL     1      -1.208  52.136 -26.478  1.00  0.00     0.005 A 
ATOM     24  H6  UNL     1      -0.543  51.146 -28.177  1.00  0.00     0.165 HD
HETATM   25  C22 UNL     1      -2.638  52.085 -26.924  1.00  0.00     0.068 C 
HETATM   26  C23 UNL     1      -0.879  52.723 -25.260  1.00  0.00     0.038 A 
ENDBRANCH  14  19
ENDBRANCH   4   7
BRANCH   1  27
HETATM   27  C12 UNL     1       1.553  52.178 -14.742  1.00  0.00     0.114 C 
HETATM   28  C11 UNL     1       2.615  51.070 -14.681  1.00  0.00     0.029 C 
HETATM   29  C10 UNL     1       2.266  49.968 -13.682  1.00  0.00     0.032 C 
HETATM   30  C9  UNL     1       0.768  49.679 -13.640  1.00  0.00     0.273 C 
HETATM   31  N1  UNL     1      -0.078  50.855 -13.376  1.00  0.00     0.094 N 
HETATM   32  C26 UNL     1       0.652  52.140 -13.490  1.00  0.00     0.297 C 
BRANCH  31  33
HETATM   33  C8  UNL     1      -0.773  50.728 -12.079  1.00  0.00     0.317 C 
BRANCH  33  34
HETATM   34  C7  UNL     1      -1.785  51.818 -11.798  1.00  0.00     0.042 A 
HETATM   35  C2  UNL     1      -3.002  51.911 -12.500  1.00  0.00     0.079 A 
HETATM   36  C3  UNL     1      -3.897  52.948 -12.196  1.00  0.00     0.037 A 
HETATM   37  C4  UNL     1      -3.590  53.889 -11.209  1.00  0.00     0.006 A 
HETATM   38  C5  UNL     1      -2.389  53.801 -10.516  1.00  0.00     0.043 A 
HETATM   39  C6  UNL     1      -1.504  52.770 -10.810  1.00  0.00     0.127 A 
HETATM   40  F1  UNL     1      -0.349  52.709 -10.128  1.00  0.00    -0.205 F 
BRANCH  35  41
HETATM   41  O1  UNL     1      -3.234  50.942 -13.444  1.00  0.00    -0.355 OA
HETATM   42  C1  UNL     1      -3.263  51.348 -14.807  1.00  0.00     0.210 C 
ENDBRANCH  35  41
ENDBRANCH  33  34
ENDBRANCH  31  33
ENDBRANCH   1  27
TORSDOF 6
ENDMDL
MODEL 5
REMARK minimizedAffinity -9.71346569
REMARK  6 active torsions:
REMARK  status: ('A' for Active; 'I' for Inactive)
REMARK    1  A    between atoms: O1_2  and  C2_3 
REMARK    2  A    between atoms: C7_9  and  C8_10 
REMARK    3  A    between atoms: C8_10  and  N1_11 
REMARK    4  A    between atoms: C12_15  and  N2_16 
REMARK       I    between atoms: N2_16  and  C13_17 
REMARK       I    between atoms: C13_17  and  N3_19 
REMARK    5  A    between atoms: N3_19  and  C14_20 
REMARK    6  A    between atoms: C17_26  and  C18_27 
ROOT
HETATM    1  N2  UNL     1      -0.275  51.162 -16.458  1.00  0.00    -0.337 N 
HETATM    2  C13 UNL     1      -0.355  51.159 -17.838  1.00  0.00     0.322 C 
HETATM    3  O2  UNL     1      -0.996  50.322 -18.463  1.00  0.00    -0.247 OA
HETATM    4  N3  UNL     1       0.339  52.214 -18.367  1.00  0.00    -0.295 N 
HETATM    5  H16 UNL     1       0.638  51.438 -16.119  1.00  0.00     0.164 HD
HETATM    6  H17 UNL     1       0.634  52.943 -17.737  1.00  0.00     0.172 HD
ENDROOT
BRANCH   4   7
HETATM    7  C14 UNL     1       0.507  52.551 -19.711  1.00  0.00     0.111 A 
HETATM    8  C15 UNL     1       1.079  53.746 -20.130  1.00  0.00     0.080 A 
HETATM    9  C16 UNL     1       1.169  53.911 -21.512  1.00  0.00     0.065 A 
HETATM   10  N4  UNL     1       1.674  54.923 -22.273  1.00  0.00    -0.299 N 
HETATM   11  C24 UNL     1       0.713  52.960 -22.416  1.00  0.00     0.036 A 
HETATM   12  N5  UNL     1       1.583  54.715 -23.594  1.00  0.00    -0.299 N 
HETATM   13  H19 UNL     1       2.080  55.797 -21.951  1.00  0.00     0.187 HD
HETATM   14  C17 UNL     1       0.979  53.518 -23.706  1.00  0.00     0.072 A 
ATOM     15  H5  UNL     1       1.900  55.326 -24.347  1.00  0.00     0.187 HD
HETATM   16  C25 UNL     1       0.156  51.786 -21.906  1.00  0.00     0.105 A 
HETATM   17  N7  UNL     1       0.051  51.602 -20.563  1.00  0.00    -0.351 N 
ATOM     18  H7  UNL     1      -0.372  50.749 -20.197  1.00  0.00     0.166 HD
BRANCH  14  19
HETATM   19  C18 UNL     1       0.681  52.960 -25.024  1.00  0.00    -0.004 A 
HETATM   20  C19 UNL     1       0.989  51.637 -25.337  1.00  0.00     0.031 A 
HETATM   21  C20 UNL     1       0.662  51.168 -26.597  1.00  0.00     0.089 A 
HETATM   22  N6  UNL     1       0.059  51.915 -27.547  1.00  0.00    -0.369 N 
HETATM   23  C21 UNL     1      -0.244  53.196 -27.231  1.00  0.00     0.005 A 
ATOM     24  H6  UNL     1      -0.160  51.529 -28.465  1.00  0.00     0.165 HD
HETATM   25  C22 UNL     1      -0.944  54.017 -28.272  1.00  0.00     0.068 C 
HETATM   26  C23 UNL     1       0.043  53.748 -25.987  1.00  0.00     0.038 A 
ENDBRANCH  14  19
ENDBRANCH   4   7
BRANCH   1  27
HETATM   27  C12 UNL     1      -0.860  50.059 -15.690  1.00  0.00     0.114 C 
HETATM   28  C11 UNL     1      -2.392  50.117 -15.756  1.00  0.00     0.029 C 
HETATM   29  C10 UNL     1      -3.023  50.648 -14.469  1.00  0.00     0.032 C 
HETATM   30  C9  UNL     1      -2.181  51.746 -13.824  1.00  0.00     0.273 C 
HETATM   31  N1  UNL     1      -0.782  51.374 -13.558  1.00  0.00     0.094 N 
HETATM   32  C26 UNL     1      -0.373  50.115 -14.226  1.00  0.00     0.297 C 
BRANCH  31  33
HETATM   33  C8  UNL     1      -0.507  51.343 -12.107  1.00  0.00     0.317 C 
BRANCH  33  34
HETATM   34  C7  UNL     1      -0.629  52.682 -11.415  1.00  0.00     0.042 A 
HETATM   35  C2  UNL     1      -1.826  53.106 -10.805  1.00  0.00     0.079 A 
HETATM   36  C3  UNL     1      -1.876  54.363 -10.183  1.00  0.00     0.037 A 
HETATM   37  C4  UNL     1      -0.755  55.197 -10.167  1.00  0.00     0.006 A 
HETATM   38  C5  UNL     1       0.427  54.783 -10.770  1.00  0.00     0.043 A 
HETATM   39  C6  UNL     1       0.482  53.535 -11.381  1.00  0.00     0.127 A 
HETATM   40  F1  UNL     1       1.634  53.159 -11.958  1.00  0.00    -0.205 F 
BRANCH  35  41
HETATM   41  O1  UNL     1      -2.876  52.224 -10.854  1.00  0.00    -0.355 OA
HETATM   42  C1  UNL     1      -4.190  52.764 -10.774  1.00  0.00     0.210 C 
ENDBRANCH  35  41
ENDBRANCH  33  34
ENDBRANCH  31  33
ENDBRANCH   1  27
TORSDOF 6
ENDMDL
MODEL 6
REMARK minimizedAffinity -9.6713047
REMARK  6 active torsions:
REMARK  status: ('A' for Active; 'I' for Inactive)
REMARK    1  A    between atoms: O1_2  and  C2_3 
REMARK    2  A    between atoms: C7_9  and  C8_10 
REMARK    3  A    between atoms: C8_10  and  N1_11 
REMARK    4  A    between atoms: C12_15  and  N2_16 
REMARK       I    between atoms: N2_16  and  C13_17 
REMARK       I    between atoms: C13_17  and  N3_19 
REMARK    5  A    between atoms: N3_19  and  C14_20 
REMARK    6  A    between atoms: C17_26  and  C18_27 
ROOT
HETATM    1  N2  UNL     1       0.644  52.037 -16.195  1.00  0.00    -0.337 N 
HETATM    2  C13 UNL     1       1.191  52.457 -17.392  1.00  0.00     0.322 C 
HETATM    3  O2  UNL     1       2.339  52.876 -17.487  1.00  0.00    -0.247 OA
HETATM    4  N3  UNL     1       0.294  52.305 -18.416  1.00  0.00    -0.295 N 
HETATM    5  H16 UNL     1      -0.335  52.282 -16.103  1.00  0.00     0.164 HD
HETATM    6  H17 UNL     1      -0.529  51.751 -18.240  1.00  0.00     0.172 HD
ENDROOT
BRANCH   4   7
HETATM    7  C14 UNL     1       0.460  52.622 -19.765  1.00  0.00     0.111 A 
HETATM    8  C15 UNL     1       1.062  53.797 -20.202  1.00  0.00     0.080 A 
HETATM    9  C16 UNL     1       1.146  53.944 -21.586  1.00  0.00     0.065 A 
HETATM   10  N4  UNL     1       1.673  54.933 -22.362  1.00  0.00    -0.299 N 
HETATM   11  C24 UNL     1       0.657  52.997 -22.476  1.00  0.00     0.036 A 
HETATM   12  N5  UNL     1       1.565  54.713 -23.680  1.00  0.00    -0.299 N 
HETATM   13  H19 UNL     1       2.105  55.799 -22.052  1.00  0.00     0.187 HD
HETATM   14  C17 UNL     1       0.928  53.533 -23.774  1.00  0.00     0.072 A 
ATOM     15  H5  UNL     1       1.894  55.308 -24.442  1.00  0.00     0.187 HD
HETATM   16  C25 UNL     1       0.072  51.844 -21.949  1.00  0.00     0.105 A 
HETATM   17  N7  UNL     1      -0.028  51.677 -20.603  1.00  0.00    -0.351 N 
ATOM     18  H7  UNL     1      -0.471  50.840 -20.225  1.00  0.00     0.166 HD
BRANCH  14  19
HETATM   19  C18 UNL     1       0.605  52.969 -25.084  1.00  0.00    -0.004 A 
HETATM   20  C19 UNL     1       0.933  51.653 -25.407  1.00  0.00     0.031 A 
HETATM   21  C20 UNL     1       0.580  51.177 -26.658  1.00  0.00     0.089 A 
HETATM   22  N6  UNL     1      -0.066  51.911 -27.589  1.00  0.00    -0.369 N 
HETATM   23  C21 UNL     1      -0.388  53.185 -27.263  1.00  0.00     0.005 A 
ATOM     24  H6  UNL     1      -0.302  51.521 -28.501  1.00  0.00     0.165 HD
HETATM   25  C22 UNL     1      -1.136  53.991 -28.283  1.00  0.00     0.068 C 
HETATM   26  C23 UNL     1      -0.078  53.743 -26.027  1.00  0.00     0.038 A 
ENDBRANCH  14  19
ENDBRANCH   4   7
BRANCH   1  27
HETATM   27  C12 UNL     1       1.395  52.208 -14.948  1.00  0.00     0.114 C 
HETATM   28  C11 UNL     1       2.498  51.146 -14.841  1.00  0.00     0.029 C 
HETATM   29  C10 UNL     1       2.151  50.027 -13.859  1.00  0.00     0.032 C 
HETATM   30  C9  UNL     1       0.666  49.676 -13.885  1.00  0.00     0.273 C 
HETATM   31  N1  UNL     1      -0.240  50.815 -13.658  1.00  0.00     0.094 N 
HETATM   32  C26 UNL     1       0.440  52.129 -13.738  1.00  0.00     0.297 C 
BRANCH  31  33
HETATM   33  C8  UNL     1      -0.987  50.656 -12.394  1.00  0.00     0.317 C 
BRANCH  33  34
HETATM   34  C7  UNL     1      -1.963  51.772 -12.096  1.00  0.00     0.042 A 
HETATM   35  C2  UNL     1      -1.834  52.603 -10.966  1.00  0.00     0.079 A 
HETATM   36  C3  UNL     1      -2.776  53.619 -10.745  1.00  0.00     0.037 A 
HETATM   37  C4  UNL     1      -3.841  53.810 -11.629  1.00  0.00     0.006 A 
HETATM   38  C5  UNL     1      -3.974  52.991 -12.744  1.00  0.00     0.043 A 
HETATM   39  C6  UNL     1      -3.037  51.988 -12.970  1.00  0.00     0.127 A 
HETATM   40  F1  UNL     1      -3.188  51.209 -14.052  1.00  0.00    -0.205 F 
BRANCH  35  41
HETATM   41  O1  UNL     1      -0.754  52.358 -10.155  1.00  0.00    -0.355 OA
HETATM   42  C1  UNL     1       0.319  53.289 -10.193  1.00  0.00     0.210 C 
ENDBRANCH  35  41
ENDBRANCH  33  34
ENDBRANCH  31  33
ENDBRANCH   1  27
TORSDOF 6
ENDMDL
MODEL 7
REMARK minimizedAffinity -9.61693096
REMARK  6 active torsions:
REMARK  status: ('A' for Active; 'I' for Inactive)
REMARK    1  A    between atoms: O1_2  and  C2_3 
REMARK    2  A    between atoms: C7_9  and  C8_10 
REMARK    3  A    between atoms: C8_10  and  N1_11 
REMARK    4  A    between atoms: C12_15  and  N2_16 
REMARK       I    between atoms: N2_16  and  C13_17 
REMARK       I    between atoms: C13_17  and  N3_19 
REMARK    5  A    between atoms: N3_19  and  C14_20 
REMARK    6  A    between atoms: C17_26  and  C18_27 
ROOT
HETATM    1  N2  UNL     1      -4.826  48.691 -26.604  1.00  0.00    -0.337 N 
HETATM    2  C13 UNL     1      -4.735  48.284 -27.921  1.00  0.00     0.322 C 
HETATM    3  O2  UNL     1      -3.715  47.797 -28.396  1.00  0.00    -0.247 OA
HETATM    4  N3  UNL     1      -5.925  48.473 -28.572  1.00  0.00    -0.295 N 
HETATM    5  H16 UNL     1      -5.382  49.530 -26.491  1.00  0.00     0.164 HD
HETATM    6  H17 UNL     1      -6.738  48.675 -28.012  1.00  0.00     0.172 HD
ENDROOT
BRANCH   4   7
HETATM    7  C14 UNL     1      -6.233  48.199 -29.906  1.00  0.00     0.111 A 
HETATM    8  C15 UNL     1      -5.300  48.271 -30.932  1.00  0.00     0.080 A 
HETATM    9  C16 UNL     1      -5.786  47.960 -32.202  1.00  0.00     0.065 A 
HETATM   10  N4  UNL     1      -5.173  47.908 -33.419  1.00  0.00    -0.299 N 
HETATM   11  C24 UNL     1      -7.109  47.614 -32.439  1.00  0.00     0.036 A 
HETATM   12  N5  UNL     1      -5.986  47.561 -34.428  1.00  0.00    -0.299 N 
HETATM   13  H19 UNL     1      -4.203  48.118 -33.633  1.00  0.00     0.187 HD
HETATM   14  C17 UNL     1      -7.188  47.391 -33.850  1.00  0.00     0.072 A 
ATOM     15  H5  UNL     1      -5.746  47.451 -35.414  1.00  0.00     0.187 HD
HETATM   16  C25 UNL     1      -7.978  47.563 -31.347  1.00  0.00     0.105 A 
HETATM   17  N7  UNL     1      -7.532  47.866 -30.099  1.00  0.00    -0.351 N 
ATOM     18  H7  UNL     1      -8.176  47.843 -29.308  1.00  0.00     0.166 HD
BRANCH  14  19
HETATM   19  C18 UNL     1      -8.351  47.027 -34.656  1.00  0.00    -0.004 A 
HETATM   20  C19 UNL     1      -8.441  47.381 -36.001  1.00  0.00     0.031 A 
HETATM   21  C20 UNL     1      -9.561  46.987 -36.711  1.00  0.00     0.089 A 
HETATM   22  N6  UNL     1     -10.579  46.277 -36.180  1.00  0.00    -0.369 N 
HETATM   23  C21 UNL     1     -10.480  45.930 -34.875  1.00  0.00     0.005 A 
ATOM     24  H6  UNL     1     -11.389  46.012 -36.739  1.00  0.00     0.165 HD
HETATM   25  C22 UNL     1     -11.593  45.111 -34.292  1.00  0.00     0.068 C 
HETATM   26  C23 UNL     1      -9.387  46.278 -34.089  1.00  0.00     0.038 A 
ENDBRANCH  14  19
ENDBRANCH   4   7
BRANCH   1  27
HETATM   27  C12 UNL     1      -3.636  48.676 -25.750  1.00  0.00     0.114 C 
HETATM   28  C11 UNL     1      -4.031  48.402 -24.292  1.00  0.00     0.029 C 
HETATM   29  C10 UNL     1      -3.991  49.657 -23.420  1.00  0.00     0.032 C 
HETATM   30  C9  UNL     1      -4.444  50.902 -24.180  1.00  0.00     0.273 C 
HETATM   31  N1  UNL     1      -3.713  51.160 -25.431  1.00  0.00     0.094 N 
HETATM   32  C26 UNL     1      -2.879  50.016 -25.869  1.00  0.00     0.297 C 
BRANCH  31  33
HETATM   33  C8  UNL     1      -2.931  52.410 -25.340  1.00  0.00     0.317 C 
BRANCH  33  34
HETATM   34  C7  UNL     1      -1.516  52.305 -25.866  1.00  0.00     0.042 A 
HETATM   35  C2  UNL     1      -0.432  51.948 -25.041  1.00  0.00     0.079 A 
HETATM   36  C3  UNL     1       0.858  51.873 -25.590  1.00  0.00     0.037 A 
HETATM   37  C4  UNL     1       1.076  52.153 -26.941  1.00  0.00     0.006 A 
HETATM   38  C5  UNL     1       0.009  52.508 -27.758  1.00  0.00     0.043 A 
HETATM   39  C6  UNL     1      -1.271  52.575 -27.219  1.00  0.00     0.127 A 
HETATM   40  F1  UNL     1      -2.284  52.923 -28.028  1.00  0.00    -0.205 F 
BRANCH  35  41
HETATM   41  O1  UNL     1      -0.732  51.677 -23.730  1.00  0.00    -0.355 OA
HETATM   42  C1  UNL     1       0.118  52.233 -22.735  1.00  0.00     0.210 C 
ENDBRANCH  35  41
ENDBRANCH  33  34
ENDBRANCH  31  33
ENDBRANCH   1  27
TORSDOF 6
ENDMDL
MODEL 8
REMARK minimizedAffinity -9.4320755
REMARK  6 active torsions:
REMARK  status: ('A' for Active; 'I' for Inactive)
REMARK    1  A    between atoms: O1_2  and  C2_3 
REMARK    2  A    between atoms: C7_9  and  C8_10 
REMARK    3  A    between atoms: C8_10  and  N1_11 
REMARK    4  A    between atoms: C12_15  and  N2_16 
REMARK       I    between atoms: N2_16  and  C13_17 
REMARK       I    between atoms: C13_17  and  N3_19 
REMARK    5  A    between atoms: N3_19  and  C14_20 
REMARK    6  A    between atoms: C17_26  and  C18_27 
ROOT
HETATM    1  N2  UNL     1      -4.791  49.028 -28.611  1.00  0.00    -0.337 N 
HETATM    2  C13 UNL     1      -3.766  49.215 -27.704  1.00  0.00     0.322 C 
HETATM    3  O2  UNL     1      -3.142  48.285 -27.207  1.00  0.00    -0.247 OA
HETATM    4  N3  UNL     1      -3.547  50.550 -27.486  1.00  0.00    -0.295 N 
HETATM    5  H16 UNL     1      -5.547  49.691 -28.491  1.00  0.00     0.164 HD
HETATM    6  H17 UNL     1      -3.980  51.204 -28.118  1.00  0.00     0.172 HD
ENDROOT
BRANCH   4   7
HETATM    7  C14 UNL     1      -2.613  51.144 -26.637  1.00  0.00     0.111 A 
HETATM    8  C15 UNL     1      -1.558  51.926 -27.094  1.00  0.00     0.080 A 
HETATM    9  C16 UNL     1      -0.726  52.442 -26.101  1.00  0.00     0.065 A 
HETATM   10  N4  UNL     1       0.374  53.245 -26.168  1.00  0.00    -0.299 N 
HETATM   11  C24 UNL     1      -0.919  52.191 -24.749  1.00  0.00     0.036 A 
HETATM   12  N5  UNL     1       0.915  53.535 -24.976  1.00  0.00    -0.299 N 
HETATM   13  H19 UNL     1       0.820  53.616 -27.002  1.00  0.00     0.187 HD
HETATM   14  C17 UNL     1       0.144  52.883 -24.088  1.00  0.00     0.072 A 
ATOM     15  H5  UNL     1       1.729  54.120 -24.785  1.00  0.00     0.187 HD
HETATM   16  C25 UNL     1      -2.008  51.399 -24.380  1.00  0.00     0.105 A 
HETATM   17  N7  UNL     1      -2.832  50.878 -25.327  1.00  0.00    -0.351 N 
ATOM     18  H7  UNL     1      -3.616  50.287 -25.051  1.00  0.00     0.166 HD
BRANCH  14  19
HETATM   19  C18 UNL     1       0.448  52.944 -22.659  1.00  0.00    -0.004 A 
HETATM   20  C19 UNL     1       1.179  54.001 -22.118  1.00  0.00     0.031 A 
HETATM   21  C20 UNL     1       1.413  54.006 -20.754  1.00  0.00     0.089 A 
HETATM   22  N6  UNL     1       0.976  53.047 -19.911  1.00  0.00    -0.369 N 
HETATM   23  C21 UNL     1       0.260  52.029 -20.443  1.00  0.00     0.005 A 
ATOM     24  H6  UNL     1       1.177  53.088 -18.912  1.00  0.00     0.165 HD
HETATM   25  C22 UNL     1      -0.256  50.982 -19.503  1.00  0.00     0.068 C 
HETATM   26  C23 UNL     1      -0.028  51.948 -21.802  1.00  0.00     0.038 A 
ENDBRANCH  14  19
ENDBRANCH   4   7
BRANCH   1  27
HETATM   27  C12 UNL     1      -5.263  47.674 -28.912  1.00  0.00     0.114 C 
HETATM   28  C11 UNL     1      -5.364  47.470 -30.431  1.00  0.00     0.029 C 
HETATM   29  C10 UNL     1      -6.803  47.515 -30.941  1.00  0.00     0.032 C 
HETATM   30  C9  UNL     1      -7.652  48.535 -30.186  1.00  0.00     0.273 C 
HETATM   31  N1  UNL     1      -7.664  48.363 -28.724  1.00  0.00     0.094 N 
HETATM   32  C26 UNL     1      -6.627  47.424 -28.236  1.00  0.00     0.297 C 
BRANCH  31  33
HETATM   33  C8  UNL     1      -9.012  47.996 -28.244  1.00  0.00     0.317 C 
BRANCH  33  34
HETATM   34  C7  UNL     1      -9.770  47.056 -29.155  1.00  0.00     0.042 A 
HETATM   35  C2  UNL     1      -9.703  45.656 -29.014  1.00  0.00     0.079 A 
HETATM   36  C3  UNL     1     -10.427  44.838 -29.895  1.00  0.00     0.037 A 
HETATM   37  C4  UNL     1     -11.208  45.398 -30.910  1.00  0.00     0.006 A 
HETATM   38  C5  UNL     1     -11.275  46.779 -31.053  1.00  0.00     0.043 A 
HETATM   39  C6  UNL     1     -10.564  47.591 -30.177  1.00  0.00     0.127 A 
HETATM   40  F1  UNL     1     -10.644  48.922 -30.337  1.00  0.00    -0.205 F 
BRANCH  35  41
HETATM   41  O1  UNL     1      -8.924  45.187 -27.986  1.00  0.00    -0.355 OA
HETATM   42  C1  UNL     1      -7.999  44.149 -28.285  1.00  0.00     0.210 C 
ENDBRANCH  35  41
ENDBRANCH  33  34
ENDBRANCH  31  33
ENDBRANCH   1  27
TORSDOF 6
ENDMDL
MODEL 9
REMARK minimizedAffinity -9.41870213
REMARK  6 active torsions:
REMARK  status: ('A' for Active; 'I' for Inactive)
REMARK    1  A    between atoms: O1_2  and  C2_3 
REMARK    2  A    between atoms: C7_9  and  C8_10 
REMARK    3  A    between atoms: C8_10  and  N1_11 
REMARK    4  A    between atoms: C12_15  and  N2_16 
REMARK       I    between atoms: N2_16  and  C13_17 
REMARK       I    between atoms: C13_17  and  N3_19 
REMARK    5  A    between atoms: N3_19  and  C14_20 
REMARK    6  A    between atoms: C17_26  and  C18_27 
ROOT
HETATM    1  N2  UNL     1      -3.300  49.193 -22.008  1.00  0.00    -0.337 N 
HETATM    2  C13 UNL     1      -2.877  50.083 -21.040  1.00  0.00     0.322 C 
HETATM    3  O2  UNL     1      -3.458  51.136 -20.808  1.00  0.00    -0.247 OA
HETATM    4  N3  UNL     1      -1.772  49.602 -20.388  1.00  0.00    -0.295 N 
HETATM    5  H16 UNL     1      -2.532  48.747 -22.494  1.00  0.00     0.164 HD
HETATM    6  H17 UNL     1      -1.531  48.634 -20.527  1.00  0.00     0.172 HD
ENDROOT
BRANCH   4   7
HETATM    7  C14 UNL     1      -1.046  50.205 -19.360  1.00  0.00     0.111 A 
HETATM    8  C15 UNL     1      -0.355  51.401 -19.517  1.00  0.00     0.080 A 
HETATM    9  C16 UNL     1       0.313  51.856 -18.381  1.00  0.00     0.065 A 
HETATM   10  N4  UNL     1       1.063  52.973 -18.157  1.00  0.00    -0.299 N 
HETATM   11  C24 UNL     1       0.305  51.168 -17.175  1.00  0.00     0.036 A 
HETATM   12  N5  UNL     1       1.548  53.067 -16.910  1.00  0.00    -0.299 N 
HETATM   13  H19 UNL     1       1.300  53.703 -18.822  1.00  0.00     0.187 HD
HETATM   14  C17 UNL     1       1.107  51.958 -16.292  1.00  0.00     0.072 A 
ATOM     15  H5  UNL     1       2.123  53.814 -16.519  1.00  0.00     0.187 HD
HETATM   16  C25 UNL     1      -0.418  49.976 -17.106  1.00  0.00     0.105 A 
HETATM   17  N7  UNL     1      -1.074  49.506 -18.201  1.00  0.00    -0.351 N 
ATOM     18  H7  UNL     1      -1.588  48.626 -18.148  1.00  0.00     0.166 HD
BRANCH  14  19
HETATM   19  C18 UNL     1       1.465  51.696 -14.899  1.00  0.00    -0.004 A 
HETATM   20  C19 UNL     1       0.654  52.127 -13.850  1.00  0.00     0.031 A 
HETATM   21  C20 UNL     1       1.042  51.828 -12.555  1.00  0.00     0.089 A 
HETATM   22  N6  UNL     1       2.161  51.141 -12.243  1.00  0.00    -0.369 N 
HETATM   23  C21 UNL     1       2.938  50.719 -13.269  1.00  0.00     0.005 A 
ATOM     24  H6  UNL     1       2.411  50.947 -11.274  1.00  0.00     0.165 HD
HETATM   25  C22 UNL     1       4.164  49.927 -12.926  1.00  0.00     0.068 C 
HETATM   26  C23 UNL     1       2.621  50.970 -14.600  1.00  0.00     0.038 A 
ENDBRANCH  14  19
ENDBRANCH   4   7
BRANCH   1  27
HETATM   27  C12 UNL     1      -4.407  49.553 -22.899  1.00  0.00     0.114 C 
HETATM   28  C11 UNL     1      -4.788  48.359 -23.785  1.00  0.00     0.029 C 
HETATM   29  C10 UNL     1      -4.284  48.499 -25.221  1.00  0.00     0.032 C 
HETATM   30  C9  UNL     1      -2.917  49.176 -25.289  1.00  0.00     0.273 C 
HETATM   31  N1  UNL     1      -2.844  50.486 -24.622  1.00  0.00     0.094 N 
HETATM   32  C26 UNL     1      -4.017  50.772 -23.763  1.00  0.00     0.297 C 
BRANCH  31  33
HETATM   33  C8  UNL     1      -2.599  51.566 -25.599  1.00  0.00     0.317 C 
BRANCH  33  34
HETATM   34  C7  UNL     1      -1.156  51.705 -26.033  1.00  0.00     0.042 A 
HETATM   35  C2  UNL     1      -0.153  52.184 -25.168  1.00  0.00     0.079 A 
HETATM   36  C3  UNL     1       1.166  52.293 -25.634  1.00  0.00     0.037 A 
HETATM   37  C4  UNL     1       1.492  51.937 -26.946  1.00  0.00     0.006 A 
HETATM   38  C5  UNL     1       0.504  51.466 -27.803  1.00  0.00     0.043 A 
HETATM   39  C6  UNL     1      -0.802  51.349 -27.341  1.00  0.00     0.127 A 
HETATM   40  F1  UNL     1      -1.738  50.894 -28.189  1.00  0.00    -0.205 F 
BRANCH  35  41
HETATM   41  O1  UNL     1      -0.553  52.501 -23.894  1.00  0.00    -0.355 OA
HETATM   42  C1  UNL     1       0.464  52.729 -22.926  1.00  0.00     0.210 C 
ENDBRANCH  35  41
ENDBRANCH  33  34
ENDBRANCH  31  33
ENDBRANCH   1  27
TORSDOF 6
ENDMDL
