MODEL 1
REMARK minimizedAffinity -8.18588448
REMARK CNNscore 0.547566056
REMARK CNNaffinity 5.96784544
REMARK  7 active torsions:
REMARK  status: ('A' for Active; 'I' for Inactive)
REMARK       I    between atoms: C1_2  and  N1_3 
REMARK    1  A    between atoms: C1_2  and  C8_12 
REMARK    2  A    between atoms: N1_3  and  C2_4 
REMARK    3  A    between atoms: C5_7  and  O2_8 
REMARK    4  A    between atoms: N2_15  and  C11_16 
REMARK    5  A    between atoms: C11_16  and  C12_17 
REMARK       I    between atoms: C12_17  and  N3_19 
REMARK    6  A    between atoms: N4_22  and  C15_23 
REMARK    7  A    between atoms: C18_26  and  C19_27 
ROOT
HETATM    1  C12 UNL     1      -7.346  47.334 -26.755  1.00  0.00     0.248 C 
HETATM    2  O3  UNL     1      -7.074  46.976 -27.905  1.00  0.00    -0.271 OA
HETATM    3  N3  UNL     1      -6.385  47.863 -25.906  1.00  0.00    -0.348 N 
HETATM    4  C13 UNL     1      -5.022  48.061 -26.398  1.00  0.00     0.145 C 
HETATM    5  C14 UNL     1      -4.347  49.306 -25.795  1.00  0.00     0.143 C 
HETATM    6  N4  UNL     1      -4.381  49.300 -24.320  1.00  0.00    -0.378 N 
HETATM    7  C25 UNL     1      -5.347  48.395 -23.675  1.00  0.00     0.143 C 
HETATM    8  C26 UNL     1      -6.631  48.249 -24.512  1.00  0.00     0.145 C 
ENDROOT
BRANCH   1   9
HETATM    9  C11 UNL     1      -8.786  47.209 -26.232  1.00  0.00     0.374 C 
BRANCH   9  10
HETATM   10  N2  UNL     1      -9.714  46.763 -27.302  1.00  0.00     0.098 N 
HETATM   11  C10 UNL     1     -10.204  47.889 -28.113  1.00  0.00     0.274 C 
HETATM   12  C9  UNL     1     -11.370  48.489 -27.340  1.00  0.00     0.046 C 
HETATM   13  C8  UNL     1     -11.896  47.341 -26.478  1.00  0.00     0.108 C 
HETATM   14  C27 UNL     1     -10.936  46.179 -26.719  1.00  0.00     0.287 C 
BRANCH  13  15
HETATM   15  C1  UNL     1     -13.340  46.946 -26.758  1.00  0.00     0.228 C 
HETATM   16  O1  UNL     1     -13.748  46.919 -27.916  1.00  0.00    -0.273 OA
HETATM   17  N1  UNL     1     -14.093  46.676 -25.629  1.00  0.00    -0.327 N 
HETATM   18  H1  UNL     1     -13.624  46.756 -24.735  1.00  0.00     0.169 HD
BRANCH  17  19
HETATM   19  C2  UNL     1     -15.453  46.304 -25.569  1.00  0.00     0.036 A 
HETATM   20  C3  UNL     1     -15.903  45.387 -26.531  1.00  0.00     0.032 A 
HETATM   21  C4  UNL     1     -17.235  44.962 -26.549  1.00  0.00     0.040 A 
HETATM   22  C5  UNL     1     -18.121  45.450 -25.600  1.00  0.00     0.087 A 
HETATM   23  C6  UNL     1     -17.687  46.362 -24.636  1.00  0.00     0.069 A 
HETATM   24 CL1  UNL     1     -18.792  46.967 -23.458  1.00  0.00    -0.081 Cl
HETATM   25  C7  UNL     1     -16.358  46.790 -24.620  1.00  0.00     0.056 A 
BRANCH  22  26
HETATM   26  O2  UNL     1     -19.412  45.005 -25.653  1.00  0.00    -0.359 OA
HETATM   27  H4  UNL     1     -19.893  45.433 -24.920  1.00  0.00     0.217 HD
ENDBRANCH  22  26
ENDBRANCH  17  19
ENDBRANCH  13  15
ENDBRANCH   9  10
ENDBRANCH   1   9
BRANCH   6  28
HETATM   28  C15 UNL     1      -3.441  50.006 -23.586  1.00  0.00     0.030 A 
HETATM   29  C16 UNL     1      -3.443  51.405 -23.514  1.00  0.00     0.030 A 
HETATM   30  C17 UNL     1      -2.480  52.119 -22.783  1.00  0.00     0.014 A 
HETATM   31  C18 UNL     1      -1.460  51.458 -22.087  1.00  0.00    -0.023 A 
HETATM   32  C23 UNL     1      -1.450  50.060 -22.147  1.00  0.00     0.014 A 
HETATM   33  C24 UNL     1      -2.418  49.355 -22.879  1.00  0.00     0.030 A 
BRANCH  31  34
HETATM   34  C19 UNL     1      -0.445  52.200 -21.331  1.00  0.00     0.005 A 
HETATM   35  C20 UNL     1       0.604  52.879 -21.931  1.00  0.00     0.102 A 
HETATM   36  N5  UNL     1       1.555  53.571 -21.264  1.00  0.00    -0.361 N 
HETATM   37  C21 UNL     1       1.435  53.580 -19.930  1.00  0.00     0.180 A 
ATOM     38  H5  UNL     1       2.314  54.054 -21.746  1.00  0.00     0.166 HD
HETATM   39  N6  UNL     1       0.473  52.972 -19.222  1.00  0.00    -0.361 N 
HETATM   40  C22 UNL     1      -0.445  52.293 -19.948  1.00  0.00     0.102 A 
ATOM     41  H6  UNL     1       0.435  53.018 -18.204  1.00  0.00     0.166 HD
ENDBRANCH  31  34
ENDBRANCH   6  28
TORSDOF 7
ENDMDL
MODEL 2
REMARK minimizedAffinity -8.56426144
REMARK CNNscore 0.474377811
REMARK CNNaffinity 5.76906013
REMARK  7 active torsions:
REMARK  status: ('A' for Active; 'I' for Inactive)
REMARK       I    between atoms: C1_2  and  N1_3 
REMARK    1  A    between atoms: C1_2  and  C8_12 
REMARK    2  A    between atoms: N1_3  and  C2_4 
REMARK    3  A    between atoms: C5_7  and  O2_8 
REMARK    4  A    between atoms: N2_15  and  C11_16 
REMARK    5  A    between atoms: C11_16  and  C12_17 
REMARK       I    between atoms: C12_17  and  N3_19 
REMARK    6  A    between atoms: N4_22  and  C15_23 
REMARK    7  A    between atoms: C18_26  and  C19_27 
ROOT
HETATM    1  C12 UNL     1      -7.539  47.392 -32.114  1.00  0.00     0.248 C 
HETATM    2  O3  UNL     1      -7.000  47.626 -33.200  1.00  0.00    -0.271 OA
HETATM    3  N3  UNL     1      -6.840  47.455 -30.919  1.00  0.00    -0.348 N 
HETATM    4  C13 UNL     1      -5.436  47.866 -30.929  1.00  0.00     0.145 C 
HETATM    5  C14 UNL     1      -5.044  48.674 -29.679  1.00  0.00     0.143 C 
HETATM    6  N4  UNL     1      -5.379  47.966 -28.428  1.00  0.00    -0.378 N 
HETATM    7  C25 UNL     1      -6.348  46.861 -28.522  1.00  0.00     0.143 C 
HETATM    8  C26 UNL     1      -7.408  47.129 -29.606  1.00  0.00     0.145 C 
ENDROOT
BRANCH   1   9
HETATM    9  C11 UNL     1      -9.033  47.030 -32.062  1.00  0.00     0.374 C 
BRANCH   9  10
HETATM   10  N2  UNL     1      -9.263  45.794 -31.272  1.00  0.00     0.098 N 
HETATM   11  C10 UNL     1     -10.072  44.809 -32.009  1.00  0.00     0.274 C 
HETATM   12  C9  UNL     1     -11.524  45.220 -31.807  1.00  0.00     0.046 C 
HETATM   13  C8  UNL     1     -11.527  45.999 -30.492  1.00  0.00     0.108 C 
HETATM   14  C27 UNL     1     -10.063  46.089 -30.069  1.00  0.00     0.287 C 
BRANCH  13  15
HETATM   15  C1  UNL     1     -12.393  45.391 -29.396  1.00  0.00     0.228 C 
HETATM   16  O1  UNL     1     -11.983  44.420 -28.767  1.00  0.00    -0.273 OA
HETATM   17  N1  UNL     1     -13.625  45.999 -29.232  1.00  0.00    -0.327 N 
HETATM   18  H1  UNL     1     -13.834  46.784 -29.838  1.00  0.00     0.169 HD
BRANCH  17  19
HETATM   19  C2  UNL     1     -14.642  45.653 -28.316  1.00  0.00     0.036 A 
HETATM   20  C3  UNL     1     -14.545  46.194 -27.026  1.00  0.00     0.032 A 
HETATM   21  C4  UNL     1     -15.506  45.906 -26.052  1.00  0.00     0.040 A 
HETATM   22  C5  UNL     1     -16.571  45.076 -26.370  1.00  0.00     0.087 A 
HETATM   23  C6  UNL     1     -16.682  44.532 -27.650  1.00  0.00     0.069 A 
HETATM   24 CL1  UNL     1     -18.010  43.502 -28.041  1.00  0.00    -0.081 Cl
HETATM   25  C7  UNL     1     -15.721  44.817 -28.622  1.00  0.00     0.056 A 
BRANCH  22  26
HETATM   26  O2  UNL     1     -17.489  44.823 -25.389  1.00  0.00    -0.359 OA
HETATM   27  H4  UNL     1     -18.169  44.240 -25.775  1.00  0.00     0.217 HD
ENDBRANCH  22  26
ENDBRANCH  17  19
ENDBRANCH  13  15
ENDBRANCH   9  10
ENDBRANCH   1   9
BRANCH   6  28
HETATM   28  C15 UNL     1      -4.695  48.239 -27.254  1.00  0.00     0.030 A 
HETATM   29  C16 UNL     1      -3.324  48.525 -27.235  1.00  0.00     0.030 A 
HETATM   30  C17 UNL     1      -2.630  48.786 -26.042  1.00  0.00     0.014 A 
HETATM   31  C18 UNL     1      -3.282  48.767 -24.803  1.00  0.00    -0.023 A 
HETATM   32  C23 UNL     1      -4.653  48.486 -24.810  1.00  0.00     0.014 A 
HETATM   33  C24 UNL     1      -5.339  48.230 -26.007  1.00  0.00     0.030 A 
BRANCH  31  34
HETATM   34  C19 UNL     1      -2.559  49.027 -23.554  1.00  0.00     0.005 A 
HETATM   35  C20 UNL     1      -2.573  48.159 -22.474  1.00  0.00     0.102 A 
HETATM   36  N5  UNL     1      -1.919  48.369 -21.309  1.00  0.00    -0.361 N 
HETATM   37  C21 UNL     1      -1.215  49.507 -21.237  1.00  0.00     0.180 A 
ATOM     38  H5  UNL     1      -1.959  47.704 -20.536  1.00  0.00     0.166 HD
HETATM   39  N6  UNL     1      -1.112  50.430 -22.204  1.00  0.00    -0.361 N 
HETATM   40  C22 UNL     1      -1.794  50.163 -23.341  1.00  0.00     0.102 A 
ATOM     41  H6  UNL     1      -0.558  51.278 -22.088  1.00  0.00     0.166 HD
ENDBRANCH  31  34
ENDBRANCH   6  28
TORSDOF 7
ENDMDL
MODEL 3
REMARK minimizedAffinity -8.70858669
REMARK CNNscore 0.46180138
REMARK CNNaffinity 6.45214891
REMARK  7 active torsions:
REMARK  status: ('A' for Active; 'I' for Inactive)
REMARK       I    between atoms: C1_2  and  N1_3 
REMARK    1  A    between atoms: C1_2  and  C8_12 
REMARK    2  A    between atoms: N1_3  and  C2_4 
REMARK    3  A    between atoms: C5_7  and  O2_8 
REMARK    4  A    between atoms: N2_15  and  C11_16 
REMARK    5  A    between atoms: C11_16  and  C12_17 
REMARK       I    between atoms: C12_17  and  N3_19 
REMARK    6  A    between atoms: N4_22  and  C15_23 
REMARK    7  A    between atoms: C18_26  and  C19_27 
ROOT
HETATM    1  C12 UNL     1      -7.468  48.255 -24.974  1.00  0.00     0.248 C 
HETATM    2  O3  UNL     1      -8.337  48.778 -24.269  1.00  0.00    -0.271 OA
HETATM    3  N3  UNL     1      -7.721  47.860 -26.278  1.00  0.00    -0.348 N 
HETATM    4  C13 UNL     1      -9.036  48.118 -26.865  1.00  0.00     0.145 C 
HETATM    5  C14 UNL     1      -8.964  48.436 -28.369  1.00  0.00     0.143 C 
HETATM    6  N4  UNL     1      -8.243  47.394 -29.126  1.00  0.00    -0.378 N 
HETATM    7  C25 UNL     1      -7.389  46.476 -28.355  1.00  0.00     0.143 C 
HETATM    8  C26 UNL     1      -6.751  47.179 -27.143  1.00  0.00     0.145 C 
ENDROOT
BRANCH   1   9
HETATM    9  C11 UNL     1      -6.053  48.037 -24.411  1.00  0.00     0.374 C 
BRANCH   9  10
HETATM   10  N2  UNL     1      -5.306  49.316 -24.314  1.00  0.00     0.098 N 
HETATM   11  C10 UNL     1      -4.284  49.440 -25.365  1.00  0.00     0.274 C 
HETATM   12  C9  UNL     1      -3.065  48.680 -24.861  1.00  0.00     0.046 C 
HETATM   13  C8  UNL     1      -3.197  48.701 -23.339  1.00  0.00     0.108 C 
HETATM   14  C27 UNL     1      -4.538  49.374 -23.056  1.00  0.00     0.287 C 
BRANCH  13  15
HETATM   15  C1  UNL     1      -2.054  49.398 -22.611  1.00  0.00     0.228 C 
HETATM   16  O1  UNL     1      -1.387  48.774 -21.791  1.00  0.00    -0.273 OA
HETATM   17  N1  UNL     1      -1.895  50.733 -22.935  1.00  0.00    -0.327 N 
HETATM   18  H1  UNL     1      -2.534  51.119 -23.620  1.00  0.00     0.169 HD
BRANCH  17  19
HETATM   19  C2  UNL     1      -0.942  51.638 -22.418  1.00  0.00     0.036 A 
HETATM   20  C3  UNL     1      -0.142  52.318 -23.350  1.00  0.00     0.032 A 
HETATM   21  C4  UNL     1       0.828  53.232 -22.930  1.00  0.00     0.040 A 
HETATM   22  C5  UNL     1       0.999  53.472 -21.575  1.00  0.00     0.087 A 
HETATM   23  C6  UNL     1       0.211  52.804 -20.637  1.00  0.00     0.069 A 
HETATM   24 CL1  UNL     1       0.426  53.106 -18.952  1.00  0.00    -0.081 Cl
HETATM   25  C7  UNL     1      -0.757  51.888 -21.055  1.00  0.00     0.056 A 
BRANCH  22  26
HETATM   26  O2  UNL     1       1.958  54.376 -21.209  1.00  0.00    -0.359 OA
HETATM   27  H4  UNL     1       1.941  54.434 -20.236  1.00  0.00     0.217 HD
ENDBRANCH  22  26
ENDBRANCH  17  19
ENDBRANCH  13  15
ENDBRANCH   9  10
ENDBRANCH   1   9
BRANCH   6  28
HETATM   28  C15 UNL     1      -8.484  47.205 -30.478  1.00  0.00     0.030 A 
HETATM   29  C16 UNL     1      -9.108  46.053 -30.973  1.00  0.00     0.030 A 
HETATM   30  C17 UNL     1      -9.337  45.856 -32.345  1.00  0.00     0.014 A 
HETATM   31  C18 UNL     1      -8.943  46.810 -33.291  1.00  0.00    -0.023 A 
HETATM   32  C23 UNL     1      -8.322  47.967 -32.808  1.00  0.00     0.014 A 
HETATM   33  C24 UNL     1      -8.101  48.156 -31.435  1.00  0.00     0.030 A 
BRANCH  31  34
HETATM   34  C19 UNL     1      -9.170  46.603 -34.725  1.00  0.00     0.005 A 
HETATM   35  C20 UNL     1      -8.391  47.190 -35.709  1.00  0.00     0.102 A 
HETATM   36  N5  UNL     1      -8.573  47.022 -37.038  1.00  0.00    -0.361 N 
HETATM   37  C21 UNL     1      -9.586  46.218 -37.386  1.00  0.00     0.180 A 
ATOM     38  H5  UNL     1      -7.977  47.477 -37.731  1.00  0.00     0.166 HD
HETATM   39  N6  UNL     1     -10.414  45.585 -36.542  1.00  0.00    -0.361 N 
HETATM   40  C22 UNL     1     -10.182  45.800 -35.227  1.00  0.00     0.102 A 
ATOM     41  H6  UNL     1     -11.169  44.983 -36.870  1.00  0.00     0.166 HD
ENDBRANCH  31  34
ENDBRANCH   6  28
TORSDOF 7
ENDMDL
MODEL 4
REMARK minimizedAffinity -8.66431522
REMARK CNNscore 0.38396576
REMARK CNNaffinity 6.42972231
REMARK  7 active torsions:
REMARK  status: ('A' for Active; 'I' for Inactive)
REMARK       I    between atoms: C1_2  and  N1_3 
REMARK    1  A    between atoms: C1_2  and  C8_12 
REMARK    2  A    between atoms: N1_3  and  C2_4 
REMARK    3  A    between atoms: C5_7  and  O2_8 
REMARK    4  A    between atoms: N2_15  and  C11_16 
REMARK    5  A    between atoms: C11_16  and  C12_17 
REMARK       I    between atoms: C12_17  and  N3_19 
REMARK    6  A    between atoms: N4_22  and  C15_23 
REMARK    7  A    between atoms: C18_26  and  C19_27 
ROOT
HETATM    1  C12 UNL     1      -6.319  47.418 -28.351  1.00  0.00     0.248 C 
HETATM    2  O3  UNL     1      -6.134  47.264 -29.562  1.00  0.00    -0.271 OA
HETATM    3  N3  UNL     1      -5.369  48.012 -27.534  1.00  0.00    -0.348 N 
HETATM    4  C13 UNL     1      -4.134  48.526 -28.125  1.00  0.00     0.145 C 
HETATM    5  C14 UNL     1      -3.619  49.793 -27.418  1.00  0.00     0.143 C 
HETATM    6  N4  UNL     1      -3.467  49.598 -25.963  1.00  0.00    -0.378 N 
HETATM    7  C25 UNL     1      -4.171  48.452 -25.363  1.00  0.00     0.143 C 
HETATM    8  C26 UNL     1      -5.503  48.167 -26.082  1.00  0.00     0.145 C 
ENDROOT
BRANCH   1   9
HETATM    9  C11 UNL     1      -7.638  46.955 -27.711  1.00  0.00     0.374 C 
BRANCH   9  10
HETATM   10  N2  UNL     1      -8.752  47.881 -28.036  1.00  0.00     0.098 N 
HETATM   11  C10 UNL     1      -9.113  48.733 -26.892  1.00  0.00     0.274 C 
HETATM   12  C9  UNL     1     -10.047  47.901 -26.025  1.00  0.00     0.046 C 
HETATM   13  C8  UNL     1     -10.674  46.892 -26.986  1.00  0.00     0.108 C 
HETATM   14  C27 UNL     1      -9.986  47.127 -28.327  1.00  0.00     0.287 C 
BRANCH  13  15
HETATM   15  C1  UNL     1     -12.190  46.988 -27.107  1.00  0.00     0.228 C 
HETATM   16  O1  UNL     1     -12.721  48.089 -27.223  1.00  0.00    -0.273 OA
HETATM   17  N1  UNL     1     -12.851  45.774 -27.038  1.00  0.00    -0.327 N 
HETATM   18  H1  UNL     1     -12.279  44.946 -26.923  1.00  0.00     0.169 HD
BRANCH  17  19
HETATM   19  C2  UNL     1     -14.242  45.546 -27.102  1.00  0.00     0.036 A 
HETATM   20  C3  UNL     1     -14.731  44.933 -28.266  1.00  0.00     0.032 A 
HETATM   21  C4  UNL     1     -16.095  44.668 -28.419  1.00  0.00     0.040 A 
HETATM   22  C5  UNL     1     -16.975  45.012 -27.403  1.00  0.00     0.087 A 
HETATM   23  C6  UNL     1     -16.503  45.620 -26.239  1.00  0.00     0.069 A 
HETATM   24 CL1  UNL     1     -17.601  46.046 -24.978  1.00  0.00    -0.081 Cl
HETATM   25  C7  UNL     1     -15.141  45.889 -26.088  1.00  0.00     0.056 A 
BRANCH  22  26
HETATM   26  O2  UNL     1     -18.300  44.732 -27.593  1.00  0.00    -0.359 OA
HETATM   27  H4  UNL     1     -18.773  45.024 -26.792  1.00  0.00     0.217 HD
ENDBRANCH  22  26
ENDBRANCH  17  19
ENDBRANCH  13  15
ENDBRANCH   9  10
ENDBRANCH   1   9
BRANCH   6  28
HETATM   28  C15 UNL     1      -2.582  50.374 -25.231  1.00  0.00     0.030 A 
HETATM   29  C16 UNL     1      -2.927  50.939 -23.996  1.00  0.00     0.030 A 
HETATM   30  C17 UNL     1      -2.034  51.739 -23.264  1.00  0.00     0.014 A 
HETATM   31  C18 UNL     1      -0.746  52.013 -23.741  1.00  0.00    -0.023 A 
HETATM   32  C23 UNL     1      -0.389  51.450 -24.971  1.00  0.00     0.014 A 
HETATM   33  C24 UNL     1      -1.288  50.650 -25.695  1.00  0.00     0.030 A 
BRANCH  31  34
HETATM   34  C19 UNL     1       0.186  52.857 -22.985  1.00  0.00     0.005 A 
HETATM   35  C20 UNL     1       0.505  52.633 -21.655  1.00  0.00     0.102 A 
HETATM   36  N5  UNL     1       1.358  53.390 -20.929  1.00  0.00    -0.361 N 
HETATM   37  C21 UNL     1       1.918  54.418 -21.582  1.00  0.00     0.180 A 
ATOM     38  H5  UNL     1       1.562  53.193 -19.949  1.00  0.00     0.166 HD
HETATM   39  N6  UNL     1       1.702  54.746 -22.864  1.00  0.00    -0.361 N 
HETATM   40  C22 UNL     1       0.835  53.952 -23.532  1.00  0.00     0.102 A 
ATOM     41  H6  UNL     1       2.162  55.543 -23.306  1.00  0.00     0.166 HD
ENDBRANCH  31  34
ENDBRANCH   6  28
TORSDOF 7
ENDMDL
MODEL 5
REMARK minimizedAffinity -8.50994396
REMARK CNNscore 0.364313185
REMARK CNNaffinity 5.77257729
REMARK  7 active torsions:
REMARK  status: ('A' for Active; 'I' for Inactive)
REMARK       I    between atoms: C1_2  and  N1_3 
REMARK    1  A    between atoms: C1_2  and  C8_12 
REMARK    2  A    between atoms: N1_3  and  C2_4 
REMARK    3  A    between atoms: C5_7  and  O2_8 
REMARK    4  A    between atoms: N2_15  and  C11_16 
REMARK    5  A    between atoms: C11_16  and  C12_17 
REMARK       I    between atoms: C12_17  and  N3_19 
REMARK    6  A    between atoms: N4_22  and  C15_23 
REMARK    7  A    between atoms: C18_26  and  C19_27 
ROOT
HETATM    1  C12 UNL     1      -9.163  45.877 -31.209  1.00  0.00     0.248 C 
HETATM    2  O3  UNL     1      -8.968  44.971 -32.025  1.00  0.00    -0.271 OA
HETATM    3  N3  UNL     1     -10.345  45.976 -30.491  1.00  0.00    -0.348 N 
HETATM    4  C13 UNL     1     -11.373  44.948 -30.655  1.00  0.00     0.145 C 
HETATM    5  C14 UNL     1     -12.145  44.665 -29.354  1.00  0.00     0.143 C 
HETATM    6  N4  UNL     1     -12.714  45.892 -28.765  1.00  0.00    -0.378 N 
HETATM    7  C25 UNL     1     -12.160  47.176 -29.225  1.00  0.00     0.143 C 
HETATM    8  C26 UNL     1     -10.661  47.060 -29.556  1.00  0.00     0.145 C 
ENDROOT
BRANCH   1   9
HETATM    9  C11 UNL     1      -8.072  46.932 -30.958  1.00  0.00     0.374 C 
BRANCH   9  10
HETATM   10  N2  UNL     1      -6.858  46.323 -30.358  1.00  0.00     0.098 N 
HETATM   11  C10 UNL     1      -7.133  45.723 -29.043  1.00  0.00     0.274 C 
HETATM   12  C9  UNL     1      -7.069  46.863 -28.037  1.00  0.00     0.046 C 
HETATM   13  C8  UNL     1      -6.161  47.905 -28.689  1.00  0.00     0.108 C 
HETATM   14  C27 UNL     1      -5.844  47.356 -30.077  1.00  0.00     0.287 C 
BRANCH  13  15
HETATM   15  C1  UNL     1      -4.893  48.222 -27.906  1.00  0.00     0.228 C 
HETATM   16  O1  UNL     1      -3.797  48.059 -28.435  1.00  0.00    -0.273 OA
HETATM   17  N1  UNL     1      -5.110  48.649 -26.608  1.00  0.00    -0.327 N 
HETATM   18  H1  UNL     1      -6.073  48.720 -26.302  1.00  0.00     0.169 HD
BRANCH  17  19
HETATM   19  C2  UNL     1      -4.140  48.997 -25.642  1.00  0.00     0.036 A 
HETATM   20  C3  UNL     1      -4.280  48.425 -24.369  1.00  0.00     0.032 A 
HETATM   21  C4  UNL     1      -3.367  48.712 -23.349  1.00  0.00     0.040 A 
HETATM   22  C5  UNL     1      -2.309  49.572 -23.603  1.00  0.00     0.087 A 
HETATM   23  C6  UNL     1      -2.156  50.147 -24.865  1.00  0.00     0.069 A 
HETATM   24 CL1  UNL     1      -0.838  51.216 -25.177  1.00  0.00    -0.081 Cl
HETATM   25  C7  UNL     1      -3.069  49.863 -25.883  1.00  0.00     0.056 A 
BRANCH  22  26
HETATM   26  O2  UNL     1      -1.439  49.823 -22.578  1.00  0.00    -0.359 OA
HETATM   27  H4  UNL     1      -0.758  50.430 -22.922  1.00  0.00     0.217 HD
ENDBRANCH  22  26
ENDBRANCH  17  19
ENDBRANCH  13  15
ENDBRANCH   9  10
ENDBRANCH   1   9
BRANCH   6  28
HETATM   28  C15 UNL     1     -13.818  45.832 -27.930  1.00  0.00     0.030 A 
HETATM   29  C16 UNL     1     -15.033  45.264 -28.336  1.00  0.00     0.030 A 
HETATM   30  C17 UNL     1     -16.157  45.219 -27.493  1.00  0.00     0.014 A 
HETATM   31  C18 UNL     1     -16.114  45.747 -26.198  1.00  0.00    -0.023 A 
HETATM   32  C23 UNL     1     -14.905  46.313 -25.779  1.00  0.00     0.014 A 
HETATM   33  C24 UNL     1     -13.787  46.352 -26.627  1.00  0.00     0.030 A 
BRANCH  31  34
HETATM   34  C19 UNL     1     -17.288  45.712 -25.319  1.00  0.00     0.005 A 
HETATM   35  C20 UNL     1     -17.903  44.536 -24.920  1.00  0.00     0.102 A 
HETATM   36  N5  UNL     1     -18.985  44.467 -24.112  1.00  0.00    -0.361 N 
HETATM   37  C21 UNL     1     -19.463  45.644 -23.685  1.00  0.00     0.180 A 
ATOM     38  H5  UNL     1     -19.410  43.579 -23.846  1.00  0.00     0.166 HD
HETATM   39  N6  UNL     1     -18.967  46.851 -23.989  1.00  0.00    -0.361 N 
HETATM   40  C22 UNL     1     -17.887  46.851 -24.804  1.00  0.00     0.102 A 
ATOM     41  H6  UNL     1     -19.376  47.714 -23.629  1.00  0.00     0.166 HD
ENDBRANCH  31  34
ENDBRANCH   6  28
TORSDOF 7
ENDMDL
MODEL 6
REMARK minimizedAffinity -8.41798496
REMARK CNNscore 0.339152694
REMARK CNNaffinity 6.43074751
REMARK  7 active torsions:
REMARK  status: ('A' for Active; 'I' for Inactive)
REMARK       I    between atoms: C1_2  and  N1_3 
REMARK    1  A    between atoms: C1_2  and  C8_12 
REMARK    2  A    between atoms: N1_3  and  C2_4 
REMARK    3  A    between atoms: C5_7  and  O2_8 
REMARK    4  A    between atoms: N2_15  and  C11_16 
REMARK    5  A    between atoms: C11_16  and  C12_17 
REMARK       I    between atoms: C12_17  and  N3_19 
REMARK    6  A    between atoms: N4_22  and  C15_23 
REMARK    7  A    between atoms: C18_26  and  C19_27 
ROOT
HETATM    1  C12 UNL     1      -3.743  49.138 -27.787  1.00  0.00     0.248 C 
HETATM    2  O3  UNL     1      -2.892  49.989 -28.064  1.00  0.00    -0.271 OA
HETATM    3  N3  UNL     1      -4.742  48.781 -28.680  1.00  0.00    -0.348 N 
HETATM    4  C13 UNL     1      -4.761  49.381 -30.014  1.00  0.00     0.145 C 
HETATM    5  C14 UNL     1      -5.267  48.411 -31.096  1.00  0.00     0.143 C 
HETATM    6  N4  UNL     1      -6.582  47.834 -30.757  1.00  0.00    -0.378 N 
HETATM    7  C25 UNL     1      -7.012  47.923 -29.352  1.00  0.00     0.143 C 
HETATM    8  C26 UNL     1      -5.815  47.825 -28.388  1.00  0.00     0.145 C 
ENDROOT
BRANCH   1   9
HETATM    9  C11 UNL     1      -3.707  48.433 -26.421  1.00  0.00     0.374 C 
BRANCH   9  10
HETATM   10  N2  UNL     1      -4.206  49.321 -25.340  1.00  0.00     0.098 N 
HETATM   11  C10 UNL     1      -3.683  50.691 -25.465  1.00  0.00     0.274 C 
HETATM   12  C9  UNL     1      -2.301  50.675 -24.825  1.00  0.00     0.046 C 
HETATM   13  C8  UNL     1      -2.349  49.519 -23.827  1.00  0.00     0.108 C 
HETATM   14  C27 UNL     1      -3.714  48.866 -24.026  1.00  0.00     0.287 C 
BRANCH  13  15
HETATM   15  C1  UNL     1      -2.126  49.924 -22.375  1.00  0.00     0.228 C 
HETATM   16  O1  UNL     1      -2.943  49.592 -21.520  1.00  0.00    -0.273 OA
HETATM   17  N1  UNL     1      -0.993  50.687 -22.158  1.00  0.00    -0.327 N 
HETATM   18  H1  UNL     1      -0.419  50.898 -22.966  1.00  0.00     0.169 HD
BRANCH  17  19
HETATM   19  C2  UNL     1      -0.535  51.221 -20.934  1.00  0.00     0.036 A 
HETATM   20  C3  UNL     1      -0.184  52.579 -20.926  1.00  0.00     0.032 A 
HETATM   21  C4  UNL     1       0.281  53.194 -19.759  1.00  0.00     0.040 A 
HETATM   22  C5  UNL     1       0.392  52.450 -18.594  1.00  0.00     0.087 A 
HETATM   23  C6  UNL     1       0.045  51.098 -18.586  1.00  0.00     0.069 A 
HETATM   24 CL1  UNL     1       0.185  50.176 -17.135  1.00  0.00    -0.081 Cl
HETATM   25  C7  UNL     1      -0.416  50.483 -19.752  1.00  0.00     0.056 A 
BRANCH  22  26
HETATM   26  O2  UNL     1       0.848  53.091 -17.476  1.00  0.00    -0.359 OA
HETATM   27  H4  UNL     1       0.856  52.437 -16.753  1.00  0.00     0.217 HD
ENDBRANCH  22  26
ENDBRANCH  17  19
ENDBRANCH  13  15
ENDBRANCH   9  10
ENDBRANCH   1   9
BRANCH   6  28
HETATM   28  C15 UNL     1      -7.429  47.368 -31.750  1.00  0.00     0.030 A 
HETATM   29  C16 UNL     1      -7.247  47.690 -33.102  1.00  0.00     0.030 A 
HETATM   30  C17 UNL     1      -8.116  47.229 -34.105  1.00  0.00     0.014 A 
HETATM   31  C18 UNL     1      -9.218  46.422 -33.796  1.00  0.00    -0.023 A 
HETATM   32  C23 UNL     1      -9.408  46.090 -32.450  1.00  0.00     0.014 A 
HETATM   33  C24 UNL     1      -8.533  46.553 -31.455  1.00  0.00     0.030 A 
BRANCH  31  34
HETATM   34  C19 UNL     1     -10.134  45.948 -34.839  1.00  0.00     0.005 A 
HETATM   35  C20 UNL     1     -11.464  45.642 -34.599  1.00  0.00     0.102 A 
HETATM   36  N5  UNL     1     -12.335  45.202 -35.536  1.00  0.00    -0.361 N 
HETATM   37  C21 UNL     1     -11.836  45.072 -36.773  1.00  0.00     0.180 A 
ATOM     38  H5  UNL     1     -13.307  44.984 -35.315  1.00  0.00     0.166 HD
HETATM   39  N6  UNL     1     -10.575  45.335 -37.144  1.00  0.00    -0.361 N 
HETATM   40  C22 UNL     1      -9.754  45.766 -36.159  1.00  0.00     0.102 A 
ATOM     41  H6  UNL     1     -10.256  45.217 -38.106  1.00  0.00     0.166 HD
ENDBRANCH  31  34
ENDBRANCH   6  28
TORSDOF 7
ENDMDL
MODEL 7
REMARK minimizedAffinity -8.51931381
REMARK CNNscore 0.297590196
REMARK CNNaffinity 6.28520727
REMARK  7 active torsions:
REMARK  status: ('A' for Active; 'I' for Inactive)
REMARK       I    between atoms: C1_2  and  N1_3 
REMARK    1  A    between atoms: C1_2  and  C8_12 
REMARK    2  A    between atoms: N1_3  and  C2_4 
REMARK    3  A    between atoms: C5_7  and  O2_8 
REMARK    4  A    between atoms: N2_15  and  C11_16 
REMARK    5  A    between atoms: C11_16  and  C12_17 
REMARK       I    between atoms: C12_17  and  N3_19 
REMARK    6  A    between atoms: N4_22  and  C15_23 
REMARK    7  A    between atoms: C18_26  and  C19_27 
ROOT
HETATM    1  C12 UNL     1      -5.143  48.006 -28.355  1.00  0.00     0.248 C 
HETATM    2  O3  UNL     1      -4.499  47.767 -29.381  1.00  0.00    -0.271 OA
HETATM    3  N3  UNL     1      -4.522  48.340 -27.161  1.00  0.00    -0.348 N 
HETATM    4  C13 UNL     1      -3.066  48.473 -27.121  1.00  0.00     0.145 C 
HETATM    5  C14 UNL     1      -2.595  49.570 -26.150  1.00  0.00     0.143 C 
HETATM    6  N4  UNL     1      -3.146  49.388 -24.793  1.00  0.00    -0.378 N 
HETATM    7  C25 UNL     1      -4.314  48.502 -24.657  1.00  0.00     0.143 C 
HETATM    8  C26 UNL     1      -5.226  48.573 -25.896  1.00  0.00     0.145 C 
ENDROOT
BRANCH   1   9
HETATM    9  C11 UNL     1      -6.679  47.947 -28.381  1.00  0.00     0.374 C 
BRANCH   9  10
HETATM   10  N2  UNL     1      -7.179  46.626 -27.924  1.00  0.00     0.098 N 
HETATM   11  C10 UNL     1      -7.431  45.711 -29.050  1.00  0.00     0.274 C 
HETATM   12  C9  UNL     1      -8.816  46.062 -29.576  1.00  0.00     0.046 C 
HETATM   13  C8  UNL     1      -9.537  46.689 -28.383  1.00  0.00     0.108 C 
HETATM   14  C27 UNL     1      -8.494  46.765 -27.272  1.00  0.00     0.287 C 
BRANCH  13  15
HETATM   15  C1  UNL     1     -10.786  45.943 -27.932  1.00  0.00     0.228 C 
HETATM   16  O1  UNL     1     -10.685  44.802 -27.489  1.00  0.00    -0.273 OA
HETATM   17  N1  UNL     1     -11.968  46.641 -28.105  1.00  0.00    -0.327 N 
HETATM   18  H1  UNL     1     -11.898  47.571 -28.500  1.00  0.00     0.169 HD
BRANCH  17  19
HETATM   19  C2  UNL     1     -13.277  46.210 -27.799  1.00  0.00     0.036 A 
HETATM   20  C3  UNL     1     -13.941  45.456 -28.779  1.00  0.00     0.032 A 
HETATM   21  C4  UNL     1     -15.240  44.986 -28.565  1.00  0.00     0.040 A 
HETATM   22  C5  UNL     1     -15.878  45.266 -27.365  1.00  0.00     0.087 A 
HETATM   23  C6  UNL     1     -15.229  46.013 -26.381  1.00  0.00     0.069 A 
HETATM   24 CL1  UNL     1     -16.026  46.358 -24.890  1.00  0.00    -0.081 Cl
HETATM   25  C7  UNL     1     -13.933  46.486 -26.595  1.00  0.00     0.056 A 
BRANCH  22  26
HETATM   26  O2  UNL     1     -17.147  44.785 -27.197  1.00  0.00    -0.359 OA
HETATM   27  H4  UNL     1     -17.442  45.058 -26.309  1.00  0.00     0.217 HD
ENDBRANCH  22  26
ENDBRANCH  17  19
ENDBRANCH  13  15
ENDBRANCH   9  10
ENDBRANCH   1   9
BRANCH   6  28
HETATM   28  C15 UNL     1      -2.496  49.913 -23.687  1.00  0.00     0.030 A 
HETATM   29  C16 UNL     1      -1.928  51.194 -23.690  1.00  0.00     0.030 A 
HETATM   30  C17 UNL     1      -1.256  51.717 -22.574  1.00  0.00     0.014 A 
HETATM   31  C18 UNL     1      -1.117  50.974 -21.395  1.00  0.00    -0.023 A 
HETATM   32  C23 UNL     1      -1.684  49.694 -21.378  1.00  0.00     0.014 A 
HETATM   33  C24 UNL     1      -2.357  49.181 -22.498  1.00  0.00     0.030 A 
BRANCH  31  34
HETATM   34  C19 UNL     1      -0.406  51.512 -20.230  1.00  0.00     0.005 A 
HETATM   35  C20 UNL     1       0.320  52.692 -20.262  1.00  0.00     0.102 A 
HETATM   36  N5  UNL     1       0.987  53.215 -19.209  1.00  0.00    -0.361 N 
HETATM   37  C21 UNL     1       0.909  52.514 -18.070  1.00  0.00     0.180 A 
ATOM     38  H5  UNL     1       1.514  54.086 -19.277  1.00  0.00     0.166 HD
HETATM   39  N6  UNL     1       0.242  51.364 -17.898  1.00  0.00    -0.361 N 
HETATM   40  C22 UNL     1      -0.399  50.892 -18.991  1.00  0.00     0.102 A 
ATOM     41  H6  UNL     1       0.220  50.877 -17.001  1.00  0.00     0.166 HD
ENDBRANCH  31  34
ENDBRANCH   6  28
TORSDOF 7
ENDMDL
MODEL 8
REMARK minimizedAffinity -8.96995544
REMARK CNNscore 0.273331583
REMARK CNNaffinity 6.39062643
REMARK  7 active torsions:
REMARK  status: ('A' for Active; 'I' for Inactive)
REMARK       I    between atoms: C1_2  and  N1_3 
REMARK    1  A    between atoms: C1_2  and  C8_12 
REMARK    2  A    between atoms: N1_3  and  C2_4 
REMARK    3  A    between atoms: C5_7  and  O2_8 
REMARK    4  A    between atoms: N2_15  and  C11_16 
REMARK    5  A    between atoms: C11_16  and  C12_17 
REMARK       I    between atoms: C12_17  and  N3_19 
REMARK    6  A    between atoms: N4_22  and  C15_23 
REMARK    7  A    between atoms: C18_26  and  C19_27 
ROOT
HETATM    1  C12 UNL     1       0.053  51.044 -14.466  1.00  0.00     0.248 C 
HETATM    2  O3  UNL     1      -0.333  49.950 -14.043  1.00  0.00    -0.271 OA
HETATM    3  N3  UNL     1       0.254  51.278 -15.818  1.00  0.00    -0.348 N 
HETATM    4  C13 UNL     1      -0.055  50.222 -16.783  1.00  0.00     0.145 C 
HETATM    5  C14 UNL     1      -0.598  50.773 -18.114  1.00  0.00     0.143 C 
HETATM    6  N4  UNL     1       0.298  51.785 -18.706  1.00  0.00    -0.378 N 
HETATM    7  C25 UNL     1       1.298  52.398 -17.817  1.00  0.00     0.143 C 
HETATM    8  C26 UNL     1       0.768  52.532 -16.377  1.00  0.00     0.145 C 
ENDROOT
BRANCH   1   9
HETATM    9  C11 UNL     1       0.314  52.198 -13.485  1.00  0.00     0.374 C 
BRANCH   9  10
HETATM   10  N2  UNL     1       0.789  51.695 -12.171  1.00  0.00     0.098 N 
HETATM   11  C10 UNL     1       0.196  52.438 -11.048  1.00  0.00     0.274 C 
HETATM   12  C9  UNL     1       1.039  53.694 -10.880  1.00  0.00     0.046 C 
HETATM   13  C8  UNL     1       2.405  53.324 -11.457  1.00  0.00     0.108 C 
HETATM   14  C27 UNL     1       2.239  51.916 -12.023  1.00  0.00     0.287 C 
BRANCH  13  15
HETATM   15  C1  UNL     1       3.556  53.398 -10.462  1.00  0.00     0.228 C 
HETATM   16  O1  UNL     1       4.095  52.363 -10.079  1.00  0.00    -0.273 OA
HETATM   17  N1  UNL     1       3.874  54.677 -10.043  1.00  0.00    -0.327 N 
HETATM   18  H1  UNL     1       3.330  55.437 -10.434  1.00  0.00     0.169 HD
BRANCH  17  19
HETATM   19  C2  UNL     1       4.873  55.060  -9.122  1.00  0.00     0.036 A 
HETATM   20  C3  UNL     1       6.125  54.439  -9.250  1.00  0.00     0.032 A 
HETATM   21  C4  UNL     1       7.174  54.754  -8.382  1.00  0.00     0.040 A 
HETATM   22  C5  UNL     1       6.975  55.696  -7.384  1.00  0.00     0.087 A 
HETATM   23  C6  UNL     1       5.736  56.322  -7.244  1.00  0.00     0.069 A 
HETATM   24 CL1  UNL     1       5.491  57.493  -6.001  1.00  0.00    -0.081 Cl
HETATM   25  C7  UNL     1       4.686  56.005  -8.109  1.00  0.00     0.056 A 
BRANCH  22  26
HETATM   26  O2  UNL     1       8.029  55.975  -6.559  1.00  0.00    -0.359 OA
HETATM   27  H4  UNL     1       7.728  56.656  -5.928  1.00  0.00     0.217 HD
ENDBRANCH  22  26
ENDBRANCH  17  19
ENDBRANCH  13  15
ENDBRANCH   9  10
ENDBRANCH   1   9
BRANCH   6  28
HETATM   28  C15 UNL     1       0.287  52.030 -20.070  1.00  0.00     0.030 A 
HETATM   29  C16 UNL     1       0.981  53.105 -20.643  1.00  0.00     0.030 A 
HETATM   30  C17 UNL     1       0.956  53.361 -22.024  1.00  0.00     0.014 A 
HETATM   31  C18 UNL     1       0.227  52.548 -22.900  1.00  0.00    -0.023 A 
HETATM   32  C23 UNL     1      -0.467  51.469 -22.340  1.00  0.00     0.014 A 
HETATM   33  C24 UNL     1      -0.434  51.220 -20.959  1.00  0.00     0.030 A 
BRANCH  31  34
HETATM   34  C19 UNL     1       0.189  52.818 -24.341  1.00  0.00     0.005 A 
HETATM   35  C20 UNL     1       0.239  54.096 -24.876  1.00  0.00     0.102 A 
HETATM   36  N5  UNL     1       0.206  54.380 -26.198  1.00  0.00    -0.361 N 
HETATM   37  C21 UNL     1       0.123  53.321 -27.015  1.00  0.00     0.180 A 
ATOM     38  H5  UNL     1       0.241  55.337 -26.549  1.00  0.00     0.166 HD
HETATM   39  N6  UNL     1       0.070  52.037 -26.635  1.00  0.00    -0.361 N 
HETATM   40  C22 UNL     1       0.103  51.821 -25.300  1.00  0.00     0.102 A 
ATOM     41  H6  UNL     1       0.009  51.272 -27.308  1.00  0.00     0.166 HD
ENDBRANCH  31  34
ENDBRANCH   6  28
TORSDOF 7
ENDMDL
MODEL 9
REMARK minimizedAffinity -9.02857971
REMARK CNNscore 0.266871691
REMARK CNNaffinity 6.40547991
REMARK  7 active torsions:
REMARK  status: ('A' for Active; 'I' for Inactive)
REMARK       I    between atoms: C1_2  and  N1_3 
REMARK    1  A    between atoms: C1_2  and  C8_12 
REMARK    2  A    between atoms: N1_3  and  C2_4 
REMARK    3  A    between atoms: C5_7  and  O2_8 
REMARK    4  A    between atoms: N2_15  and  C11_16 
REMARK    5  A    between atoms: C11_16  and  C12_17 
REMARK       I    between atoms: C12_17  and  N3_19 
REMARK    6  A    between atoms: N4_22  and  C15_23 
REMARK    7  A    between atoms: C18_26  and  C19_27 
ROOT
HETATM    1  C12 UNL     1       0.210  51.028 -14.668  1.00  0.00     0.248 C 
HETATM    2  O3  UNL     1      -0.062  49.899 -14.249  1.00  0.00    -0.271 OA
HETATM    3  N3  UNL     1       0.383  51.287 -16.019  1.00  0.00    -0.348 N 
HETATM    4  C13 UNL     1       0.181  50.211 -16.988  1.00  0.00     0.145 C 
HETATM    5  C14 UNL     1      -0.418  50.710 -18.316  1.00  0.00     0.143 C 
HETATM    6  N4  UNL     1       0.369  51.811 -18.904  1.00  0.00    -0.378 N 
HETATM    7  C25 UNL     1       1.304  52.518 -18.014  1.00  0.00     0.143 C 
HETATM    8  C26 UNL     1       0.767  52.590 -16.572  1.00  0.00     0.145 C 
ENDROOT
BRANCH   1   9
HETATM    9  C11 UNL     1       0.356  52.198 -13.681  1.00  0.00     0.374 C 
BRANCH   9  10
HETATM   10  N2  UNL     1       0.739  51.720 -12.328  1.00  0.00     0.098 N 
HETATM   11  C10 UNL     1      -0.316  51.972 -11.334  1.00  0.00     0.274 C 
HETATM   12  C9  UNL     1      -0.137  53.416 -10.884  1.00  0.00     0.046 C 
HETATM   13  C8  UNL     1       1.339  53.720 -11.138  1.00  0.00     0.108 C 
HETATM   14  C27 UNL     1       1.900  52.475 -11.820  1.00  0.00     0.287 C 
BRANCH  13  15
HETATM   15  C1  UNL     1       2.136  54.086  -9.892  1.00  0.00     0.228 C 
HETATM   16  O1  UNL     1       2.000  53.421  -8.869  1.00  0.00    -0.273 OA
HETATM   17  N1  UNL     1       2.944  55.200 -10.032  1.00  0.00    -0.327 N 
HETATM   18  H1  UNL     1       2.941  55.659 -10.934  1.00  0.00     0.169 HD
BRANCH  17  19
HETATM   19  C2  UNL     1       3.780  55.786  -9.056  1.00  0.00     0.036 A 
HETATM   20  C3  UNL     1       3.234  56.838  -8.304  1.00  0.00     0.032 A 
HETATM   21  C4  UNL     1       3.988  57.479  -7.316  1.00  0.00     0.040 A 
HETATM   22  C5  UNL     1       5.290  57.066  -7.075  1.00  0.00     0.087 A 
HETATM   23  C6  UNL     1       5.845  56.021  -7.815  1.00  0.00     0.069 A 
HETATM   24 CL1  UNL     1       7.465  55.510  -7.512  1.00  0.00    -0.081 Cl
HETATM   25  C7  UNL     1       5.094  55.382  -8.804  1.00  0.00     0.056 A 
BRANCH  22  26
HETATM   26  O2  UNL     1       5.990  57.719  -6.099  1.00  0.00    -0.359 OA
HETATM   27  H4  UNL     1       6.871  57.305  -6.051  1.00  0.00     0.217 HD
ENDBRANCH  22  26
ENDBRANCH  17  19
ENDBRANCH  13  15
ENDBRANCH   9  10
ENDBRANCH   1   9
BRANCH   6  28
HETATM   28  C15 UNL     1       0.330  52.061 -20.267  1.00  0.00     0.030 A 
HETATM   29  C16 UNL     1      -0.484  51.327 -21.140  1.00  0.00     0.030 A 
HETATM   30  C17 UNL     1      -0.509  51.571 -22.523  1.00  0.00     0.014 A 
HETATM   31  C18 UNL     1       0.289  52.567 -23.099  1.00  0.00    -0.023 A 
HETATM   32  C23 UNL     1       1.103  53.309 -22.237  1.00  0.00     0.014 A 
HETATM   33  C24 UNL     1       1.120  53.060 -20.856  1.00  0.00     0.030 A 
BRANCH  31  34
HETATM   34  C19 UNL     1       0.274  52.818 -24.544  1.00  0.00     0.005 A 
HETATM   35  C20 UNL     1       0.419  51.816 -25.491  1.00  0.00     0.102 A 
HETATM   36  N5  UNL     1       0.410  52.013 -26.829  1.00  0.00    -0.361 N 
HETATM   37  C21 UNL     1       0.241  53.281 -27.225  1.00  0.00     0.180 A 
ATOM     38  H5  UNL     1       0.525  51.246 -27.492  1.00  0.00     0.166 HD
HETATM   39  N6  UNL     1       0.086  54.343 -26.422  1.00  0.00    -0.361 N 
HETATM   40  C22 UNL     1       0.109  54.079 -25.095  1.00  0.00     0.102 A 
ATOM     41  H6  UNL     1      -0.040  55.287 -26.786  1.00  0.00     0.166 HD
ENDBRANCH  31  34
ENDBRANCH   6  28
TORSDOF 7
ENDMDL
