MODEL 1
REMARK minimizedAffinity -10.1607962
REMARK  7 active torsions:
REMARK  status: ('A' for Active; 'I' for Inactive)
REMARK    1  A    between atoms: C5_7  and  O1_8 
REMARK    2  A    between atoms: O1_8  and  C6_9 
REMARK    3  A    between atoms: C6_9  and  C7_10 
REMARK    4  A    between atoms: C7_10  and  N2_11 
REMARK    5  A    between atoms: C7_10  and  C8_12 
REMARK    6  A    between atoms: C8_12  and  C9_13 
REMARK    7  A    between atoms: C18_23  and  C19_24 
ROOT
HETATM    1  C1  UNL     1       1.412  53.828 -20.217  1.00  0.00     0.019 C 
HETATM    2  C2  UNL     1       1.049  53.493 -21.312  1.00  0.00    -0.059 C 
HETATM    3  C3  UNL     1       0.616  53.098 -22.620  1.00  0.00     0.097 A 
HETATM    4  N1  UNL     1       0.970  53.981 -23.585  1.00  0.00    -0.356 N 
ATOM      5  H1  UNL     1       1.502  54.824 -23.369  1.00  0.00     0.166 HD
HETATM    6  C4  UNL     1       0.584  53.691 -24.850  1.00  0.00     0.125 A 
HETATM    7  C5  UNL     1      -0.141  52.563 -25.205  1.00  0.00     0.085 A 
HETATM    8  C17 UNL     1      -0.490  51.680 -24.183  1.00  0.00     0.053 A 
HETATM    9  C18 UNL     1      -0.113  51.926 -22.852  1.00  0.00     0.012 A 
ENDROOT
BRANCH   9  10
HETATM   10  C19 UNL     1      -0.485  50.975 -21.796  1.00  0.00    -0.022 A 
HETATM   11  C20 UNL     1      -1.198  49.807 -22.104  1.00  0.00     0.013 A 
HETATM   12  C21 UNL     1      -1.550  48.899 -21.103  1.00  0.00     0.014 A 
HETATM   13  C22 UNL     1      -1.191  49.139 -19.767  1.00  0.00    -0.011 A 
HETATM   14  C23 UNL     1      -1.515  48.268 -18.723  1.00  0.00     0.099 A 
HETATM   15  C26 UNL     1      -0.470  50.302 -19.437  1.00  0.00    -0.022 A 
HETATM   16  N4  UNL     1      -1.184  48.466 -17.425  1.00  0.00    -0.374 N 
HETATM   17  C24 UNL     1      -0.494  49.591 -17.146  1.00  0.00     0.088 A 
ATOM     18  H4  UNL     1      -1.443  47.801 -16.697  1.00  0.00     0.164 HD
HETATM   19  C25 UNL     1      -0.119  50.524 -18.101  1.00  0.00     0.029 A 
HETATM   20  C27 UNL     1      -0.124  51.207 -20.457  1.00  0.00     0.024 A 
ENDBRANCH   9  10
BRANCH   7  21
HETATM   21  O1  UNL     1      -0.565  52.205 -26.450  1.00  0.00    -0.348 OA
BRANCH  21  22
HETATM   22  C6  UNL     1      -0.791  50.819 -26.727  1.00  0.00     0.211 C 
BRANCH  22  23
HETATM   23  C7  UNL     1      -2.294  50.487 -26.902  1.00  0.00     0.246 C 
BRANCH  23  24
HETATM   24  N2  UNL     1      -2.797  50.997 -28.195  1.00  0.00     0.085 N 
HETATM   25  H6  UNL     1      -2.371  50.482 -28.962  1.00  0.00     0.313 HD
HETATM   26  H7  UNL     1      -3.798  50.797 -28.251  1.00  0.00     0.313 HD
ENDBRANCH  23  24
BRANCH  23  27
HETATM   27  C8  UNL     1      -2.501  48.962 -26.765  1.00  0.00     0.078 C 
BRANCH  27  28
HETATM   28  C9  UNL     1      -3.931  48.563 -26.553  1.00  0.00    -0.028 A 
HETATM   29  C10 UNL     1      -4.855  48.274 -27.538  1.00  0.00     0.096 A 
HETATM   30  N3  UNL     1      -6.041  47.952 -26.935  1.00  0.00    -0.365 N 
HETATM   31  C11 UNL     1      -5.915  48.023 -25.568  1.00  0.00     0.042 A 
HETATM   32  H11 UNL     1      -6.891  47.696 -27.418  1.00  0.00     0.165 HD
HETATM   33  C12 UNL     1      -6.858  47.779 -24.563  1.00  0.00     0.030 A 
HETATM   34  C16 UNL     1      -4.600  48.400 -25.295  1.00  0.00    -0.002 A 
HETATM   35  C13 UNL     1      -6.445  47.928 -23.236  1.00  0.00     0.002 A 
HETATM   36  C14 UNL     1      -5.139  48.303 -22.930  1.00  0.00     0.001 A 
HETATM   37  C15 UNL     1      -4.208  48.541 -23.948  1.00  0.00     0.014 A 
ENDBRANCH  27  28
ENDBRANCH  23  27
ENDBRANCH  22  23
ENDBRANCH  21  22
ENDBRANCH   7  21
TORSDOF 7
ENDMDL
MODEL 2
REMARK minimizedAffinity -10.0797071
REMARK  7 active torsions:
REMARK  status: ('A' for Active; 'I' for Inactive)
REMARK    1  A    between atoms: C5_7  and  O1_8 
REMARK    2  A    between atoms: O1_8  and  C6_9 
REMARK    3  A    between atoms: C6_9  and  C7_10 
REMARK    4  A    between atoms: C7_10  and  N2_11 
REMARK    5  A    between atoms: C7_10  and  C8_12 
REMARK    6  A    between atoms: C8_12  and  C9_13 
REMARK    7  A    between atoms: C18_23  and  C19_24 
ROOT
HETATM    1  C1  UNL     1       0.972  54.066 -20.256  1.00  0.00     0.019 C 
HETATM    2  C2  UNL     1       0.378  53.170 -20.793  1.00  0.00    -0.059 C 
HETATM    3  C3  UNL     1      -0.331  52.104 -21.436  1.00  0.00     0.097 A 
HETATM    4  N1  UNL     1      -0.608  52.361 -22.737  1.00  0.00    -0.356 N 
ATOM      5  H1  UNL     1      -0.314  53.229 -23.185  1.00  0.00     0.166 HD
HETATM    6  C4  UNL     1      -1.293  51.410 -23.416  1.00  0.00     0.125 A 
HETATM    7  C5  UNL     1      -1.721  50.212 -22.863  1.00  0.00     0.085 A 
HETATM    8  C17 UNL     1      -1.419  49.986 -21.519  1.00  0.00     0.053 A 
HETATM    9  C18 UNL     1      -0.707  50.934 -20.766  1.00  0.00     0.012 A 
ENDROOT
BRANCH   9  10
HETATM   10  C19 UNL     1      -0.395  50.667 -19.356  1.00  0.00    -0.022 A 
HETATM   11  C20 UNL     1      -0.795  49.467 -18.750  1.00  0.00     0.013 A 
HETATM   12  C21 UNL     1      -0.496  49.208 -17.410  1.00  0.00     0.014 A 
HETATM   13  C22 UNL     1       0.215  50.147 -16.646  1.00  0.00    -0.011 A 
HETATM   14  C23 UNL     1       0.542  49.944 -15.302  1.00  0.00     0.099 A 
HETATM   15  C26 UNL     1       0.630  51.356 -17.236  1.00  0.00    -0.022 A 
HETATM   16  N4  UNL     1       1.226  50.826 -14.536  1.00  0.00    -0.374 N 
HETATM   17  C24 UNL     1       1.608  51.972 -15.134  1.00  0.00     0.088 A 
ATOM     18  H4  UNL     1       1.442  50.633 -13.558  1.00  0.00     0.164 HD
HETATM   19  C25 UNL     1       1.339  52.279 -16.460  1.00  0.00     0.029 A 
HETATM   20  C27 UNL     1       0.321  51.601 -18.587  1.00  0.00     0.024 A 
ENDBRANCH   9  10
BRANCH   7  21
HETATM   21  O1  UNL     1      -2.411  49.212 -23.478  1.00  0.00    -0.348 OA
BRANCH  21  22
HETATM   22  C6  UNL     1      -3.555  49.552 -24.269  1.00  0.00     0.211 C 
BRANCH  22  23
HETATM   23  C7  UNL     1      -3.833  48.517 -25.387  1.00  0.00     0.246 C 
BRANCH  23  24
HETATM   24  N2  UNL     1      -5.147  48.763 -26.017  1.00  0.00     0.085 N 
HETATM   25  H6  UNL     1      -5.126  49.639 -26.534  1.00  0.00     0.313 HD
HETATM   26  H7  UNL     1      -5.309  48.034 -26.715  1.00  0.00     0.313 HD
ENDBRANCH  23  24
BRANCH  23  27
HETATM   27  C8  UNL     1      -2.683  48.555 -26.418  1.00  0.00     0.078 C 
BRANCH  27  28
HETATM   28  C9  UNL     1      -2.399  49.926 -26.956  1.00  0.00    -0.028 A 
HETATM   29  C10 UNL     1      -3.287  50.742 -27.629  1.00  0.00     0.096 A 
HETATM   30  N3  UNL     1      -2.644  51.907 -27.948  1.00  0.00    -0.365 N 
HETATM   31  C11 UNL     1      -1.347  51.876 -27.495  1.00  0.00     0.042 A 
HETATM   32  H11 UNL     1      -3.058  52.686 -28.443  1.00  0.00     0.165 HD
HETATM   33  C12 UNL     1      -0.334  52.837 -27.594  1.00  0.00     0.030 A 
HETATM   34  C16 UNL     1      -1.163  50.646 -26.863  1.00  0.00    -0.002 A 
HETATM   35  C13 UNL     1       0.907  52.531 -27.031  1.00  0.00     0.002 A 
HETATM   36  C14 UNL     1       1.124  51.312 -26.393  1.00  0.00     0.001 A 
HETATM   37  C15 UNL     1       0.100  50.363 -26.302  1.00  0.00     0.014 A 
ENDBRANCH  27  28
ENDBRANCH  23  27
ENDBRANCH  22  23
ENDBRANCH  21  22
ENDBRANCH   7  21
TORSDOF 7
ENDMDL
MODEL 3
REMARK minimizedAffinity -10.0281229
REMARK  7 active torsions:
REMARK  status: ('A' for Active; 'I' for Inactive)
REMARK    1  A    between atoms: C5_7  and  O1_8 
REMARK    2  A    between atoms: O1_8  and  C6_9 
REMARK    3  A    between atoms: C6_9  and  C7_10 
REMARK    4  A    between atoms: C7_10  and  N2_11 
REMARK    5  A    between atoms: C7_10  and  C8_12 
REMARK    6  A    between atoms: C8_12  and  C9_13 
REMARK    7  A    between atoms: C18_23  and  C19_24 
ROOT
HETATM    1  C1  UNL     1       1.733  54.102 -20.821  1.00  0.00     0.019 C 
HETATM    2  C2  UNL     1       1.229  53.710 -21.839  1.00  0.00    -0.059 C 
HETATM    3  C3  UNL     1       0.628  53.245 -23.054  1.00  0.00     0.097 A 
HETATM    4  N1  UNL     1       0.884  54.050 -24.113  1.00  0.00    -0.356 N 
ATOM      5  H1  UNL     1       1.461  54.886 -24.022  1.00  0.00     0.166 HD
HETATM    6  C4  UNL     1       0.337  53.691 -25.299  1.00  0.00     0.125 A 
HETATM    7  C5  UNL     1      -0.456  52.569 -25.485  1.00  0.00     0.085 A 
HETATM    8  C17 UNL     1      -0.700  51.768 -24.369  1.00  0.00     0.053 A 
HETATM    9  C18 UNL     1      -0.156  52.086 -23.114  1.00  0.00     0.012 A 
ENDROOT
BRANCH   9  10
HETATM   10  C19 UNL     1      -0.420  51.221 -21.958  1.00  0.00    -0.022 A 
HETATM   11  C20 UNL     1      -1.005  49.957 -22.129  1.00  0.00     0.013 A 
HETATM   12  C21 UNL     1      -1.254  49.129 -21.031  1.00  0.00     0.014 A 
HETATM   13  C22 UNL     1      -0.918  49.549 -19.734  1.00  0.00    -0.011 A 
HETATM   14  C23 UNL     1      -1.144  48.765 -18.599  1.00  0.00     0.099 A 
HETATM   15  C26 UNL     1      -0.326  50.811 -19.541  1.00  0.00    -0.022 A 
HETATM   16  N4  UNL     1      -0.833  49.137 -17.334  1.00  0.00    -0.374 N 
HETATM   17  C24 UNL     1      -0.267  50.352 -17.187  1.00  0.00     0.088 A 
ATOM     18  H4  UNL     1      -1.017  48.529 -16.536  1.00  0.00     0.164 HD
HETATM   19  C25 UNL     1       0.003  51.212 -18.241  1.00  0.00     0.029 A 
HETATM   20  C27 UNL     1      -0.082  51.632 -20.657  1.00  0.00     0.024 A 
ENDBRANCH   9  10
BRANCH   7  21
HETATM   21  O1  UNL     1      -1.039  52.145 -26.641  1.00  0.00    -0.348 OA
BRANCH  21  22
HETATM   22  C6  UNL     1      -1.259  50.743 -26.827  1.00  0.00     0.211 C 
BRANCH  22  23
HETATM   23  C7  UNL     1      -2.752  50.403 -27.061  1.00  0.00     0.246 C 
BRANCH  23  24
HETATM   24  N2  UNL     1      -3.230  50.985 -28.332  1.00  0.00     0.085 N 
HETATM   25  H6  UNL     1      -2.777  50.524 -29.118  1.00  0.00     0.313 HD
HETATM   26  H7  UNL     1      -4.226  50.776 -28.426  1.00  0.00     0.313 HD
ENDBRANCH  23  24
BRANCH  23  27
HETATM   27  C8  UNL     1      -2.941  48.869 -27.023  1.00  0.00     0.078 C 
BRANCH  27  28
HETATM   28  C9  UNL     1      -4.355  48.441 -26.769  1.00  0.00    -0.028 A 
HETATM   29  C10 UNL     1      -5.004  48.437 -25.550  1.00  0.00     0.096 A 
HETATM   30  N3  UNL     1      -6.280  47.981 -25.742  1.00  0.00    -0.365 N 
HETATM   31  C11 UNL     1      -6.485  47.684 -27.069  1.00  0.00     0.042 A 
HETATM   32  H11 UNL     1      -6.978  47.876 -25.018  1.00  0.00     0.165 HD
HETATM   33  C12 UNL     1      -7.626  47.195 -27.716  1.00  0.00     0.030 A 
HETATM   34  C16 UNL     1      -5.296  47.967 -27.741  1.00  0.00    -0.002 A 
HETATM   35  C13 UNL     1      -7.548  46.986 -29.096  1.00  0.00     0.002 A 
HETATM   36  C14 UNL     1      -6.376  47.259 -29.797  1.00  0.00     0.001 A 
HETATM   37  C15 UNL     1      -5.245  47.749 -29.134  1.00  0.00     0.014 A 
ENDBRANCH  27  28
ENDBRANCH  23  27
ENDBRANCH  22  23
ENDBRANCH  21  22
ENDBRANCH   7  21
TORSDOF 7
ENDMDL
MODEL 4
REMARK minimizedAffinity -9.99045849
REMARK  7 active torsions:
REMARK  status: ('A' for Active; 'I' for Inactive)
REMARK    1  A    between atoms: C5_7  and  O1_8 
REMARK    2  A    between atoms: O1_8  and  C6_9 
REMARK    3  A    between atoms: C6_9  and  C7_10 
REMARK    4  A    between atoms: C7_10  and  N2_11 
REMARK    5  A    between atoms: C7_10  and  C8_12 
REMARK    6  A    between atoms: C8_12  and  C9_13 
REMARK    7  A    between atoms: C18_23  and  C19_24 
ROOT
HETATM    1  C1  UNL     1       1.513  53.391 -20.667  1.00  0.00     0.019 C 
HETATM    2  C2  UNL     1       0.488  52.763 -20.666  1.00  0.00    -0.059 C 
HETATM    3  C3  UNL     1      -0.734  52.014 -20.662  1.00  0.00     0.097 A 
HETATM    4  N1  UNL     1      -1.127  51.648 -19.418  1.00  0.00    -0.356 N 
ATOM      5  H1  UNL     1      -0.591  51.908 -18.590  1.00  0.00     0.166 HD
HETATM    6  C4  UNL     1      -2.265  50.920 -19.326  1.00  0.00     0.125 A 
HETATM    7  C5  UNL     1      -3.034  50.534 -20.413  1.00  0.00     0.085 A 
HETATM    8  C17 UNL     1      -2.594  50.927 -21.678  1.00  0.00     0.053 A 
HETATM    9  C18 UNL     1      -1.424  51.687 -21.835  1.00  0.00     0.012 A 
ENDROOT
BRANCH   9  10
HETATM   10  C19 UNL     1      -0.988  52.096 -23.177  1.00  0.00    -0.022 A 
HETATM   11  C20 UNL     1       0.339  52.487 -23.410  1.00  0.00     0.013 A 
HETATM   12  C21 UNL     1       0.758  52.872 -24.685  1.00  0.00     0.014 A 
HETATM   13  C22 UNL     1      -0.145  52.871 -25.761  1.00  0.00    -0.011 A 
HETATM   14  C23 UNL     1       0.216  53.247 -27.058  1.00  0.00     0.099 A 
HETATM   15  C26 UNL     1      -1.480  52.477 -25.550  1.00  0.00    -0.022 A 
HETATM   16  N4  UNL     1      -0.627  53.257 -28.117  1.00  0.00    -0.374 N 
HETATM   17  C24 UNL     1      -1.897  52.874 -27.879  1.00  0.00     0.088 A 
ATOM     18  H4  UNL     1      -0.317  53.539 -29.047  1.00  0.00     0.164 HD
HETATM   19  C25 UNL     1      -2.365  52.481 -26.634  1.00  0.00     0.029 A 
HETATM   20  C27 UNL     1      -1.885  52.092 -24.259  1.00  0.00     0.024 A 
ENDBRANCH   9  10
BRANCH   7  21
HETATM   21  O1  UNL     1      -4.185  49.805 -20.401  1.00  0.00    -0.348 OA
BRANCH  21  22
HETATM   22  C6  UNL     1      -5.435  50.489 -20.541  1.00  0.00     0.211 C 
BRANCH  22  23
HETATM   23  C7  UNL     1      -6.231  50.021 -21.784  1.00  0.00     0.246 C 
BRANCH  23  24
HETATM   24  N2  UNL     1      -6.176  51.037 -22.856  1.00  0.00     0.085 N 
HETATM   25  H6  UNL     1      -5.228  51.107 -23.220  1.00  0.00     0.313 HD
HETATM   26  H7  UNL     1      -6.748  50.710 -23.637  1.00  0.00     0.313 HD
ENDBRANCH  23  24
BRANCH  23  27
HETATM   27  C8  UNL     1      -5.686  48.654 -22.256  1.00  0.00     0.078 C 
BRANCH  27  28
HETATM   28  C9  UNL     1      -5.792  48.441 -23.737  1.00  0.00    -0.028 A 
HETATM   29  C10 UNL     1      -6.938  48.126 -24.440  1.00  0.00     0.096 A 
HETATM   30  N3  UNL     1      -6.615  48.020 -25.766  1.00  0.00    -0.365 N 
HETATM   31  C11 UNL     1      -5.275  48.262 -25.951  1.00  0.00     0.042 A 
HETATM   32  H11 UNL     1      -7.264  47.799 -26.509  1.00  0.00     0.165 HD
HETATM   33  C12 UNL     1      -4.513  48.264 -27.125  1.00  0.00     0.030 A 
HETATM   34  C16 UNL     1      -4.730  48.535 -24.696  1.00  0.00    -0.002 A 
HETATM   35  C13 UNL     1      -3.150  48.551 -27.013  1.00  0.00     0.002 A 
HETATM   36  C14 UNL     1      -2.575  48.828 -25.776  1.00  0.00     0.001 A 
HETATM   37  C15 UNL     1      -3.352  48.823 -24.611  1.00  0.00     0.014 A 
ENDBRANCH  27  28
ENDBRANCH  23  27
ENDBRANCH  22  23
ENDBRANCH  21  22
ENDBRANCH   7  21
TORSDOF 7
ENDMDL
MODEL 5
REMARK minimizedAffinity -9.86106682
REMARK  7 active torsions:
REMARK  status: ('A' for Active; 'I' for Inactive)
REMARK    1  A    between atoms: C5_7  and  O1_8 
REMARK    2  A    between atoms: O1_8  and  C6_9 
REMARK    3  A    between atoms: C6_9  and  C7_10 
REMARK    4  A    between atoms: C7_10  and  N2_11 
REMARK    5  A    between atoms: C7_10  and  C8_12 
REMARK    6  A    between atoms: C8_12  and  C9_13 
REMARK    7  A    between atoms: C18_23  and  C19_24 
ROOT
HETATM    1  C1  UNL     1       0.730  54.075 -20.448  1.00  0.00     0.019 C 
HETATM    2  C2  UNL     1       0.287  52.960 -20.501  1.00  0.00    -0.059 C 
HETATM    3  C3  UNL     1      -0.240  51.628 -20.562  1.00  0.00     0.097 A 
HETATM    4  N1  UNL     1      -0.347  51.045 -19.344  1.00  0.00    -0.356 N 
ATOM      5  H1  UNL     1      -0.083  51.537 -18.490  1.00  0.00     0.166 HD
HETATM    6  C4  UNL     1      -0.821  49.777 -19.313  1.00  0.00     0.125 A 
HETATM    7  C5  UNL     1      -1.194  49.056 -20.437  1.00  0.00     0.085 A 
HETATM    8  C17 UNL     1      -1.066  49.690 -21.673  1.00  0.00     0.053 A 
HETATM    9  C18 UNL     1      -0.585  51.006 -21.767  1.00  0.00     0.012 A 
ENDROOT
BRANCH   9  10
HETATM   10  C19 UNL     1      -0.468  51.653 -23.080  1.00  0.00    -0.022 A 
HETATM   11  C20 UNL     1       0.700  52.345 -23.436  1.00  0.00     0.013 A 
HETATM   12  C21 UNL     1       0.815  52.958 -24.686  1.00  0.00     0.014 A 
HETATM   13  C22 UNL     1      -0.238  52.890 -25.611  1.00  0.00    -0.011 A 
HETATM   14  C23 UNL     1      -0.181  53.485 -26.875  1.00  0.00     0.099 A 
HETATM   15  C26 UNL     1      -1.417  52.197 -25.276  1.00  0.00    -0.022 A 
HETATM   16  N4  UNL     1      -1.175  53.438 -27.792  1.00  0.00    -0.374 N 
HETATM   17  C24 UNL     1      -2.289  52.765 -27.438  1.00  0.00     0.088 A 
ATOM     18  H4  UNL     1      -1.087  53.887 -28.704  1.00  0.00     0.164 HD
HETATM   19  C25 UNL     1      -2.456  52.138 -26.213  1.00  0.00     0.029 A 
HETATM   20  C27 UNL     1      -1.517  51.585 -24.014  1.00  0.00     0.024 A 
ENDBRANCH   9  10
BRANCH   7  21
HETATM   21  O1  UNL     1      -1.677  47.783 -20.485  1.00  0.00    -0.348 OA
BRANCH  21  22
HETATM   22  C6  UNL     1      -2.380  47.358 -21.658  1.00  0.00     0.211 C 
BRANCH  22  23
HETATM   23  C7  UNL     1      -3.918  47.405 -21.477  1.00  0.00     0.246 C 
BRANCH  23  24
HETATM   24  N2  UNL     1      -4.283  47.286 -20.050  1.00  0.00     0.085 N 
HETATM   25  H6  UNL     1      -3.980  48.115 -19.543  1.00  0.00     0.313 HD
HETATM   26  H7  UNL     1      -5.302  47.276 -19.980  1.00  0.00     0.313 HD
ENDBRANCH  23  24
BRANCH  23  27
HETATM   27  C8  UNL     1      -4.468  48.706 -22.106  1.00  0.00     0.078 C 
BRANCH  27  28
HETATM   28  C9  UNL     1      -5.063  48.513 -23.469  1.00  0.00    -0.028 A 
HETATM   29  C10 UNL     1      -6.400  48.326 -23.760  1.00  0.00     0.096 A 
HETATM   30  N3  UNL     1      -6.531  48.193 -25.116  1.00  0.00    -0.365 N 
HETATM   31  C11 UNL     1      -5.303  48.292 -25.725  1.00  0.00     0.042 A 
HETATM   32  H11 UNL     1      -7.402  48.046 -25.607  1.00  0.00     0.165 HD
HETATM   33  C12 UNL     1      -4.961  48.218 -27.081  1.00  0.00     0.030 A 
HETATM   34  C16 UNL     1      -4.360  48.497 -24.718  1.00  0.00    -0.002 A 
HETATM   35  C13 UNL     1      -3.612  48.357 -27.418  1.00  0.00     0.002 A 
HETATM   36  C14 UNL     1      -2.646  48.564 -26.436  1.00  0.00     0.001 A 
HETATM   37  C15 UNL     1      -3.005  48.636 -25.085  1.00  0.00     0.014 A 
ENDBRANCH  27  28
ENDBRANCH  23  27
ENDBRANCH  22  23
ENDBRANCH  21  22
ENDBRANCH   7  21
TORSDOF 7
ENDMDL
MODEL 6
REMARK minimizedAffinity -9.8000679
REMARK  7 active torsions:
REMARK  status: ('A' for Active; 'I' for Inactive)
REMARK    1  A    between atoms: C5_7  and  O1_8 
REMARK    2  A    between atoms: O1_8  and  C6_9 
REMARK    3  A    between atoms: C6_9  and  C7_10 
REMARK    4  A    between atoms: C7_10  and  N2_11 
REMARK    5  A    between atoms: C7_10  and  C8_12 
REMARK    6  A    between atoms: C8_12  and  C9_13 
REMARK    7  A    between atoms: C18_23  and  C19_24 
ROOT
HETATM    1  C1  UNL     1      -4.517  45.596 -20.985  1.00  0.00     0.019 C 
HETATM    2  C2  UNL     1      -3.743  46.513 -21.058  1.00  0.00    -0.059 C 
HETATM    3  C3  UNL     1      -2.819  47.605 -21.143  1.00  0.00     0.097 A 
HETATM    4  N1  UNL     1      -2.001  47.691 -20.066  1.00  0.00    -0.356 N 
ATOM      5  H1  UNL     1      -2.054  47.021 -19.299  1.00  0.00     0.166 HD
HETATM    6  C4  UNL     1      -1.107  48.709 -20.057  1.00  0.00     0.125 A 
HETATM    7  C5  UNL     1      -0.988  49.650 -21.068  1.00  0.00     0.085 A 
HETATM    8  C17 UNL     1      -1.851  49.531 -22.158  1.00  0.00     0.053 A 
HETATM    9  C18 UNL     1      -2.795  48.493 -22.224  1.00  0.00     0.012 A 
ENDROOT
BRANCH   9  10
HETATM   10  C19 UNL     1      -3.686  48.384 -23.387  1.00  0.00    -0.022 A 
HETATM   11  C20 UNL     1      -5.070  48.231 -23.216  1.00  0.00     0.013 A 
HETATM   12  C21 UNL     1      -5.920  48.131 -24.320  1.00  0.00     0.014 A 
HETATM   13  C22 UNL     1      -5.402  48.186 -25.624  1.00  0.00    -0.011 A 
HETATM   14  C23 UNL     1      -6.203  48.091 -26.765  1.00  0.00     0.099 A 
HETATM   15  C26 UNL     1      -4.017  48.345 -25.817  1.00  0.00    -0.022 A 
HETATM   16  N4  UNL     1      -5.739  48.141 -28.036  1.00  0.00    -0.374 N 
HETATM   17  C24 UNL     1      -4.408  48.295 -28.184  1.00  0.00     0.088 A 
ATOM     18  H4  UNL     1      -6.364  48.068 -28.839  1.00  0.00     0.164 HD
HETATM   19  C25 UNL     1      -3.519  48.400 -27.124  1.00  0.00     0.029 A 
HETATM   20  C27 UNL     1      -3.175  48.444 -24.695  1.00  0.00     0.024 A 
ENDBRANCH   9  10
BRANCH   7  21
HETATM   21  O1  UNL     1      -0.118  50.698 -21.130  1.00  0.00    -0.348 OA
BRANCH  21  22
HETATM   22  C6  UNL     1      -0.575  51.995 -20.734  1.00  0.00     0.211 C 
BRANCH  22  23
HETATM   23  C7  UNL     1       0.248  53.137 -21.380  1.00  0.00     0.246 C 
BRANCH  23  24
HETATM   24  N2  UNL     1       1.132  53.777 -20.383  1.00  0.00     0.085 N 
HETATM   25  H6  UNL     1       1.857  53.125 -20.092  1.00  0.00     0.313 HD
HETATM   26  H7  UNL     1       1.622  54.549 -20.838  1.00  0.00     0.313 HD
ENDBRANCH  23  24
BRANCH  23  27
HETATM   27  C8  UNL     1       1.044  52.578 -22.581  1.00  0.00     0.078 C 
BRANCH  27  28
HETATM   28  C9  UNL     1       0.638  53.164 -23.900  1.00  0.00    -0.028 A 
HETATM   29  C10 UNL     1       0.767  54.485 -24.285  1.00  0.00     0.096 A 
HETATM   30  N3  UNL     1       0.285  54.612 -25.559  1.00  0.00    -0.365 N 
HETATM   31  C11 UNL     1      -0.159  53.397 -26.024  1.00  0.00     0.042 A 
HETATM   32  H11 UNL     1       0.257  55.472 -26.090  1.00  0.00     0.165 HD
HETATM   33  C12 UNL     1      -0.725  53.057 -27.258  1.00  0.00     0.030 A 
HETATM   34  C16 UNL     1       0.053  52.466 -25.007  1.00  0.00    -0.002 A 
HETATM   35  C13 UNL     1      -1.087  51.722 -27.459  1.00  0.00     0.002 A 
HETATM   36  C14 UNL     1      -0.887  50.768 -26.465  1.00  0.00     0.001 A 
HETATM   37  C15 UNL     1      -0.320  51.125 -25.237  1.00  0.00     0.014 A 
ENDBRANCH  27  28
ENDBRANCH  23  27
ENDBRANCH  22  23
ENDBRANCH  21  22
ENDBRANCH   7  21
TORSDOF 7
ENDMDL
MODEL 7
REMARK minimizedAffinity -9.76808357
REMARK  7 active torsions:
REMARK  status: ('A' for Active; 'I' for Inactive)
REMARK    1  A    between atoms: C5_7  and  O1_8 
REMARK    2  A    between atoms: O1_8  and  C6_9 
REMARK    3  A    between atoms: C6_9  and  C7_10 
REMARK    4  A    between atoms: C7_10  and  N2_11 
REMARK    5  A    between atoms: C7_10  and  C8_12 
REMARK    6  A    between atoms: C8_12  and  C9_13 
REMARK    7  A    between atoms: C18_23  and  C19_24 
ROOT
HETATM    1  C1  UNL     1       1.605  53.809 -21.136  1.00  0.00     0.019 C 
HETATM    2  C2  UNL     1       0.634  53.107 -21.041  1.00  0.00    -0.059 C 
HETATM    3  C3  UNL     1      -0.525  52.271 -20.931  1.00  0.00     0.097 A 
HETATM    4  N1  UNL     1      -1.281  52.263 -22.056  1.00  0.00    -0.356 N 
ATOM      5  H1  UNL     1      -1.015  52.799 -22.882  1.00  0.00     0.166 HD
HETATM    6  C4  UNL     1      -2.406  51.511 -22.030  1.00  0.00     0.125 A 
HETATM    7  C5  UNL     1      -2.821  50.764 -20.938  1.00  0.00     0.085 A 
HETATM    8  C17 UNL     1      -2.017  50.800 -19.798  1.00  0.00     0.053 A 
HETATM    9  C18 UNL     1      -0.836  51.559 -19.767  1.00  0.00     0.012 A 
ENDROOT
BRANCH   9  10
HETATM   10  C19 UNL     1      -0.003  51.573 -18.557  1.00  0.00    -0.022 A 
HETATM   11  C20 UNL     1       0.836  52.662 -18.279  1.00  0.00     0.013 A 
HETATM   12  C21 UNL     1       1.626  52.681 -17.127  1.00  0.00     0.014 A 
HETATM   13  C22 UNL     1       1.592  51.606 -16.224  1.00  0.00    -0.011 A 
HETATM   14  C23 UNL     1       2.360  51.568 -15.057  1.00  0.00     0.099 A 
HETATM   15  C26 UNL     1       0.753  50.505 -16.482  1.00  0.00    -0.022 A 
HETATM   16  N4  UNL     1       2.351  50.550 -14.164  1.00  0.00    -0.374 N 
HETATM   17  C24 UNL     1       1.536  49.513 -14.443  1.00  0.00     0.088 A 
ATOM     18  H4  UNL     1       2.930  50.567 -13.325  1.00  0.00     0.164 HD
HETATM   19  C25 UNL     1       0.731  49.444 -15.570  1.00  0.00     0.029 A 
HETATM   20  C27 UNL     1      -0.036  50.503 -17.646  1.00  0.00     0.024 A 
ENDBRANCH   9  10
BRANCH   7  21
HETATM   21  O1  UNL     1      -3.935  49.986 -20.837  1.00  0.00    -0.348 OA
BRANCH  21  22
HETATM   22  C6  UNL     1      -5.220  50.617 -20.875  1.00  0.00     0.211 C 
BRANCH  22  23
HETATM   23  C7  UNL     1      -6.095  50.111 -22.048  1.00  0.00     0.246 C 
BRANCH  23  24
HETATM   24  N2  UNL     1      -6.117  51.094 -23.150  1.00  0.00     0.085 N 
HETATM   25  H6  UNL     1      -5.196  51.157 -23.579  1.00  0.00     0.313 HD
HETATM   26  H7  UNL     1      -6.739  50.743 -23.881  1.00  0.00     0.313 HD
ENDBRANCH  23  24
BRANCH  23  27
HETATM   27  C8  UNL     1      -5.576  48.732 -22.516  1.00  0.00     0.078 C 
BRANCH  27  28
HETATM   28  C9  UNL     1      -5.786  48.472 -23.978  1.00  0.00    -0.028 A 
HETATM   29  C10 UNL     1      -6.983  48.154 -24.590  1.00  0.00     0.096 A 
HETATM   30  N3  UNL     1      -6.753  47.999 -25.930  1.00  0.00    -0.365 N 
HETATM   31  C11 UNL     1      -5.425  48.212 -26.214  1.00  0.00     0.042 A 
HETATM   32  H11 UNL     1      -7.455  47.765 -26.619  1.00  0.00     0.165 HD
HETATM   33  C12 UNL     1      -4.747  48.161 -27.437  1.00  0.00     0.030 A 
HETATM   34  C16 UNL     1      -4.791  48.516 -25.009  1.00  0.00    -0.002 A 
HETATM   35  C13 UNL     1      -3.375  48.428 -27.428  1.00  0.00     0.002 A 
HETATM   36  C14 UNL     1      -2.712  48.735 -26.243  1.00  0.00     0.001 A 
HETATM   37  C15 UNL     1      -3.407  48.783 -25.028  1.00  0.00     0.014 A 
ENDBRANCH  27  28
ENDBRANCH  23  27
ENDBRANCH  22  23
ENDBRANCH  21  22
ENDBRANCH   7  21
TORSDOF 7
ENDMDL
MODEL 8
REMARK minimizedAffinity -9.76742649
REMARK  7 active torsions:
REMARK  status: ('A' for Active; 'I' for Inactive)
REMARK    1  A    between atoms: C5_7  and  O1_8 
REMARK    2  A    between atoms: O1_8  and  C6_9 
REMARK    3  A    between atoms: C6_9  and  C7_10 
REMARK    4  A    between atoms: C7_10  and  N2_11 
REMARK    5  A    between atoms: C7_10  and  C8_12 
REMARK    6  A    between atoms: C8_12  and  C9_13 
REMARK    7  A    between atoms: C18_23  and  C19_24 
ROOT
HETATM    1  C1  UNL     1      -6.412  46.261 -22.409  1.00  0.00     0.019 C 
HETATM    2  C2  UNL     1      -5.625  47.120 -22.115  1.00  0.00    -0.059 C 
HETATM    3  C3  UNL     1      -4.688  48.145 -21.762  1.00  0.00     0.097 A 
HETATM    4  N1  UNL     1      -4.569  48.315 -20.423  1.00  0.00    -0.356 N 
ATOM      5  H1  UNL     1      -5.097  47.745 -19.762  1.00  0.00     0.166 HD
HETATM    6  C4  UNL     1      -3.715  49.278 -20.003  1.00  0.00     0.125 A 
HETATM    7  C5  UNL     1      -2.971  50.085 -20.851  1.00  0.00     0.085 A 
HETATM    8  C17 UNL     1      -3.124  49.882 -22.223  1.00  0.00     0.053 A 
HETATM    9  C18 UNL     1      -3.992  48.895 -22.717  1.00  0.00     0.012 A 
ENDROOT
BRANCH   9  10
HETATM   10  C19 UNL     1      -4.128  48.695 -24.166  1.00  0.00    -0.022 A 
HETATM   11  C20 UNL     1      -3.030  48.880 -25.020  1.00  0.00     0.013 A 
HETATM   12  C21 UNL     1      -3.154  48.687 -26.398  1.00  0.00     0.014 A 
HETATM   13  C22 UNL     1      -4.384  48.299 -26.953  1.00  0.00    -0.011 A 
HETATM   14  C23 UNL     1      -4.569  48.092 -28.323  1.00  0.00     0.099 A 
HETATM   15  C26 UNL     1      -5.497  48.103 -26.113  1.00  0.00    -0.022 A 
HETATM   16  N4  UNL     1      -5.739  47.717 -28.892  1.00  0.00    -0.374 N 
HETATM   17  C24 UNL     1      -6.783  47.538 -28.058  1.00  0.00     0.088 A 
ATOM     18  H4  UNL     1      -5.826  47.577 -29.899  1.00  0.00     0.164 HD
HETATM   19  C25 UNL     1      -6.715  47.715 -26.684  1.00  0.00     0.029 A 
HETATM   20  C27 UNL     1      -5.355  48.302 -24.728  1.00  0.00     0.024 A 
ENDBRANCH   9  10
BRANCH   7  21
HETATM   21  O1  UNL     1      -2.096  51.071 -20.505  1.00  0.00    -0.348 OA
BRANCH  21  22
HETATM   22  C6  UNL     1      -0.776  51.045 -21.061  1.00  0.00     0.211 C 
BRANCH  22  23
HETATM   23  C7  UNL     1      -0.345  52.419 -21.628  1.00  0.00     0.246 C 
BRANCH  23  24
HETATM   24  N2  UNL     1       0.283  53.248 -20.577  1.00  0.00     0.085 N 
HETATM   25  H6  UNL     1       1.173  52.840 -20.298  1.00  0.00     0.313 HD
HETATM   26  H7  UNL     1       0.512  54.158 -20.981  1.00  0.00     0.313 HD
ENDBRANCH  23  24
BRANCH  23  27
HETATM   27  C8  UNL     1       0.600  52.203 -22.832  1.00  0.00     0.078 C 
BRANCH  27  28
HETATM   28  C9  UNL     1      -0.087  52.294 -24.162  1.00  0.00    -0.028 A 
HETATM   29  C10 UNL     1      -1.419  52.591 -24.378  1.00  0.00     0.096 A 
HETATM   30  N3  UNL     1      -1.649  52.578 -25.727  1.00  0.00    -0.365 N 
HETATM   31  C11 UNL     1      -0.492  52.279 -26.406  1.00  0.00     0.042 A 
HETATM   32  H11 UNL     1      -2.540  52.763 -26.169  1.00  0.00     0.165 HD
HETATM   33  C12 UNL     1      -0.260  52.159 -27.781  1.00  0.00     0.030 A 
HETATM   34  C16 UNL     1       0.509  52.099 -25.451  1.00  0.00    -0.002 A 
HETATM   35  C13 UNL     1       1.037  51.843 -28.194  1.00  0.00     0.002 A 
HETATM   36  C14 UNL     1       2.059  51.658 -27.267  1.00  0.00     0.001 A 
HETATM   37  C15 UNL     1       1.809  51.782 -25.895  1.00  0.00     0.014 A 
ENDBRANCH  27  28
ENDBRANCH  23  27
ENDBRANCH  22  23
ENDBRANCH  21  22
ENDBRANCH   7  21
TORSDOF 7
ENDMDL
MODEL 9
REMARK minimizedAffinity -9.6519537
REMARK  7 active torsions:
REMARK  status: ('A' for Active; 'I' for Inactive)
REMARK    1  A    between atoms: C5_7  and  O1_8 
REMARK    2  A    between atoms: O1_8  and  C6_9 
REMARK    3  A    between atoms: C6_9  and  C7_10 
REMARK    4  A    between atoms: C7_10  and  N2_11 
REMARK    5  A    between atoms: C7_10  and  C8_12 
REMARK    6  A    between atoms: C8_12  and  C9_13 
REMARK    7  A    between atoms: C18_23  and  C19_24 
ROOT
HETATM    1  C1  UNL     1       1.788  51.482 -26.285  1.00  0.00     0.019 C 
HETATM    2  C2  UNL     1       0.649  51.201 -26.024  1.00  0.00    -0.059 C 
HETATM    3  C3  UNL     1      -0.711  50.867 -25.717  1.00  0.00     0.097 A 
HETATM    4  N1  UNL     1      -1.347  50.246 -26.739  1.00  0.00    -0.356 N 
ATOM      5  H1  UNL     1      -0.873  50.040 -27.618  1.00  0.00     0.166 HD
HETATM    6  C4  UNL     1      -2.644  49.910 -26.537  1.00  0.00     0.125 A 
HETATM    7  C5  UNL     1      -3.342  50.164 -25.367  1.00  0.00     0.085 A 
HETATM    8  C17 UNL     1      -2.653  50.808 -24.339  1.00  0.00     0.053 A 
HETATM    9  C18 UNL     1      -1.306  51.176 -24.488  1.00  0.00     0.012 A 
ENDROOT
BRANCH   9  10
HETATM   10  C19 UNL     1      -0.601  51.846 -23.387  1.00  0.00    -0.022 A 
HETATM   11  C20 UNL     1       0.221  52.955 -23.634  1.00  0.00     0.013 A 
HETATM   12  C21 UNL     1       0.890  53.597 -22.589  1.00  0.00     0.014 A 
HETATM   13  C22 UNL     1       0.747  53.142 -21.269  1.00  0.00    -0.011 A 
HETATM   14  C23 UNL     1       1.392  53.743 -20.183  1.00  0.00     0.099 A 
HETATM   15  C26 UNL     1      -0.077  52.034 -20.998  1.00  0.00    -0.022 A 
HETATM   16  N4  UNL     1       1.276  53.332 -18.898  1.00  0.00    -0.374 N 
HETATM   17  C24 UNL     1       0.478  52.268 -18.676  1.00  0.00     0.088 A 
ATOM     18  H4  UNL     1       1.766  53.804 -18.138  1.00  0.00     0.164 HD
HETATM   19  C25 UNL     1      -0.209  51.596 -19.676  1.00  0.00     0.029 A 
HETATM   20  C27 UNL     1      -0.744  51.399 -22.062  1.00  0.00     0.024 A 
ENDBRANCH   9  10
BRANCH   7  21
HETATM   21  O1  UNL     1      -4.641  49.858 -25.091  1.00  0.00    -0.348 OA
BRANCH  21  22
HETATM   22  C6  UNL     1      -5.060  48.492 -25.180  1.00  0.00     0.211 C 
BRANCH  22  23
HETATM   23  C7  UNL     1      -6.478  48.267 -24.599  1.00  0.00     0.246 C 
BRANCH  23  24
HETATM   24  N2  UNL     1      -7.234  49.536 -24.553  1.00  0.00     0.085 N 
HETATM   25  H6  UNL     1      -7.435  49.856 -25.498  1.00  0.00     0.313 HD
HETATM   26  H7  UNL     1      -8.143  49.353 -24.124  1.00  0.00     0.313 HD
ENDBRANCH  23  24
BRANCH  23  27
HETATM   27  C8  UNL     1      -7.209  47.191 -25.433  1.00  0.00     0.078 C 
BRANCH  27  28
HETATM   28  C9  UNL     1      -7.862  47.728 -26.672  1.00  0.00    -0.028 A 
HETATM   29  C10 UNL     1      -9.123  48.285 -26.758  1.00  0.00     0.096 A 
HETATM   30  N3  UNL     1      -9.343  48.653 -28.058  1.00  0.00    -0.365 N 
HETATM   31  C11 UNL     1      -8.248  48.350 -28.831  1.00  0.00     0.042 A 
HETATM   32  H11 UNL     1     -10.187  49.088 -28.407  1.00  0.00     0.165 HD
HETATM   33  C12 UNL     1      -8.030  48.546 -30.200  1.00  0.00     0.030 A 
HETATM   34  C16 UNL     1      -7.298  47.772 -27.990  1.00  0.00    -0.002 A 
HETATM   35  C13 UNL     1      -6.802  48.137 -30.726  1.00  0.00     0.002 A 
HETATM   36  C14 UNL     1      -5.832  47.557 -29.912  1.00  0.00     0.001 A 
HETATM   37  C15 UNL     1      -6.066  47.368 -28.545  1.00  0.00     0.014 A 
ENDBRANCH  27  28
ENDBRANCH  23  27
ENDBRANCH  22  23
ENDBRANCH  21  22
ENDBRANCH   7  21
TORSDOF 7
ENDMDL
