MODEL 1
REMARK minimizedAffinity -8.35529709
REMARK  9 active torsions:
REMARK  status: ('A' for Active; 'I' for Inactive)
REMARK    1  A    between atoms: O1_2  and  C2_3 
REMARK    2  A    between atoms: C2_3  and  C3_4 
REMARK    3  A    between atoms: C3_4  and  O2_5 
REMARK    4  A    between atoms: O2_5  and  C4_6 
REMARK    5  A    between atoms: C7_12  and  N3_13 
REMARK       I    between atoms: N3_13  and  C8_14 
REMARK       I    between atoms: C8_14  and  N4_16 
REMARK    6  A    between atoms: N4_16  and  C9_17 
REMARK    7  A    between atoms: C9_17  and  C10_18 
REMARK    8  A    between atoms: C9_17  and  C16_25 
REMARK    9  A    between atoms: C16_25  and  O4_28 
ROOT
HETATM    1  N3  UNL     1      -0.880  52.224 -20.217  1.00  0.00    -0.295 N 
HETATM    2  C8  UNL     1      -1.151  51.343 -21.237  1.00  0.00     0.322 C 
HETATM    3  O3  UNL     1      -0.976  50.134 -21.246  1.00  0.00    -0.247 OA
HETATM    4  N4  UNL     1      -1.710  52.009 -22.312  1.00  0.00    -0.331 N 
HETATM    5  H10 UNL     1      -1.296  53.135 -20.289  1.00  0.00     0.172 HD
HETATM    6  H11 UNL     1      -1.486  52.987 -22.407  1.00  0.00     0.165 HD
ENDROOT
BRANCH   1   7
HETATM    7  C7  UNL     1      -0.225  51.909 -19.018  1.00  0.00     0.111 A 
HETATM    8  C6  UNL     1       0.639  52.878 -18.505  1.00  0.00     0.080 A 
HETATM    9  C5  UNL     1       1.289  52.536 -17.319  1.00  0.00     0.067 A 
HETATM   10  N2  UNL     1       2.185  53.205 -16.528  1.00  0.00    -0.298 N 
HETATM   11  C20 UNL     1       1.093  51.312 -16.693  1.00  0.00     0.060 A 
HETATM   12  N1  UNL     1       2.588  52.515 -15.444  1.00  0.00    -0.279 N 
HETATM   13  H8  UNL     1       2.563  54.135 -16.670  1.00  0.00     0.187 HD
HETATM   14  C4  UNL     1       1.914  51.367 -15.550  1.00  0.00     0.171 A 
ATOM     15  H1  UNL     1       3.248  52.799 -14.720  1.00  0.00     0.189 HD
HETATM   16  C19 UNL     1       0.220  50.397 -17.273  1.00  0.00     0.108 A 
HETATM   17  N5  UNL     1      -0.420  50.714 -18.430  1.00  0.00    -0.351 N 
ATOM     18  H5  UNL     1      -1.054  50.039 -18.857  1.00  0.00     0.166 HD
BRANCH  14  19
HETATM   19  O2  UNL     1       2.043  50.383 -14.631  1.00  0.00    -0.332 OA
BRANCH  19  20
HETATM   20  C3  UNL     1       3.015  50.615 -13.607  1.00  0.00     0.203 C 
BRANCH  20  21
HETATM   21  C2  UNL     1       4.329  49.883 -13.890  1.00  0.00     0.193 C 
BRANCH  21  22
HETATM   22  O1  UNL     1       5.023  49.660 -12.656  1.00  0.00    -0.394 OA
HETATM   23  C1  UNL     1       4.239  50.048 -11.536  1.00  0.00     0.201 C 
ENDBRANCH  21  22
ENDBRANCH  20  21
ENDBRANCH  19  20
ENDBRANCH  14  19
ENDBRANCH   1   7
BRANCH   4  24
HETATM   24  C9  UNL     1      -2.041  51.309 -23.562  1.00  0.00     0.153 C 
BRANCH  24  25
HETATM   25  C10 UNL     1      -0.848  51.475 -24.515  1.00  0.00    -0.032 A 
HETATM   26  C11 UNL     1       0.193  52.396 -24.337  1.00  0.00     0.011 A 
HETATM   27  C12 UNL     1       1.252  52.473 -25.249  1.00  0.00     0.024 A 
HETATM   28  C13 UNL     1       1.283  51.630 -26.356  1.00  0.00     0.034 A 
HETATM   29 CL1  UNL     1       2.590  51.726 -27.470  1.00  0.00    -0.084 Cl
HETATM   30  C14 UNL     1       0.259  50.715 -26.566  1.00  0.00     0.024 A 
HETATM   31  C15 UNL     1      -0.799  50.643 -25.655  1.00  0.00     0.011 A 
ENDBRANCH  24  25
BRANCH  24  32
HETATM   32  C16 UNL     1      -3.492  51.695 -24.051  1.00  0.00     0.075 C 
HETATM   33  C17 UNL     1      -4.213  50.449 -24.604  1.00  0.00     0.048 C 
HETATM   34  C18 UNL     1      -4.365  52.305 -22.943  1.00  0.00     0.048 C 
BRANCH  32  35
HETATM   35  O4  UNL     1      -3.422  52.635 -25.136  1.00  0.00    -0.388 OA
HETATM   36  H23 UNL     1      -4.312  52.723 -25.521  1.00  0.00     0.210 HD
ENDBRANCH  32  35
ENDBRANCH  24  32
ENDBRANCH   4  24
TORSDOF 9
ENDMDL
MODEL 2
REMARK minimizedAffinity -8.02141666
REMARK  9 active torsions:
REMARK  status: ('A' for Active; 'I' for Inactive)
REMARK    1  A    between atoms: O1_2  and  C2_3 
REMARK    2  A    between atoms: C2_3  and  C3_4 
REMARK    3  A    between atoms: C3_4  and  O2_5 
REMARK    4  A    between atoms: O2_5  and  C4_6 
REMARK    5  A    between atoms: C7_12  and  N3_13 
REMARK       I    between atoms: N3_13  and  C8_14 
REMARK       I    between atoms: C8_14  and  N4_16 
REMARK    6  A    between atoms: N4_16  and  C9_17 
REMARK    7  A    between atoms: C9_17  and  C10_18 
REMARK    8  A    between atoms: C9_17  and  C16_25 
REMARK    9  A    between atoms: C16_25  and  O4_28 
ROOT
HETATM    1  N3  UNL     1      -0.799  52.279 -20.332  1.00  0.00    -0.295 N 
HETATM    2  C8  UNL     1      -1.222  51.371 -21.273  1.00  0.00     0.322 C 
HETATM    3  O3  UNL     1      -1.285  50.156 -21.164  1.00  0.00    -0.247 OA
HETATM    4  N4  UNL     1      -1.626  52.024 -22.423  1.00  0.00    -0.331 N 
HETATM    5  H10 UNL     1      -1.029  53.242 -20.502  1.00  0.00     0.172 HD
HETATM    6  H11 UNL     1      -1.215  52.926 -22.602  1.00  0.00     0.165 HD
ENDROOT
BRANCH   1   7
HETATM    7  C7  UNL     1      -0.235  51.963 -19.088  1.00  0.00     0.111 A 
HETATM    8  C6  UNL     1       0.705  52.862 -18.582  1.00  0.00     0.080 A 
HETATM    9  C5  UNL     1       1.263  52.519 -17.349  1.00  0.00     0.067 A 
HETATM   10  N2  UNL     1       2.189  53.134 -16.549  1.00  0.00    -0.298 N 
HETATM   11  C20 UNL     1       0.910  51.359 -16.674  1.00  0.00     0.060 A 
HETATM   12  N1  UNL     1       2.468  52.465 -15.414  1.00  0.00    -0.279 N 
HETATM   13  H8  UNL     1       2.670  54.010 -16.718  1.00  0.00     0.187 HD
HETATM   14  C4  UNL     1       1.681  51.389 -15.496  1.00  0.00     0.171 A 
ATOM     15  H1  UNL     1       3.122  52.718 -14.673  1.00  0.00     0.189 HD
HETATM   16  C19 UNL     1      -0.030  50.510 -17.251  1.00  0.00     0.108 A 
HETATM   17  N5  UNL     1      -0.581  50.828 -18.452  1.00  0.00    -0.351 N 
ATOM     18  H5  UNL     1      -1.265  50.201 -18.876  1.00  0.00     0.166 HD
BRANCH  14  19
HETATM   19  O2  UNL     1       1.663  50.449 -14.525  1.00  0.00    -0.332 OA
BRANCH  19  20
HETATM   20  C3  UNL     1       0.612  50.573 -13.561  1.00  0.00     0.203 C 
BRANCH  20  21
HETATM   21  C2  UNL     1       0.067  52.001 -13.489  1.00  0.00     0.193 C 
BRANCH  21  22
HETATM   22  O1  UNL     1      -1.365  51.962 -13.452  1.00  0.00    -0.394 OA
HETATM   23  C1  UNL     1      -1.865  52.301 -12.166  1.00  0.00     0.201 C 
ENDBRANCH  21  22
ENDBRANCH  20  21
ENDBRANCH  19  20
ENDBRANCH  14  19
ENDBRANCH   1   7
BRANCH   4  24
HETATM   24  C9  UNL     1      -2.069  51.282 -23.613  1.00  0.00     0.153 C 
BRANCH  24  25
HETATM   25  C10 UNL     1      -0.933  51.340 -24.645  1.00  0.00    -0.032 A 
HETATM   26  C11 UNL     1      -0.890  50.590 -25.828  1.00  0.00     0.011 A 
HETATM   27  C12 UNL     1       0.180  50.714 -26.723  1.00  0.00     0.024 A 
HETATM   28  C13 UNL     1       1.227  51.587 -26.442  1.00  0.00     0.034 A 
HETATM   29 CL1  UNL     1       2.536  51.737 -27.547  1.00  0.00    -0.084 Cl
HETATM   30  C14 UNL     1       1.219  52.333 -25.271  1.00  0.00     0.024 A 
HETATM   31  C15 UNL     1       0.150  52.207 -24.379  1.00  0.00     0.011 A 
ENDBRANCH  24  25
BRANCH  24  32
HETATM   32  C16 UNL     1      -3.529  51.717 -24.031  1.00  0.00     0.075 C 
HETATM   33  C17 UNL     1      -4.321  50.494 -24.537  1.00  0.00     0.048 C 
HETATM   34  C18 UNL     1      -4.322  52.365 -22.885  1.00  0.00     0.048 C 
BRANCH  32  35
HETATM   35  O4  UNL     1      -3.480  52.647 -25.126  1.00  0.00    -0.388 OA
HETATM   36  H23 UNL     1      -4.384  52.765 -25.466  1.00  0.00     0.210 HD
ENDBRANCH  32  35
ENDBRANCH  24  32
ENDBRANCH   4  24
TORSDOF 9
ENDMDL
MODEL 3
REMARK minimizedAffinity -8.0074234
REMARK  9 active torsions:
REMARK  status: ('A' for Active; 'I' for Inactive)
REMARK    1  A    between atoms: O1_2  and  C2_3 
REMARK    2  A    between atoms: C2_3  and  C3_4 
REMARK    3  A    between atoms: C3_4  and  O2_5 
REMARK    4  A    between atoms: O2_5  and  C4_6 
REMARK    5  A    between atoms: C7_12  and  N3_13 
REMARK       I    between atoms: N3_13  and  C8_14 
REMARK       I    between atoms: C8_14  and  N4_16 
REMARK    6  A    between atoms: N4_16  and  C9_17 
REMARK    7  A    between atoms: C9_17  and  C10_18 
REMARK    8  A    between atoms: C9_17  and  C16_25 
REMARK    9  A    between atoms: C16_25  and  O4_28 
ROOT
HETATM    1  N3  UNL     1       1.071  53.006 -17.469  1.00  0.00    -0.295 N 
HETATM    2  C8  UNL     1       1.001  51.973 -16.563  1.00  0.00     0.322 C 
HETATM    3  O3  UNL     1       0.849  50.784 -16.796  1.00  0.00    -0.247 OA
HETATM    4  N4  UNL     1       1.166  52.452 -15.276  1.00  0.00    -0.331 N 
HETATM    5  H10 UNL     1       1.428  53.879 -17.126  1.00  0.00     0.172 HD
HETATM    6  H11 UNL     1       0.911  53.412 -15.112  1.00  0.00     0.165 HD
ENDROOT
BRANCH   1   7
HETATM    7  C7  UNL     1       0.853  52.896 -18.849  1.00  0.00     0.111 A 
HETATM    8  C6  UNL     1      -0.055  51.920 -19.262  1.00  0.00     0.080 A 
HETATM    9  C5  UNL     1      -0.246  51.821 -20.641  1.00  0.00     0.067 A 
HETATM   10  N2  UNL     1      -1.038  51.011 -21.410  1.00  0.00    -0.298 N 
HETATM   11  C20 UNL     1       0.426  52.636 -21.542  1.00  0.00     0.060 A 
HETATM   12  N1  UNL     1      -0.931  51.231 -22.734  1.00  0.00    -0.279 N 
HETATM   13  H8  UNL     1      -1.674  50.287 -21.096  1.00  0.00     0.187 HD
HETATM   14  C4  UNL     1      -0.043  52.225 -22.805  1.00  0.00     0.171 A 
ATOM     15  H1  UNL     1      -1.411  50.753 -23.498  1.00  0.00     0.189 HD
HETATM   16  C19 UNL     1       1.322  53.580 -21.049  1.00  0.00     0.108 A 
HETATM   17  N5  UNL     1       1.521  53.688 -19.709  1.00  0.00    -0.351 N 
ATOM     18  H5  UNL     1       2.183  54.377 -19.351  1.00  0.00     0.166 HD
BRANCH  14  19
HETATM   19  O2  UNL     1       0.341  52.749 -23.991  1.00  0.00    -0.332 OA
BRANCH  19  20
HETATM   20  C3  UNL     1       0.293  51.856 -25.108  1.00  0.00     0.203 C 
BRANCH  20  21
HETATM   21  C2  UNL     1       0.927  52.469 -26.358  1.00  0.00     0.193 C 
BRANCH  21  22
HETATM   22  O1  UNL     1       0.480  53.824 -26.502  1.00  0.00    -0.394 OA
HETATM   23  C1  UNL     1      -0.281  54.001 -27.689  1.00  0.00     0.201 C 
ENDBRANCH  21  22
ENDBRANCH  20  21
ENDBRANCH  19  20
ENDBRANCH  14  19
ENDBRANCH   1   7
BRANCH   4  24
HETATM   24  C9  UNL     1       1.075  51.563 -14.108  1.00  0.00     0.153 C 
BRANCH  24  25
HETATM   25  C10 UNL     1      -0.180  51.964 -13.318  1.00  0.00    -0.032 A 
HETATM   26  C11 UNL     1      -0.181  52.799 -12.193  1.00  0.00     0.011 A 
HETATM   27  C12 UNL     1      -1.375  53.126 -11.538  1.00  0.00     0.024 A 
HETATM   28  C13 UNL     1      -2.585  52.616 -11.998  1.00  0.00     0.034 A 
HETATM   29 CL1  UNL     1      -4.049  53.025 -11.192  1.00  0.00    -0.084 Cl
HETATM   30  C14 UNL     1      -2.614  51.774 -13.103  1.00  0.00     0.024 A 
HETATM   31  C15 UNL     1      -1.421  51.449 -13.753  1.00  0.00     0.011 A 
ENDBRANCH  24  25
BRANCH  24  32
HETATM   32  C16 UNL     1       2.467  51.466 -13.369  1.00  0.00     0.075 C 
HETATM   33  C17 UNL     1       2.348  50.552 -12.133  1.00  0.00     0.048 C 
HETATM   34  C18 UNL     1       3.593  50.923 -14.263  1.00  0.00     0.048 C 
BRANCH  32  35
HETATM   35  O4  UNL     1       2.865  52.757 -12.879  1.00  0.00    -0.388 OA
HETATM   36  H23 UNL     1       3.632  52.637 -12.292  1.00  0.00     0.210 HD
ENDBRANCH  32  35
ENDBRANCH  24  32
ENDBRANCH   4  24
TORSDOF 9
ENDMDL
MODEL 4
REMARK minimizedAffinity -7.93341732
REMARK  9 active torsions:
REMARK  status: ('A' for Active; 'I' for Inactive)
REMARK    1  A    between atoms: O1_2  and  C2_3 
REMARK    2  A    between atoms: C2_3  and  C3_4 
REMARK    3  A    between atoms: C3_4  and  O2_5 
REMARK    4  A    between atoms: O2_5  and  C4_6 
REMARK    5  A    between atoms: C7_12  and  N3_13 
REMARK       I    between atoms: N3_13  and  C8_14 
REMARK       I    between atoms: C8_14  and  N4_16 
REMARK    6  A    between atoms: N4_16  and  C9_17 
REMARK    7  A    between atoms: C9_17  and  C10_18 
REMARK    8  A    between atoms: C9_17  and  C16_25 
REMARK    9  A    between atoms: C16_25  and  O4_28 
ROOT
HETATM    1  N3  UNL     1       2.508  65.586 -36.248  1.00  0.00    -0.295 N 
HETATM    2  C8  UNL     1       2.502  66.475 -37.297  1.00  0.00     0.322 C 
HETATM    3  O3  UNL     1       3.433  66.773 -38.029  1.00  0.00    -0.247 OA
HETATM    4  N4  UNL     1       1.237  67.007 -37.468  1.00  0.00    -0.331 N 
HETATM    5  H10 UNL     1       1.612  65.290 -35.906  1.00  0.00     0.172 HD
HETATM    6  H11 UNL     1       0.640  67.032 -36.657  1.00  0.00     0.165 HD
ENDROOT
BRANCH   1   7
HETATM    7  C7  UNL     1       3.639  64.936 -35.736  1.00  0.00     0.111 A 
HETATM    8  C6  UNL     1       4.759  64.882 -36.568  1.00  0.00     0.080 A 
HETATM    9  C5  UNL     1       5.868  64.218 -36.042  1.00  0.00     0.067 A 
HETATM   10  N2  UNL     1       7.119  63.968 -36.540  1.00  0.00    -0.298 N 
HETATM   11  C20 UNL     1       5.857  63.646 -34.777  1.00  0.00     0.060 A 
HETATM   12  N1  UNL     1       7.918  63.278 -35.704  1.00  0.00    -0.279 N 
HETATM   13  H8  UNL     1       7.493  64.239 -37.442  1.00  0.00     0.187 HD
HETATM   14  C4  UNL     1       7.144  63.092 -34.632  1.00  0.00     0.171 A 
ATOM     15  H1  UNL     1       8.879  62.972 -35.853  1.00  0.00     0.189 HD
HETATM   16  C19 UNL     1       4.698  63.737 -34.012  1.00  0.00     0.108 A 
HETATM   17  N5  UNL     1       3.608  64.379 -34.511  1.00  0.00    -0.351 N 
ATOM     18  H5  UNL     1       2.758  64.438 -33.951  1.00  0.00     0.166 HD
BRANCH  14  19
HETATM   19  O2  UNL     1       7.591  62.428 -33.542  1.00  0.00    -0.332 OA
BRANCH  19  20
HETATM   20  C3  UNL     1       8.694  61.543 -33.764  1.00  0.00     0.203 C 
BRANCH  20  21
HETATM   21  C2  UNL     1       9.940  61.977 -32.990  1.00  0.00     0.193 C 
BRANCH  21  22
HETATM   22  O1  UNL     1       9.824  61.551 -31.626  1.00  0.00    -0.394 OA
HETATM   23  C1  UNL     1      11.078  61.144 -31.096  1.00  0.00     0.201 C 
ENDBRANCH  21  22
ENDBRANCH  20  21
ENDBRANCH  19  20
ENDBRANCH  14  19
ENDBRANCH   1   7
BRANCH   4  24
HETATM   24  C9  UNL     1       0.966  68.032 -38.488  1.00  0.00     0.153 C 
BRANCH  24  25
HETATM   25  C10 UNL     1       0.138  69.140 -37.820  1.00  0.00    -0.032 A 
HETATM   26  C11 UNL     1       0.571  69.916 -36.737  1.00  0.00     0.011 A 
HETATM   27  C12 UNL     1      -0.243  70.918 -36.195  1.00  0.00     0.024 A 
HETATM   28  C13 UNL     1      -1.507  71.154 -36.728  1.00  0.00     0.034 A 
HETATM   29 CL1  UNL     1      -2.502  72.388 -36.061  1.00  0.00    -0.084 Cl
HETATM   30  C14 UNL     1      -1.969  70.391 -37.793  1.00  0.00     0.024 A 
HETATM   31  C15 UNL     1      -1.154  69.391 -38.331  1.00  0.00     0.011 A 
ENDBRANCH  24  25
BRANCH  24  32
HETATM   32  C16 UNL     1       0.451  67.368 -39.825  1.00  0.00     0.075 C 
HETATM   33  C17 UNL     1      -0.601  68.275 -40.495  1.00  0.00     0.048 C 
HETATM   34  C18 UNL     1       1.573  67.099 -40.841  1.00  0.00     0.048 C 
BRANCH  32  35
HETATM   35  O4  UNL     1      -0.210  66.124 -39.544  1.00  0.00    -0.388 OA
HETATM   36  H23 UNL     1      -0.656  65.826 -40.357  1.00  0.00     0.210 HD
ENDBRANCH  32  35
ENDBRANCH  24  32
ENDBRANCH   4  24
TORSDOF 9
ENDMDL
MODEL 5
REMARK minimizedAffinity -7.71148586
REMARK  9 active torsions:
REMARK  status: ('A' for Active; 'I' for Inactive)
REMARK    1  A    between atoms: O1_2  and  C2_3 
REMARK    2  A    between atoms: C2_3  and  C3_4 
REMARK    3  A    between atoms: C3_4  and  O2_5 
REMARK    4  A    between atoms: O2_5  and  C4_6 
REMARK    5  A    between atoms: C7_12  and  N3_13 
REMARK       I    between atoms: N3_13  and  C8_14 
REMARK       I    between atoms: C8_14  and  N4_16 
REMARK    6  A    between atoms: N4_16  and  C9_17 
REMARK    7  A    between atoms: C9_17  and  C10_18 
REMARK    8  A    between atoms: C9_17  and  C16_25 
REMARK    9  A    between atoms: C16_25  and  O4_28 
ROOT
HETATM    1  N3  UNL     1      -9.785  48.197 -28.180  1.00  0.00    -0.295 N 
HETATM    2  C8  UNL     1      -8.647  47.471 -28.445  1.00  0.00     0.322 C 
HETATM    3  O3  UNL     1      -8.541  46.259 -28.547  1.00  0.00    -0.247 OA
HETATM    4  N4  UNL     1      -7.570  48.318 -28.629  1.00  0.00    -0.331 N 
HETATM    5  H10 UNL     1      -9.739  49.183 -28.360  1.00  0.00     0.172 HD
HETATM    6  H11 UNL     1      -7.616  49.218 -28.179  1.00  0.00     0.165 HD
ENDROOT
BRANCH   1   7
HETATM    7  C7  UNL     1     -11.037  47.660 -27.849  1.00  0.00     0.111 A 
HETATM    8  C6  UNL     1     -11.748  47.050 -28.884  1.00  0.00     0.080 A 
HETATM    9  C5  UNL     1     -12.997  46.535 -28.533  1.00  0.00     0.067 A 
HETATM   10  N2  UNL     1     -13.962  45.878 -29.249  1.00  0.00    -0.298 N 
HETATM   11  C20 UNL     1     -13.499  46.626 -27.242  1.00  0.00     0.060 A 
HETATM   12  N1  UNL     1     -15.049  45.541 -28.531  1.00  0.00    -0.279 N 
HETATM   13  H8  UNL     1     -13.943  45.629 -30.232  1.00  0.00     0.187 HD
HETATM   14  C4  UNL     1     -14.757  45.995 -27.309  1.00  0.00     0.171 A 
ATOM     15  H1  UNL     1     -15.891  45.057 -28.843  1.00  0.00     0.189 HD
HETATM   16  C19 UNL     1     -12.730  47.257 -26.269  1.00  0.00     0.108 A 
HETATM   17  N5  UNL     1     -11.513  47.766 -26.594  1.00  0.00    -0.351 N 
ATOM     18  H5  UNL     1     -10.954  48.233 -25.880  1.00  0.00     0.166 HD
BRANCH  14  19
HETATM   19  O2  UNL     1     -15.613  45.844 -26.274  1.00  0.00    -0.332 OA
BRANCH  19  20
HETATM   20  C3  UNL     1     -16.845  45.182 -26.579  1.00  0.00     0.203 C 
BRANCH  20  21
HETATM   21  C2  UNL     1     -17.824  45.224 -25.404  1.00  0.00     0.193 C 
BRANCH  21  22
HETATM   22  O1  UNL     1     -18.689  46.357 -25.547  1.00  0.00    -0.394 OA
HETATM   23  C1  UNL     1     -19.122  46.848 -24.285  1.00  0.00     0.201 C 
ENDBRANCH  21  22
ENDBRANCH  20  21
ENDBRANCH  19  20
ENDBRANCH  14  19
ENDBRANCH   1   7
BRANCH   4  24
HETATM   24  C9  UNL     1      -6.215  47.797 -28.869  1.00  0.00     0.153 C 
BRANCH  24  25
HETATM   25  C10 UNL     1      -5.389  48.057 -27.600  1.00  0.00    -0.032 A 
HETATM   26  C11 UNL     1      -5.908  48.065 -26.298  1.00  0.00     0.011 A 
HETATM   27  C12 UNL     1      -5.080  48.298 -25.193  1.00  0.00     0.024 A 
HETATM   28  C13 UNL     1      -3.721  48.532 -25.376  1.00  0.00     0.034 A 
HETATM   29 CL1  UNL     1      -2.709  48.813 -24.014  1.00  0.00    -0.084 Cl
HETATM   30  C14 UNL     1      -3.180  48.544 -26.656  1.00  0.00     0.024 A 
HETATM   31  C15 UNL     1      -4.009  48.312 -27.757  1.00  0.00     0.011 A 
ENDBRANCH  24  25
BRANCH  24  32
HETATM   32  C16 UNL     1      -5.670  48.280 -30.270  1.00  0.00     0.075 C 
HETATM   33  C17 UNL     1      -4.834  47.163 -30.926  1.00  0.00     0.048 C 
HETATM   34  C18 UNL     1      -6.784  48.687 -31.248  1.00  0.00     0.048 C 
BRANCH  32  35
HETATM   35  O4  UNL     1      -4.787  49.401 -30.104  1.00  0.00    -0.388 OA
HETATM   36  H23 UNL     1      -4.342  49.567 -30.955  1.00  0.00     0.210 HD
ENDBRANCH  32  35
ENDBRANCH  24  32
ENDBRANCH   4  24
TORSDOF 9
ENDMDL
MODEL 6
REMARK minimizedAffinity -7.66402817
REMARK  9 active torsions:
REMARK  status: ('A' for Active; 'I' for Inactive)
REMARK    1  A    between atoms: O1_2  and  C2_3 
REMARK    2  A    between atoms: C2_3  and  C3_4 
REMARK    3  A    between atoms: C3_4  and  O2_5 
REMARK    4  A    between atoms: O2_5  and  C4_6 
REMARK    5  A    between atoms: C7_12  and  N3_13 
REMARK       I    between atoms: N3_13  and  C8_14 
REMARK       I    between atoms: C8_14  and  N4_16 
REMARK    6  A    between atoms: N4_16  and  C9_17 
REMARK    7  A    between atoms: C9_17  and  C10_18 
REMARK    8  A    between atoms: C9_17  and  C16_25 
REMARK    9  A    between atoms: C16_25  and  O4_28 
ROOT
HETATM    1  N3  UNL     1      -2.073  51.253 -21.070  1.00  0.00    -0.295 N 
HETATM    2  C8  UNL     1      -1.936  50.341 -22.090  1.00  0.00     0.322 C 
HETATM    3  O3  UNL     1      -1.213  49.357 -22.121  1.00  0.00    -0.247 OA
HETATM    4  N4  UNL     1      -2.786  50.658 -23.134  1.00  0.00    -0.331 N 
HETATM    5  H10 UNL     1      -2.872  51.859 -21.115  1.00  0.00     0.172 HD
HETATM    6  H11 UNL     1      -3.054  51.624 -23.225  1.00  0.00     0.165 HD
ENDROOT
BRANCH   1   7
HETATM    7  C7  UNL     1      -1.300  51.292 -19.901  1.00  0.00     0.111 A 
HETATM    8  C6  UNL     1      -0.381  52.338 -19.795  1.00  0.00     0.080 A 
HETATM    9  C5  UNL     1       0.387  52.348 -18.630  1.00  0.00     0.067 A 
HETATM   10  N2  UNL     1       1.363  53.192 -18.172  1.00  0.00    -0.298 N 
HETATM   11  C20 UNL     1       0.248  51.381 -17.644  1.00  0.00     0.060 A 
HETATM   12  N1  UNL     1       1.872  52.848 -16.973  1.00  0.00    -0.279 N 
HETATM   13  H8  UNL     1       1.732  54.019 -18.628  1.00  0.00     0.187 HD
HETATM   14  C4  UNL     1       1.183  51.749 -16.657  1.00  0.00     0.171 A 
ATOM     15  H1  UNL     1       2.605  53.314 -16.438  1.00  0.00     0.189 HD
HETATM   16  C19 UNL     1      -0.687  50.367 -17.829  1.00  0.00     0.108 A 
HETATM   17  N5  UNL     1      -1.441  50.341 -18.959  1.00  0.00    -0.351 N 
ATOM     18  H5  UNL     1      -2.120  49.593 -19.095  1.00  0.00     0.166 HD
BRANCH  14  19
HETATM   19  O2  UNL     1       1.399  51.087 -15.498  1.00  0.00    -0.332 OA
BRANCH  19  20
HETATM   20  C3  UNL     1       2.682  51.292 -14.896  1.00  0.00     0.203 C 
BRANCH  20  21
HETATM   21  C2  UNL     1       2.570  51.608 -13.403  1.00  0.00     0.193 C 
BRANCH  21  22
HETATM   22  O1  UNL     1       3.394  50.697 -12.663  1.00  0.00    -0.394 OA
HETATM   23  C1  UNL     1       4.228  49.931 -13.521  1.00  0.00     0.201 C 
ENDBRANCH  21  22
ENDBRANCH  20  21
ENDBRANCH  19  20
ENDBRANCH  14  19
ENDBRANCH   1   7
BRANCH   4  24
HETATM   24  C9  UNL     1      -2.798  49.875 -24.379  1.00  0.00     0.153 C 
BRANCH  24  25
HETATM   25  C10 UNL     1      -2.126  50.728 -25.467  1.00  0.00    -0.032 A 
HETATM   26  C11 UNL     1      -2.733  51.809 -26.120  1.00  0.00     0.011 A 
HETATM   27  C12 UNL     1      -2.044  52.543 -27.093  1.00  0.00     0.024 A 
HETATM   28  C13 UNL     1      -0.737  52.201 -27.430  1.00  0.00     0.034 A 
HETATM   29 CL1  UNL     1       0.106  53.109 -28.622  1.00  0.00    -0.084 Cl
HETATM   30  C14 UNL     1      -0.115  51.126 -26.808  1.00  0.00     0.024 A 
HETATM   31  C15 UNL     1      -0.806  50.394 -25.839  1.00  0.00     0.011 A 
ENDBRANCH  24  25
BRANCH  24  32
HETATM   32  C16 UNL     1      -4.228  49.259 -24.640  1.00  0.00     0.075 C 
HETATM   33  C17 UNL     1      -4.249  48.524 -25.995  1.00  0.00     0.048 C 
HETATM   34  C18 UNL     1      -4.672  48.272 -23.549  1.00  0.00     0.048 C 
BRANCH  32  35
HETATM   35  O4  UNL     1      -5.213  50.301 -24.730  1.00  0.00    -0.388 OA
HETATM   36  H23 UNL     1      -6.043  49.909 -25.053  1.00  0.00     0.210 HD
ENDBRANCH  32  35
ENDBRANCH  24  32
ENDBRANCH   4  24
TORSDOF 9
ENDMDL
MODEL 7
REMARK minimizedAffinity -7.6270957
REMARK  9 active torsions:
REMARK  status: ('A' for Active; 'I' for Inactive)
REMARK    1  A    between atoms: O1_2  and  C2_3 
REMARK    2  A    between atoms: C2_3  and  C3_4 
REMARK    3  A    between atoms: C3_4  and  O2_5 
REMARK    4  A    between atoms: O2_5  and  C4_6 
REMARK    5  A    between atoms: C7_12  and  N3_13 
REMARK       I    between atoms: N3_13  and  C8_14 
REMARK       I    between atoms: C8_14  and  N4_16 
REMARK    6  A    between atoms: N4_16  and  C9_17 
REMARK    7  A    between atoms: C9_17  and  C10_18 
REMARK    8  A    between atoms: C9_17  and  C16_25 
REMARK    9  A    between atoms: C16_25  and  O4_28 
ROOT
HETATM    1  N3  UNL     1      -2.952  48.832 -23.523  1.00  0.00    -0.295 N 
HETATM    2  C8  UNL     1      -3.219  49.892 -22.688  1.00  0.00     0.322 C 
HETATM    3  O3  UNL     1      -4.003  50.810 -22.873  1.00  0.00    -0.247 OA
HETATM    4  N4  UNL     1      -2.480  49.783 -21.524  1.00  0.00    -0.331 N 
HETATM    5  H10 UNL     1      -2.460  48.056 -23.119  1.00  0.00     0.172 HD
HETATM    6  H11 UNL     1      -1.618  49.265 -21.579  1.00  0.00     0.165 HD
ENDROOT
BRANCH   1   7
HETATM    7  C7  UNL     1      -3.452  48.671 -24.823  1.00  0.00     0.111 A 
HETATM    8  C6  UNL     1      -4.816  48.397 -24.938  1.00  0.00     0.080 A 
HETATM    9  C5  UNL     1      -5.287  48.229 -26.241  1.00  0.00     0.067 A 
HETATM   10  N2  UNL     1      -6.531  47.960 -26.748  1.00  0.00    -0.298 N 
HETATM   11  C20 UNL     1      -4.454  48.322 -27.347  1.00  0.00     0.060 A 
HETATM   12  N1  UNL     1      -6.571  47.868 -28.090  1.00  0.00    -0.279 N 
HETATM   13  H8  UNL     1      -7.395  47.828 -26.234  1.00  0.00     0.187 HD
HETATM   14  C4  UNL     1      -5.305  48.096 -28.447  1.00  0.00     0.171 A 
ATOM     15  H1  UNL     1      -7.374  47.672 -28.689  1.00  0.00     0.189 HD
HETATM   16  C19 UNL     1      -3.104  48.591 -27.147  1.00  0.00     0.108 A 
HETATM   17  N5  UNL     1      -2.628  48.756 -25.884  1.00  0.00    -0.351 N 
ATOM     18  H5  UNL     1      -1.637  48.946 -25.739  1.00  0.00     0.166 HD
BRANCH  14  19
HETATM   19  O2  UNL     1      -4.923  48.094 -29.744  1.00  0.00    -0.332 OA
BRANCH  19  20
HETATM   20  C3  UNL     1      -5.939  48.447 -30.690  1.00  0.00     0.203 C 
BRANCH  20  21
HETATM   21  C2  UNL     1      -6.046  47.423 -31.822  1.00  0.00     0.193 C 
BRANCH  21  22
HETATM   22  O1  UNL     1      -5.460  46.186 -31.400  1.00  0.00    -0.394 OA
HETATM   23  C1  UNL     1      -4.456  45.747 -32.305  1.00  0.00     0.201 C 
ENDBRANCH  21  22
ENDBRANCH  20  21
ENDBRANCH  19  20
ENDBRANCH  14  19
ENDBRANCH   1   7
BRANCH   4  24
HETATM   24  C9  UNL     1      -2.531  50.820 -20.482  1.00  0.00     0.153 C 
BRANCH  24  25
HETATM   25  C10 UNL     1      -1.332  51.755 -20.701  1.00  0.00    -0.032 A 
HETATM   26  C11 UNL     1      -0.728  52.526 -19.698  1.00  0.00     0.011 A 
HETATM   27  C12 UNL     1       0.372  53.344 -19.981  1.00  0.00     0.024 A 
HETATM   28  C13 UNL     1       0.882  53.406 -21.274  1.00  0.00     0.034 A 
HETATM   29 CL1  UNL     1       2.236  54.409 -21.615  1.00  0.00    -0.084 Cl
HETATM   30  C14 UNL     1       0.296  52.664 -22.292  1.00  0.00     0.024 A 
HETATM   31  C15 UNL     1      -0.804  51.850 -22.007  1.00  0.00     0.011 A 
ENDBRANCH  24  25
BRANCH  24  32
HETATM   32  C16 UNL     1      -2.771  50.174 -19.062  1.00  0.00     0.075 C 
HETATM   33  C17 UNL     1      -4.024  49.276 -19.093  1.00  0.00     0.048 C 
HETATM   34  C18 UNL     1      -1.584  49.330 -18.570  1.00  0.00     0.048 C 
BRANCH  32  35
HETATM   35  O4  UNL     1      -3.031  51.195 -18.084  1.00  0.00    -0.388 OA
HETATM   36  H23 UNL     1      -3.336  50.764 -17.267  1.00  0.00     0.210 HD
ENDBRANCH  32  35
ENDBRANCH  24  32
ENDBRANCH   4  24
TORSDOF 9
ENDMDL
MODEL 8
REMARK minimizedAffinity -7.51203012
REMARK  9 active torsions:
REMARK  status: ('A' for Active; 'I' for Inactive)
REMARK    1  A    between atoms: O1_2  and  C2_3 
REMARK    2  A    between atoms: C2_3  and  C3_4 
REMARK    3  A    between atoms: C3_4  and  O2_5 
REMARK    4  A    between atoms: O2_5  and  C4_6 
REMARK    5  A    between atoms: C7_12  and  N3_13 
REMARK       I    between atoms: N3_13  and  C8_14 
REMARK       I    between atoms: C8_14  and  N4_16 
REMARK    6  A    between atoms: N4_16  and  C9_17 
REMARK    7  A    between atoms: C9_17  and  C10_18 
REMARK    8  A    between atoms: C9_17  and  C16_25 
REMARK    9  A    between atoms: C16_25  and  O4_28 
ROOT
HETATM    1  N3  UNL     1       1.704  65.885 -37.260  1.00  0.00    -0.295 N 
HETATM    2  C8  UNL     1       2.634  66.300 -36.335  1.00  0.00     0.322 C 
HETATM    3  O3  UNL     1       2.982  67.444 -36.087  1.00  0.00    -0.247 OA
HETATM    4  N4  UNL     1       3.143  65.214 -35.646  1.00  0.00    -0.331 N 
HETATM    5  H10 UNL     1       1.375  64.941 -37.171  1.00  0.00     0.172 HD
HETATM    6  H11 UNL     1       3.123  64.326 -36.119  1.00  0.00     0.165 HD
ENDROOT
BRANCH   1   7
HETATM    7  C7  UNL     1       1.060  66.707 -38.194  1.00  0.00     0.111 A 
HETATM    8  C6  UNL     1       0.896  66.184 -39.478  1.00  0.00     0.080 A 
HETATM    9  C5  UNL     1       0.264  67.026 -40.394  1.00  0.00     0.067 A 
HETATM   10  N2  UNL     1      -0.073  66.872 -41.713  1.00  0.00    -0.298 N 
HETATM   11  C20 UNL     1      -0.169  68.300 -40.053  1.00  0.00     0.060 A 
HETATM   12  N1  UNL     1      -0.684  67.943 -42.255  1.00  0.00    -0.279 N 
HETATM   13  H8  UNL     1       0.085  66.063 -42.303  1.00  0.00     0.187 HD
HETATM   14  C4  UNL     1      -0.743  68.804 -41.236  1.00  0.00     0.171 A 
ATOM     15  H1  UNL     1      -1.019  68.066 -43.210  1.00  0.00     0.189 HD
HETATM   16  C19 UNL     1       0.040  68.751 -38.753  1.00  0.00     0.108 A 
HETATM   17  N5  UNL     1       0.656  67.944 -37.849  1.00  0.00    -0.351 N 
ATOM     18  H5  UNL     1       0.813  68.279 -36.899  1.00  0.00     0.166 HD
BRANCH  14  19
HETATM   19  O2  UNL     1      -1.303  70.027 -41.375  1.00  0.00    -0.332 OA
BRANCH  19  20
HETATM   20  C3  UNL     1      -2.585  70.054 -42.011  1.00  0.00     0.203 C 
BRANCH  20  21
HETATM   21  C2  UNL     1      -3.728  69.955 -40.998  1.00  0.00     0.193 C 
BRANCH  21  22
HETATM   22  O1  UNL     1      -4.641  68.930 -41.412  1.00  0.00    -0.394 OA
HETATM   23  C1  UNL     1      -5.152  69.179 -42.714  1.00  0.00     0.201 C 
ENDBRANCH  21  22
ENDBRANCH  20  21
ENDBRANCH  19  20
ENDBRANCH  14  19
ENDBRANCH   1   7
BRANCH   4  24
HETATM   24  C9  UNL     1       4.202  65.373 -34.637  1.00  0.00     0.153 C 
BRANCH  24  25
HETATM   25  C10 UNL     1       5.464  65.860 -35.364  1.00  0.00    -0.032 A 
HETATM   26  C11 UNL     1       5.986  65.282 -36.530  1.00  0.00     0.011 A 
HETATM   27  C12 UNL     1       7.137  65.798 -37.137  1.00  0.00     0.024 A 
HETATM   28  C13 UNL     1       7.787  66.897 -36.583  1.00  0.00     0.034 A 
HETATM   29 CL1  UNL     1       9.198  67.528 -37.336  1.00  0.00    -0.084 Cl
HETATM   30  C14 UNL     1       7.301  67.481 -35.421  1.00  0.00     0.024 A 
HETATM   31  C15 UNL     1       6.152  66.964 -34.816  1.00  0.00     0.011 A 
ENDBRANCH  24  25
BRANCH  24  32
HETATM   32  C16 UNL     1       4.278  64.103 -33.702  1.00  0.00     0.075 C 
HETATM   33  C17 UNL     1       5.574  63.316 -33.982  1.00  0.00     0.048 C 
HETATM   34  C18 UNL     1       4.236  64.447 -32.205  1.00  0.00     0.048 C 
BRANCH  32  35
HETATM   35  O4  UNL     1       3.192  63.205 -33.987  1.00  0.00    -0.388 OA
HETATM   36  H23 UNL     1       3.359  62.368 -33.520  1.00  0.00     0.210 HD
ENDBRANCH  32  35
ENDBRANCH  24  32
ENDBRANCH   4  24
TORSDOF 9
ENDMDL
MODEL 9
REMARK minimizedAffinity -7.45719767
REMARK  9 active torsions:
REMARK  status: ('A' for Active; 'I' for Inactive)
REMARK    1  A    between atoms: O1_2  and  C2_3 
REMARK    2  A    between atoms: C2_3  and  C3_4 
REMARK    3  A    between atoms: C3_4  and  O2_5 
REMARK    4  A    between atoms: O2_5  and  C4_6 
REMARK    5  A    between atoms: C7_12  and  N3_13 
REMARK       I    between atoms: N3_13  and  C8_14 
REMARK       I    between atoms: C8_14  and  N4_16 
REMARK    6  A    between atoms: N4_16  and  C9_17 
REMARK    7  A    between atoms: C9_17  and  C10_18 
REMARK    8  A    between atoms: C9_17  and  C16_25 
REMARK    9  A    between atoms: C16_25  and  O4_28 
ROOT
HETATM    1  N3  UNL     1       0.467  52.272 -18.382  1.00  0.00    -0.295 N 
HETATM    2  C8  UNL     1      -0.151  51.194 -17.792  1.00  0.00     0.322 C 
HETATM    3  O3  UNL     1      -0.673  50.237 -18.343  1.00  0.00    -0.247 OA
HETATM    4  N4  UNL     1      -0.086  51.300 -16.414  1.00  0.00    -0.331 N 
HETATM    5  H10 UNL     1       1.039  52.842 -17.786  1.00  0.00     0.172 HD
HETATM    6  H11 UNL     1      -0.005  52.228 -16.033  1.00  0.00     0.165 HD
ENDROOT
BRANCH   1   7
HETATM    7  C7  UNL     1       0.505  52.537 -19.758  1.00  0.00     0.111 A 
HETATM    8  C6  UNL     1       1.223  53.667 -20.157  1.00  0.00     0.080 A 
HETATM    9  C5  UNL     1       1.235  53.918 -21.529  1.00  0.00     0.067 A 
HETATM   10  N2  UNL     1       1.818  54.899 -22.285  1.00  0.00    -0.298 N 
HETATM   11  C20 UNL     1       0.575  53.102 -22.437  1.00  0.00     0.060 A 
HETATM   12  N1  UNL     1       1.586  54.789 -23.607  1.00  0.00    -0.279 N 
HETATM   13  H8  UNL     1       2.387  55.675 -21.963  1.00  0.00     0.187 HD
HETATM   14  C4  UNL     1       0.834  53.689 -23.691  1.00  0.00     0.171 A 
ATOM     15  H1  UNL     1       1.907  55.398 -24.360  1.00  0.00     0.189 HD
HETATM   16  C19 UNL     1      -0.125  51.998 -21.958  1.00  0.00     0.108 A 
HETATM   17  N5  UNL     1      -0.149  51.741 -20.624  1.00  0.00    -0.351 N 
ATOM     18  H5  UNL     1      -0.669  50.935 -20.275  1.00  0.00     0.166 HD
BRANCH  14  19
HETATM   19  O2  UNL     1       0.385  53.227 -24.880  1.00  0.00    -0.332 OA
BRANCH  19  20
HETATM   20  C3  UNL     1      -0.289  51.965 -24.840  1.00  0.00     0.203 C 
BRANCH  20  21
HETATM   21  C2  UNL     1      -1.212  51.771 -26.045  1.00  0.00     0.193 C 
BRANCH  21  22
HETATM   22  O1  UNL     1      -2.266  52.741 -25.997  1.00  0.00    -0.394 OA
HETATM   23  C1  UNL     1      -3.445  52.204 -25.413  1.00  0.00     0.201 C 
ENDBRANCH  21  22
ENDBRANCH  20  21
ENDBRANCH  19  20
ENDBRANCH  14  19
ENDBRANCH   1   7
BRANCH   4  24
HETATM   24  C9  UNL     1      -0.724  50.306 -15.537  1.00  0.00     0.153 C 
BRANCH  24  25
HETATM   25  C10 UNL     1      -1.537  51.074 -14.483  1.00  0.00    -0.032 A 
HETATM   26  C11 UNL     1      -2.933  51.190 -14.482  1.00  0.00     0.011 A 
HETATM   27  C12 UNL     1      -3.597  51.899 -13.474  1.00  0.00     0.024 A 
HETATM   28  C13 UNL     1      -2.872  52.507 -12.454  1.00  0.00     0.034 A 
HETATM   29 CL1  UNL     1      -3.693  53.373 -11.216  1.00  0.00    -0.084 Cl
HETATM   30  C14 UNL     1      -1.485  52.420 -12.436  1.00  0.00     0.024 A 
HETATM   31  C15 UNL     1      -0.825  51.713 -13.445  1.00  0.00     0.011 A 
ENDBRANCH  24  25
BRANCH  24  32
HETATM   32  C16 UNL     1       0.319  49.214 -15.078  1.00  0.00     0.075 C 
HETATM   33  C17 UNL     1       1.683  49.873 -14.790  1.00  0.00     0.048 C 
HETATM   34  C18 UNL     1      -0.120  48.445 -13.821  1.00  0.00     0.048 C 
BRANCH  32  35
HETATM   35  O4  UNL     1       0.544  48.262 -16.131  1.00  0.00    -0.388 OA
HETATM   36  H23 UNL     1       1.305  47.708 -15.883  1.00  0.00     0.210 HD
ENDBRANCH  32  35
ENDBRANCH  24  32
ENDBRANCH   4  24
TORSDOF 9
ENDMDL
