MODEL 1
REMARK minimizedAffinity -8.52532101
REMARK  6 active torsions:
REMARK  status: ('A' for Active; 'I' for Inactive)
REMARK    1  A    between atoms: O1_2  and  C2_3 
REMARK    2  A    between atoms: C2_3  and  C3_4 
REMARK    3  A    between atoms: C3_4  and  N1_5 
REMARK    4  A    between atoms: C3_4  and  C15_26 
REMARK       I    between atoms: N1_5  and  C4_6 
REMARK       I    between atoms: C4_6  and  N2_8 
REMARK    5  A    between atoms: N2_8  and  C5_9 
REMARK    6  A    between atoms: N5_16  and  C9_17 
ROOT
HETATM    1  C5  UNL     1      -3.278  48.713 -24.444  1.00  0.00     0.111 A 
HETATM    2  C6  UNL     1      -4.650  48.494 -24.421  1.00  0.00     0.080 A 
HETATM    3  C7  UNL     1      -5.238  48.288 -25.668  1.00  0.00     0.067 A 
HETATM    4  N3  UNL     1      -6.529  48.050 -26.045  1.00  0.00    -0.298 N 
HETATM    5  N4  UNL     1      -6.696  47.895 -27.367  1.00  0.00    -0.284 N 
ATOM      6  H4  UNL     1      -7.565  47.712 -27.869  1.00  0.00     0.188 HD
HETATM    7  C8  UNL     1      -5.472  48.035 -27.877  1.00  0.00     0.130 A 
HETATM    8  N5  UNL     1      -5.143  47.948 -29.184  1.00  0.00    -0.368 N 
HETATM    9  C13 UNL     1      -4.513  48.294 -26.853  1.00  0.00     0.052 A 
HETATM   10  C14 UNL     1      -3.139  48.523 -26.781  1.00  0.00     0.107 A 
HETATM   11  N6  UNL     1      -2.539  48.730 -25.579  1.00  0.00    -0.351 N 
ATOM     12  H6  UNL     1      -1.534  48.898 -25.532  1.00  0.00     0.166 HD
HETATM   13  H10 UNL     1      -7.345  47.980 -25.447  1.00  0.00     0.187 HD
HETATM   14  H11 UNL     1      -4.173  48.013 -29.471  1.00  0.00     0.161 HD
ENDROOT
BRANCH   1  15
HETATM   15  N2  UNL     1      -2.512  48.928 -23.297  1.00  0.00    -0.295 N 
HETATM   16  C4  UNL     1      -2.530  50.001 -22.448  1.00  0.00     0.322 C 
HETATM   17  N1  UNL     1      -1.643  49.819 -21.407  1.00  0.00    -0.332 N 
HETATM   18  O2  UNL     1      -3.212  51.009 -22.567  1.00  0.00    -0.247 OA
HETATM   19  H7  UNL     1      -1.549  48.858 -21.116  1.00  0.00     0.165 HD
HETATM   20  H8  UNL     1      -1.816  48.213 -23.160  1.00  0.00     0.172 HD
BRANCH  17  21
HETATM   21  C3  UNL     1      -1.572  50.789 -20.312  1.00  0.00     0.143 C 
BRANCH  21  22
HETATM   22  C2  UNL     1      -2.946  51.399 -19.940  1.00  0.00     0.197 C 
BRANCH  22  23
HETATM   23  O1  UNL     1      -2.977  51.715 -18.540  1.00  0.00    -0.394 OA
HETATM   24  C1  UNL     1      -2.881  50.546 -17.740  1.00  0.00     0.201 C 
ENDBRANCH  22  23
ENDBRANCH  21  22
BRANCH  21  25
HETATM   25  C15 UNL     1      -0.571  51.878 -20.684  1.00  0.00    -0.033 A 
HETATM   26  C16 UNL     1      -0.093  52.014 -21.999  1.00  0.00     0.009 A 
HETATM   27  C17 UNL     1       0.829  53.011 -22.321  1.00  0.00     0.001 A 
HETATM   28  C18 UNL     1       1.285  53.885 -21.336  1.00  0.00     0.000 A 
HETATM   29  C19 UNL     1       0.815  53.766 -20.029  1.00  0.00     0.001 A 
HETATM   30  C20 UNL     1      -0.107  52.769 -19.704  1.00  0.00     0.009 A 
ENDBRANCH  21  25
ENDBRANCH  17  21
ENDBRANCH   1  15
BRANCH   8  31
HETATM   31  C9  UNL     1      -6.064  47.624 -30.262  1.00  0.00     0.109 C 
HETATM   32  C10 UNL     1      -6.360  46.154 -30.435  1.00  0.00     0.053 C 
HETATM   33  C11 UNL     1      -6.980  46.125 -31.819  1.00  0.00     0.169 C 
HETATM   34  O3  UNL     1      -6.465  47.244 -32.560  1.00  0.00    -0.389 OA
HETATM   35  C12 UNL     1      -5.659  48.038 -31.668  1.00  0.00     0.192 C 
ENDBRANCH   8  31
TORSDOF 6
ENDMDL
MODEL 2
REMARK minimizedAffinity -8.46460915
REMARK  6 active torsions:
REMARK  status: ('A' for Active; 'I' for Inactive)
REMARK    1  A    between atoms: O1_2  and  C2_3 
REMARK    2  A    between atoms: C2_3  and  C3_4 
REMARK    3  A    between atoms: C3_4  and  N1_5 
REMARK    4  A    between atoms: C3_4  and  C15_26 
REMARK       I    between atoms: N1_5  and  C4_6 
REMARK       I    between atoms: C4_6  and  N2_8 
REMARK    5  A    between atoms: N2_8  and  C5_9 
REMARK    6  A    between atoms: N5_16  and  C9_17 
ROOT
HETATM    1  C5  UNL     1      -3.003  50.900 -27.193  1.00  0.00     0.111 A 
HETATM    2  C6  UNL     1      -2.255  52.058 -27.366  1.00  0.00     0.080 A 
HETATM    3  C7  UNL     1      -1.473  52.428 -26.272  1.00  0.00     0.067 A 
HETATM    4  N3  UNL     1      -0.626  53.479 -26.065  1.00  0.00    -0.298 N 
HETATM    5  N4  UNL     1      -0.041  53.483 -24.858  1.00  0.00    -0.284 N 
ATOM      6  H4  UNL     1       0.621  54.165 -24.487  1.00  0.00     0.188 HD
HETATM    7  C8  UNL     1      -0.519  52.396 -24.251  1.00  0.00     0.130 A 
HETATM    8  N5  UNL     1      -0.202  51.978 -23.006  1.00  0.00    -0.368 N 
HETATM    9  C13 UNL     1      -1.434  51.696 -25.092  1.00  0.00     0.052 A 
HETATM   10  C14 UNL     1      -2.219  50.547 -25.006  1.00  0.00     0.107 A 
HETATM   11  N6  UNL     1      -2.994  50.163 -26.056  1.00  0.00    -0.351 N 
ATOM     12  H6  UNL     1      -3.567  49.323 -25.987  1.00  0.00     0.166 HD
HETATM   13  H10 UNL     1      -0.402  54.230 -26.708  1.00  0.00     0.187 HD
HETATM   14  H11 UNL     1      -0.575  51.106 -22.651  1.00  0.00     0.161 HD
ENDROOT
BRANCH   1  15
HETATM   15  N2  UNL     1      -3.835  50.366 -28.176  1.00  0.00    -0.295 N 
HETATM   16  C4  UNL     1      -4.135  49.052 -28.419  1.00  0.00     0.322 C 
HETATM   17  N1  UNL     1      -5.028  48.936 -29.465  1.00  0.00    -0.332 N 
HETATM   18  O2  UNL     1      -3.684  48.083 -27.825  1.00  0.00    -0.247 OA
HETATM   19  H7  UNL     1      -5.689  49.697 -29.521  1.00  0.00     0.165 HD
HETATM   20  H8  UNL     1      -4.174  51.065 -28.816  1.00  0.00     0.172 HD
BRANCH  17  21
HETATM   21  C3  UNL     1      -5.580  47.630 -29.831  1.00  0.00     0.143 C 
BRANCH  21  22
HETATM   22  C2  UNL     1      -5.006  47.070 -31.156  1.00  0.00     0.197 C 
BRANCH  22  23
HETATM   23  O1  UNL     1      -4.497  48.145 -31.960  1.00  0.00    -0.394 OA
HETATM   24  C1  UNL     1      -4.397  47.772 -33.326  1.00  0.00     0.201 C 
ENDBRANCH  22  23
ENDBRANCH  21  22
BRANCH  21  25
HETATM   25  C15 UNL     1      -7.099  47.739 -29.893  1.00  0.00    -0.033 A 
HETATM   26  C16 UNL     1      -7.731  48.744 -30.647  1.00  0.00     0.009 A 
HETATM   27  C17 UNL     1      -9.123  48.834 -30.687  1.00  0.00     0.001 A 
HETATM   28  C18 UNL     1      -9.902  47.923 -29.976  1.00  0.00     0.000 A 
HETATM   29  C19 UNL     1      -9.290  46.918 -29.229  1.00  0.00     0.001 A 
HETATM   30  C20 UNL     1      -7.898  46.825 -29.187  1.00  0.00     0.009 A 
ENDBRANCH  21  25
ENDBRANCH  17  21
ENDBRANCH   1  15
BRANCH   8  31
HETATM   31  C9  UNL     1       0.770  52.613 -22.130  1.00  0.00     0.109 C 
HETATM   32  C10 UNL     1       0.336  52.765 -20.692  1.00  0.00     0.053 C 
HETATM   33  C11 UNL     1       1.339  53.778 -20.172  1.00  0.00     0.169 C 
HETATM   34  O3  UNL     1       1.781  54.575 -21.284  1.00  0.00    -0.389 OA
HETATM   35  C12 UNL     1       1.204  54.026 -22.485  1.00  0.00     0.192 C 
ENDBRANCH   8  31
TORSDOF 6
ENDMDL
MODEL 3
REMARK minimizedAffinity -8.4068861
REMARK  6 active torsions:
REMARK  status: ('A' for Active; 'I' for Inactive)
REMARK    1  A    between atoms: O1_2  and  C2_3 
REMARK    2  A    between atoms: C2_3  and  C3_4 
REMARK    3  A    between atoms: C3_4  and  N1_5 
REMARK    4  A    between atoms: C3_4  and  C15_26 
REMARK       I    between atoms: N1_5  and  C4_6 
REMARK       I    between atoms: C4_6  and  N2_8 
REMARK    5  A    between atoms: N2_8  and  C5_9 
REMARK    6  A    between atoms: N5_16  and  C9_17 
ROOT
HETATM    1  C5  UNL     1       0.798  52.864 -19.215  1.00  0.00     0.111 A 
HETATM    2  C6  UNL     1      -0.027  51.866 -19.718  1.00  0.00     0.080 A 
HETATM    3  C7  UNL     1      -0.150  51.841 -21.106  1.00  0.00     0.067 A 
HETATM    4  N3  UNL     1      -0.856  51.030 -21.949  1.00  0.00    -0.298 N 
HETATM    5  N4  UNL     1      -0.707  51.327 -23.249  1.00  0.00    -0.284 N 
ATOM      6  H4  UNL     1      -1.136  50.862 -24.048  1.00  0.00     0.188 HD
HETATM    7  C8  UNL     1       0.127  52.367 -23.260  1.00  0.00     0.130 A 
HETATM    8  N5  UNL     1       0.580  53.009 -24.360  1.00  0.00    -0.368 N 
HETATM    9  C13 UNL     1       0.505  52.740 -21.937  1.00  0.00     0.052 A 
HETATM   10  C14 UNL     1       1.313  53.711 -21.345  1.00  0.00     0.107 A 
HETATM   11  N6  UNL     1       1.449  53.761 -19.993  1.00  0.00    -0.351 N 
ATOM     12  H6  UNL     1       2.040  54.474 -19.566  1.00  0.00     0.166 HD
HETATM   13  H10 UNL     1      -1.460  50.255 -21.701  1.00  0.00     0.187 HD
HETATM   14  H11 UNL     1       1.259  53.756 -24.271  1.00  0.00     0.161 HD
ENDROOT
BRANCH   1  15
HETATM   15  N2  UNL     1       1.054  53.041 -17.855  1.00  0.00    -0.295 N 
HETATM   16  C4  UNL     1       1.008  52.113 -16.851  1.00  0.00     0.322 C 
HETATM   17  N1  UNL     1       1.361  52.678 -15.642  1.00  0.00    -0.332 N 
HETATM   18  O2  UNL     1       0.689  50.938 -16.962  1.00  0.00    -0.247 OA
HETATM   19  H7  UNL     1       2.056  53.406 -15.721  1.00  0.00     0.165 HD
HETATM   20  H8  UNL     1       1.210  54.007 -17.616  1.00  0.00     0.172 HD
BRANCH  17  21
HETATM   21  C3  UNL     1       1.492  51.849 -14.443  1.00  0.00     0.143 C 
BRANCH  21  22
HETATM   22  C2  UNL     1       1.655  50.340 -14.753  1.00  0.00     0.197 C 
BRANCH  22  23
HETATM   23  O1  UNL     1       2.552  49.741 -13.806  1.00  0.00    -0.394 OA
HETATM   24  C1  UNL     1       3.837  50.345 -13.851  1.00  0.00     0.201 C 
ENDBRANCH  22  23
ENDBRANCH  21  22
BRANCH  21  25
HETATM   25  C15 UNL     1       0.289  52.096 -13.540  1.00  0.00    -0.033 A 
HETATM   26  C16 UNL     1       0.400  52.860 -12.365  1.00  0.00     0.009 A 
HETATM   27  C17 UNL     1      -0.710  53.071 -11.545  1.00  0.00     0.001 A 
HETATM   28  C18 UNL     1      -1.944  52.523 -11.888  1.00  0.00     0.000 A 
HETATM   29  C19 UNL     1      -2.071  51.768 -13.052  1.00  0.00     0.001 A 
HETATM   30  C20 UNL     1      -0.963  51.555 -13.874  1.00  0.00     0.009 A 
ENDBRANCH  21  25
ENDBRANCH  17  21
ENDBRANCH   1  15
BRANCH   8  31
HETATM   31  C9  UNL     1       0.282  52.634 -25.733  1.00  0.00     0.109 C 
HETATM   32  C10 UNL     1       1.345  51.812 -26.421  1.00  0.00     0.053 C 
HETATM   33  C11 UNL     1       0.940  51.940 -27.877  1.00  0.00     0.169 C 
HETATM   34  O3  UNL     1       0.226  53.178 -28.032  1.00  0.00    -0.389 OA
HETATM   35  C12 UNL     1       0.055  53.763 -26.726  1.00  0.00     0.192 C 
ENDBRANCH   8  31
TORSDOF 6
ENDMDL
MODEL 4
REMARK minimizedAffinity -8.36997318
REMARK  6 active torsions:
REMARK  status: ('A' for Active; 'I' for Inactive)
REMARK    1  A    between atoms: O1_2  and  C2_3 
REMARK    2  A    between atoms: C2_3  and  C3_4 
REMARK    3  A    between atoms: C3_4  and  N1_5 
REMARK    4  A    between atoms: C3_4  and  C15_26 
REMARK       I    between atoms: N1_5  and  C4_6 
REMARK       I    between atoms: C4_6  and  N2_8 
REMARK    5  A    between atoms: N2_8  and  C5_9 
REMARK    6  A    between atoms: N5_16  and  C9_17 
ROOT
HETATM    1  C5  UNL     1      -0.418  50.949 -20.880  1.00  0.00     0.111 A 
HETATM    2  C6  UNL     1       0.310  52.092 -20.572  1.00  0.00     0.080 A 
HETATM    3  C7  UNL     1       0.574  52.280 -19.216  1.00  0.00     0.067 A 
HETATM    4  N3  UNL     1       1.241  53.262 -18.540  1.00  0.00    -0.298 N 
HETATM    5  N4  UNL     1       1.288  53.078 -17.212  1.00  0.00    -0.284 N 
ATOM      6  H4  UNL     1       1.728  53.678 -16.514  1.00  0.00     0.188 HD
HETATM    7  C8  UNL     1       0.631  51.936 -17.009  1.00  0.00     0.130 A 
HETATM    8  N5  UNL     1       0.428  51.339 -15.814  1.00  0.00    -0.368 N 
HETATM    9  C13 UNL     1       0.151  51.392 -18.236  1.00  0.00     0.052 A 
HETATM   10  C14 UNL     1      -0.576  50.271 -18.637  1.00  0.00     0.107 A 
HETATM   11  N6  UNL     1      -0.851  50.063 -19.952  1.00  0.00    -0.351 N 
ATOM     12  H6  UNL     1      -1.384  49.242 -20.239  1.00  0.00     0.166 HD
HETATM   13  H10 UNL     1       1.688  54.085 -18.926  1.00  0.00     0.187 HD
HETATM   14  H11 UNL     1      -0.036  50.440 -15.765  1.00  0.00     0.161 HD
ENDROOT
BRANCH   1  15
HETATM   15  N2  UNL     1      -0.769  50.586 -22.180  1.00  0.00    -0.295 N 
HETATM   16  C4  UNL     1      -1.116  51.395 -23.228  1.00  0.00     0.322 C 
HETATM   17  N1  UNL     1      -1.363  50.652 -24.364  1.00  0.00    -0.332 N 
HETATM   18  O2  UNL     1      -1.219  52.613 -23.201  1.00  0.00    -0.247 OA
HETATM   19  H7  UNL     1      -0.790  49.825 -24.441  1.00  0.00     0.165 HD
HETATM   20  H8  UNL     1      -0.842  49.588 -22.295  1.00  0.00     0.172 HD
BRANCH  17  21
HETATM   21  C3  UNL     1      -1.642  51.313 -25.640  1.00  0.00     0.143 C 
BRANCH  21  22
HETATM   22  C2  UNL     1      -2.717  50.587 -26.486  1.00  0.00     0.197 C 
BRANCH  22  23
HETATM   23  O1  UNL     1      -2.643  49.171 -26.259  1.00  0.00    -0.394 OA
HETATM   24  C1  UNL     1      -3.473  48.455 -27.161  1.00  0.00     0.201 C 
ENDBRANCH  22  23
ENDBRANCH  21  22
BRANCH  21  25
HETATM   25  C15 UNL     1      -0.337  51.454 -26.416  1.00  0.00    -0.033 A 
HETATM   26  C16 UNL     1      -0.331  51.729 -27.795  1.00  0.00     0.009 A 
HETATM   27  C17 UNL     1       0.872  51.847 -28.492  1.00  0.00     0.001 A 
HETATM   28  C18 UNL     1       2.085  51.694 -27.822  1.00  0.00     0.000 A 
HETATM   29  C19 UNL     1       2.095  51.426 -26.454  1.00  0.00     0.001 A 
HETATM   30  C20 UNL     1       0.893  51.307 -25.754  1.00  0.00     0.009 A 
ENDBRANCH  21  25
ENDBRANCH  17  21
ENDBRANCH   1  15
BRANCH   8  31
HETATM   31  C9  UNL     1       0.948  51.812 -14.540  1.00  0.00     0.109 C 
HETATM   32  C10 UNL     1       1.742  50.797 -13.753  1.00  0.00     0.053 C 
HETATM   33  C11 UNL     1       1.779  51.435 -12.377  1.00  0.00     0.169 C 
HETATM   34  O3  UNL     1       0.620  52.275 -12.246  1.00  0.00    -0.389 OA
HETATM   35  C12 UNL     1      -0.065  52.293 -13.514  1.00  0.00     0.192 C 
ENDBRANCH   8  31
TORSDOF 6
ENDMDL
MODEL 5
REMARK minimizedAffinity -8.36448669
REMARK  6 active torsions:
REMARK  status: ('A' for Active; 'I' for Inactive)
REMARK    1  A    between atoms: O1_2  and  C2_3 
REMARK    2  A    between atoms: C2_3  and  C3_4 
REMARK    3  A    between atoms: C3_4  and  N1_5 
REMARK    4  A    between atoms: C3_4  and  C15_26 
REMARK       I    between atoms: N1_5  and  C4_6 
REMARK       I    between atoms: C4_6  and  N2_8 
REMARK    5  A    between atoms: N2_8  and  C5_9 
REMARK    6  A    between atoms: N5_16  and  C9_17 
ROOT
HETATM    1  C5  UNL     1       0.702  52.846 -19.848  1.00  0.00     0.111 A 
HETATM    2  C6  UNL     1       1.251  53.856 -20.628  1.00  0.00     0.080 A 
HETATM    3  C7  UNL     1       1.052  53.719 -22.001  1.00  0.00     0.067 A 
HETATM    4  N3  UNL     1       1.434  54.488 -23.063  1.00  0.00    -0.298 N 
HETATM    5  N4  UNL     1       1.035  54.016 -24.254  1.00  0.00    -0.284 N 
ATOM      6  H4  UNL     1       1.206  54.421 -25.174  1.00  0.00     0.188 HD
HETATM    7  C8  UNL     1       0.367  52.900 -23.964  1.00  0.00     0.130 A 
HETATM    8  N5  UNL     1      -0.234  52.081 -24.855  1.00  0.00    -0.368 N 
HETATM    9  C13 UNL     1       0.352  52.658 -22.559  1.00  0.00     0.052 A 
HETATM   10  C14 UNL     1      -0.164  51.688 -21.699  1.00  0.00     0.107 A 
HETATM   11  N6  UNL     1       0.017  51.794 -20.356  1.00  0.00    -0.351 N 
ATOM     12  H6  UNL     1      -0.362  51.081 -19.732  1.00  0.00     0.166 HD
HETATM   13  H10 UNL     1       1.970  55.349 -23.044  1.00  0.00     0.187 HD
HETATM   14  H11 UNL     1      -0.769  51.283 -24.534  1.00  0.00     0.161 HD
ENDROOT
BRANCH   1  15
HETATM   15  N2  UNL     1       0.787  52.815 -18.456  1.00  0.00    -0.295 N 
HETATM   16  C4  UNL     1       0.424  51.808 -17.601  1.00  0.00     0.322 C 
HETATM   17  N1  UNL     1       0.698  52.151 -16.293  1.00  0.00    -0.332 N 
HETATM   18  O2  UNL     1      -0.088  50.743 -17.912  1.00  0.00    -0.247 OA
HETATM   19  H7  UNL     1       1.519  52.727 -16.187  1.00  0.00     0.165 HD
HETATM   20  H8  UNL     1       1.083  53.695 -18.068  1.00  0.00     0.172 HD
BRANCH  17  21
HETATM   21  C3  UNL     1       0.498  51.183 -15.213  1.00  0.00     0.143 C 
BRANCH  21  22
HETATM   22  C2  UNL     1      -0.377  51.726 -14.056  1.00  0.00     0.197 C 
BRANCH  22  23
HETATM   23  O1  UNL     1       0.219  52.913 -13.510  1.00  0.00    -0.394 OA
HETATM   24  C1  UNL     1       0.179  52.910 -12.090  1.00  0.00     0.201 C 
ENDBRANCH  22  23
ENDBRANCH  21  22
BRANCH  21  25
HETATM   25  C15 UNL     1       1.860  50.726 -14.704  1.00  0.00    -0.033 A 
HETATM   26  C16 UNL     1       2.000  49.556 -13.937  1.00  0.00     0.009 A 
HETATM   27  C17 UNL     1       3.254  49.156 -13.472  1.00  0.00     0.001 A 
HETATM   28  C18 UNL     1       4.383  49.917 -13.766  1.00  0.00     0.000 A 
HETATM   29  C19 UNL     1       4.261  51.076 -14.530  1.00  0.00     0.001 A 
HETATM   30  C20 UNL     1       3.008  51.479 -14.997  1.00  0.00     0.009 A 
ENDBRANCH  21  25
ENDBRANCH  17  21
ENDBRANCH   1  15
BRANCH   8  31
HETATM   31  C9  UNL     1      -0.307  52.310 -26.290  1.00  0.00     0.109 C 
HETATM   32  C10 UNL     1       0.726  51.577 -27.111  1.00  0.00     0.053 C 
HETATM   33  C11 UNL     1       0.648  52.315 -28.434  1.00  0.00     0.169 C 
HETATM   34  O3  UNL     1       0.191  53.652 -28.170  1.00  0.00    -0.389 OA
HETATM   35  C12 UNL     1      -0.142  53.743 -26.771  1.00  0.00     0.192 C 
ENDBRANCH   8  31
TORSDOF 6
ENDMDL
MODEL 6
REMARK minimizedAffinity -8.25361538
REMARK  6 active torsions:
REMARK  status: ('A' for Active; 'I' for Inactive)
REMARK    1  A    between atoms: O1_2  and  C2_3 
REMARK    2  A    between atoms: C2_3  and  C3_4 
REMARK    3  A    between atoms: C3_4  and  N1_5 
REMARK    4  A    between atoms: C3_4  and  C15_26 
REMARK       I    between atoms: N1_5  and  C4_6 
REMARK       I    between atoms: C4_6  and  N2_8 
REMARK    5  A    between atoms: N2_8  and  C5_9 
REMARK    6  A    between atoms: N5_16  and  C9_17 
ROOT
HETATM    1  C5  UNL     1      -0.157  51.723 -19.170  1.00  0.00     0.111 A 
HETATM    2  C6  UNL     1       0.590  52.758 -18.621  1.00  0.00     0.080 A 
HETATM    3  C7  UNL     1       1.142  52.492 -17.369  1.00  0.00     0.067 A 
HETATM    4  N3  UNL     1       1.916  53.243 -16.530  1.00  0.00    -0.298 N 
HETATM    5  N4  UNL     1       2.261  52.618 -15.395  1.00  0.00    -0.284 N 
ATOM      6  H4  UNL     1       2.828  52.982 -14.630  1.00  0.00     0.188 HD
HETATM    7  C8  UNL     1       1.697  51.414 -15.492  1.00  0.00     0.130 A 
HETATM    8  N5  UNL     1       1.780  50.423 -14.577  1.00  0.00    -0.368 N 
HETATM    9  C13 UNL     1       0.971  51.281 -16.712  1.00  0.00     0.052 A 
HETATM   10  C14 UNL     1       0.205  50.298 -17.338  1.00  0.00     0.107 A 
HETATM   11  N6  UNL     1      -0.350  50.531 -18.557  1.00  0.00    -0.351 N 
ATOM     12  H6  UNL     1      -0.910  49.809 -19.009  1.00  0.00     0.166 HD
HETATM   13  H10 UNL     1       2.244  54.191 -16.674  1.00  0.00     0.187 HD
HETATM   14  H11 UNL     1       1.362  49.519 -14.765  1.00  0.00     0.161 HD
ENDROOT
BRANCH   1  15
HETATM   15  N2  UNL     1      -0.778  51.797 -20.417  1.00  0.00    -0.295 N 
HETATM   16  C4  UNL     1      -0.206  51.740 -21.659  1.00  0.00     0.322 C 
HETATM   17  N1  UNL     1      -1.167  51.815 -22.647  1.00  0.00    -0.332 N 
HETATM   18  O2  UNL     1       0.988  51.650 -21.905  1.00  0.00    -0.247 OA
HETATM   19  H7  UNL     1      -2.042  51.381 -22.396  1.00  0.00     0.165 HD
HETATM   20  H8  UNL     1      -1.762  51.997 -20.346  1.00  0.00     0.172 HD
BRANCH  17  21
HETATM   21  C3  UNL     1      -0.799  51.661 -24.056  1.00  0.00     0.143 C 
BRANCH  21  22
HETATM   22  C2  UNL     1      -0.928  52.971 -24.871  1.00  0.00     0.197 C 
BRANCH  22  23
HETATM   23  O1  UNL     1       0.299  53.235 -25.569  1.00  0.00    -0.394 OA
HETATM   24  C1  UNL     1       0.060  53.670 -26.899  1.00  0.00     0.201 C 
ENDBRANCH  22  23
ENDBRANCH  21  22
BRANCH  21  25
HETATM   25  C15 UNL     1      -1.646  50.549 -24.666  1.00  0.00    -0.033 A 
HETATM   26  C16 UNL     1      -1.681  50.335 -26.054  1.00  0.00     0.009 A 
HETATM   27  C17 UNL     1      -2.467  49.317 -26.597  1.00  0.00     0.001 A 
HETATM   28  C18 UNL     1      -3.228  48.502 -25.762  1.00  0.00     0.000 A 
HETATM   29  C19 UNL     1      -3.198  48.699 -24.382  1.00  0.00     0.001 A 
HETATM   30  C20 UNL     1      -2.413  49.716 -23.836  1.00  0.00     0.009 A 
ENDBRANCH  21  25
ENDBRANCH  17  21
ENDBRANCH   1  15
BRANCH   8  31
HETATM   31  C9  UNL     1       2.556  50.478 -13.348  1.00  0.00     0.109 C 
HETATM   32  C10 UNL     1       4.006  50.078 -13.485  1.00  0.00     0.053 C 
HETATM   33  C11 UNL     1       4.401  49.853 -12.037  1.00  0.00     0.169 C 
HETATM   34  O3  UNL     1       3.218  49.490 -11.305  1.00  0.00    -0.389 OA
HETATM   35  C12 UNL     1       2.089  49.605 -12.194  1.00  0.00     0.192 C 
ENDBRANCH   8  31
TORSDOF 6
ENDMDL
MODEL 7
REMARK minimizedAffinity -8.16966057
REMARK  6 active torsions:
REMARK  status: ('A' for Active; 'I' for Inactive)
REMARK    1  A    between atoms: O1_2  and  C2_3 
REMARK    2  A    between atoms: C2_3  and  C3_4 
REMARK    3  A    between atoms: C3_4  and  N1_5 
REMARK    4  A    between atoms: C3_4  and  C15_26 
REMARK       I    between atoms: N1_5  and  C4_6 
REMARK       I    between atoms: C4_6  and  N2_8 
REMARK    5  A    between atoms: N2_8  and  C5_9 
REMARK    6  A    between atoms: N5_16  and  C9_17 
ROOT
HETATM    1  C5  UNL     1      -3.036  49.061 -24.587  1.00  0.00     0.111 A 
HETATM    2  C6  UNL     1      -4.363  48.663 -24.486  1.00  0.00     0.080 A 
HETATM    3  C7  UNL     1      -4.986  48.359 -25.696  1.00  0.00     0.067 A 
HETATM    4  N3  UNL     1      -6.252  47.945 -25.997  1.00  0.00    -0.298 N 
HETATM    5  N4  UNL     1      -6.469  47.748 -27.305  1.00  0.00    -0.284 N 
ATOM      6  H4  UNL     1      -7.332  47.442 -27.756  1.00  0.00     0.188 HD
HETATM    7  C8  UNL     1      -5.304  48.040 -27.885  1.00  0.00     0.130 A 
HETATM    8  N5  UNL     1      -5.038  47.975 -29.208  1.00  0.00    -0.368 N 
HETATM    9  C13 UNL     1      -4.334  48.440 -26.919  1.00  0.00     0.052 A 
HETATM   10  C14 UNL     1      -3.001  48.850 -26.927  1.00  0.00     0.107 A 
HETATM   11  N6  UNL     1      -2.369  49.156 -25.762  1.00  0.00    -0.351 N 
ATOM     12  H6  UNL     1      -1.395  49.456 -25.774  1.00  0.00     0.166 HD
HETATM   13  H10 UNL     1      -7.018  47.779 -25.353  1.00  0.00     0.187 HD
HETATM   14  H11 UNL     1      -4.103  48.162 -29.549  1.00  0.00     0.161 HD
ENDROOT
BRANCH   1  15
HETATM   15  N2  UNL     1      -2.245  49.394 -23.488  1.00  0.00    -0.295 N 
HETATM   16  C4  UNL     1      -1.647  50.591 -23.199  1.00  0.00     0.322 C 
HETATM   17  N1  UNL     1      -0.974  50.527 -21.996  1.00  0.00    -0.332 N 
HETATM   18  O2  UNL     1      -1.668  51.598 -23.891  1.00  0.00    -0.247 OA
HETATM   19  H7  UNL     1      -1.413  49.925 -21.316  1.00  0.00     0.165 HD
HETATM   20  H8  UNL     1      -2.050  48.601 -22.899  1.00  0.00     0.172 HD
BRANCH  17  21
HETATM   21  C3  UNL     1      -0.350  51.723 -21.428  1.00  0.00     0.143 C 
BRANCH  21  22
HETATM   22  C2  UNL     1       0.964  52.130 -22.139  1.00  0.00     0.197 C 
BRANCH  22  23
HETATM   23  O1  UNL     1       0.819  53.433 -22.725  1.00  0.00    -0.394 OA
HETATM   24  C1  UNL     1       1.444  54.432 -21.934  1.00  0.00     0.201 C 
ENDBRANCH  22  23
ENDBRANCH  21  22
BRANCH  21  25
HETATM   25  C15 UNL     1      -0.120  51.497 -19.937  1.00  0.00    -0.033 A 
HETATM   26  C16 UNL     1      -0.491  50.292 -19.315  1.00  0.00     0.009 A 
HETATM   27  C17 UNL     1      -0.280  50.104 -17.948  1.00  0.00     0.001 A 
HETATM   28  C18 UNL     1       0.304  51.113 -17.186  1.00  0.00     0.000 A 
HETATM   29  C19 UNL     1       0.682  52.311 -17.791  1.00  0.00     0.001 A 
HETATM   30  C20 UNL     1       0.472  52.503 -19.157  1.00  0.00     0.009 A 
ENDBRANCH  21  25
ENDBRANCH  17  21
ENDBRANCH   1  15
BRANCH   8  31
HETATM   31  C9  UNL     1      -5.965  47.513 -30.229  1.00  0.00     0.109 C 
HETATM   32  C10 UNL     1      -5.331  46.798 -31.398  1.00  0.00     0.053 C 
HETATM   33  C11 UNL     1      -6.453  46.819 -32.418  1.00  0.00     0.169 C 
HETATM   34  O3  UNL     1      -7.287  47.957 -32.138  1.00  0.00    -0.389 OA
HETATM   35  C12 UNL     1      -6.815  48.567 -30.920  1.00  0.00     0.192 C 
ENDBRANCH   8  31
TORSDOF 6
ENDMDL
MODEL 8
REMARK minimizedAffinity -8.08502293
REMARK  6 active torsions:
REMARK  status: ('A' for Active; 'I' for Inactive)
REMARK    1  A    between atoms: O1_2  and  C2_3 
REMARK    2  A    between atoms: C2_3  and  C3_4 
REMARK    3  A    between atoms: C3_4  and  N1_5 
REMARK    4  A    between atoms: C3_4  and  C15_26 
REMARK       I    between atoms: N1_5  and  C4_6 
REMARK       I    between atoms: C4_6  and  N2_8 
REMARK    5  A    between atoms: N2_8  and  C5_9 
REMARK    6  A    between atoms: N5_16  and  C9_17 
ROOT
HETATM    1  C5  UNL     1      -2.945  50.514 -27.216  1.00  0.00     0.111 A 
HETATM    2  C6  UNL     1      -1.593  50.712 -27.467  1.00  0.00     0.080 A 
HETATM    3  C7  UNL     1      -0.856  51.204 -26.391  1.00  0.00     0.067 A 
HETATM    4  N3  UNL     1       0.466  51.522 -26.254  1.00  0.00    -0.298 N 
HETATM    5  N4  UNL     1       0.800  51.967 -25.034  1.00  0.00    -0.284 N 
ATOM      6  H4  UNL     1       1.720  52.260 -24.708  1.00  0.00     0.188 HD
HETATM    7  C8  UNL     1      -0.341  51.939 -24.344  1.00  0.00     0.130 A 
HETATM    8  N5  UNL     1      -0.494  52.293 -23.049  1.00  0.00    -0.368 N 
HETATM    9  C13 UNL     1      -1.420  51.475 -25.152  1.00  0.00     0.052 A 
HETATM   10  C14 UNL     1      -2.787  51.247 -24.990  1.00  0.00     0.107 A 
HETATM   11  N6  UNL     1      -3.532  50.771 -26.022  1.00  0.00    -0.351 N 
ATOM     12  H6  UNL     1      -4.531  50.608 -25.898  1.00  0.00     0.166 HD
HETATM   13  H10 UNL     1       1.193  51.457 -26.958  1.00  0.00     0.187 HD
HETATM   14  H11 UNL     1      -1.392  52.184 -22.594  1.00  0.00     0.161 HD
ENDROOT
BRANCH   1  15
HETATM   15  N2  UNL     1      -3.841  50.019 -28.163  1.00  0.00    -0.295 N 
HETATM   16  C4  UNL     1      -4.653  48.920 -28.077  1.00  0.00     0.322 C 
HETATM   17  N1  UNL     1      -5.419  48.783 -29.216  1.00  0.00    -0.332 N 
HETATM   18  O2  UNL     1      -4.711  48.132 -27.144  1.00  0.00    -0.247 OA
HETATM   19  H7  UNL     1      -5.684  49.662 -29.636  1.00  0.00     0.165 HD
HETATM   20  H8  UNL     1      -3.794  50.518 -29.036  1.00  0.00     0.172 HD
BRANCH  17  21
HETATM   21  C3  UNL     1      -6.444  47.741 -29.304  1.00  0.00     0.143 C 
BRANCH  21  22
HETATM   22  C2  UNL     1      -6.775  47.089 -27.939  1.00  0.00     0.197 C 
BRANCH  22  23
HETATM   23  O1  UNL     1      -7.945  47.702 -27.376  1.00  0.00    -0.394 OA
HETATM   24  C1  UNL     1      -8.841  48.140 -28.387  1.00  0.00     0.201 C 
ENDBRANCH  22  23
ENDBRANCH  21  22
BRANCH  21  25
HETATM   25  C15 UNL     1      -5.996  46.694 -30.318  1.00  0.00    -0.033 A 
HETATM   26  C16 UNL     1      -6.615  45.434 -30.391  1.00  0.00     0.009 A 
HETATM   27  C17 UNL     1      -6.187  44.484 -31.320  1.00  0.00     0.001 A 
HETATM   28  C18 UNL     1      -5.138  44.780 -32.187  1.00  0.00     0.000 A 
HETATM   29  C19 UNL     1      -4.518  46.027 -32.130  1.00  0.00     0.001 A 
HETATM   30  C20 UNL     1      -4.943  46.979 -31.202  1.00  0.00     0.009 A 
ENDBRANCH  21  25
ENDBRANCH  17  21
ENDBRANCH   1  15
BRANCH   8  31
HETATM   31  C9  UNL     1       0.580  52.711 -22.161  1.00  0.00     0.109 C 
HETATM   32  C10 UNL     1       0.251  52.665 -20.688  1.00  0.00     0.053 C 
HETATM   33  C11 UNL     1       1.364  53.509 -20.097  1.00  0.00     0.169 C 
HETATM   34  O3  UNL     1       1.800  54.437 -21.105  1.00  0.00    -0.389 OA
HETATM   35  C12 UNL     1       1.106  54.128 -22.329  1.00  0.00     0.192 C 
ENDBRANCH   8  31
TORSDOF 6
ENDMDL
MODEL 9
REMARK minimizedAffinity -7.96204519
REMARK  6 active torsions:
REMARK  status: ('A' for Active; 'I' for Inactive)
REMARK    1  A    between atoms: O1_2  and  C2_3 
REMARK    2  A    between atoms: C2_3  and  C3_4 
REMARK    3  A    between atoms: C3_4  and  N1_5 
REMARK    4  A    between atoms: C3_4  and  C15_26 
REMARK       I    between atoms: N1_5  and  C4_6 
REMARK       I    between atoms: C4_6  and  N2_8 
REMARK    5  A    between atoms: N2_8  and  C5_9 
REMARK    6  A    between atoms: N5_16  and  C9_17 
ROOT
HETATM    1  C5  UNL     1      -3.802  48.823 -26.434  1.00  0.00     0.111 A 
HETATM    2  C6  UNL     1      -3.817  48.597 -27.805  1.00  0.00     0.080 A 
HETATM    3  C7  UNL     1      -5.015  48.093 -28.309  1.00  0.00     0.067 A 
HETATM    4  N3  UNL     1      -5.405  47.748 -29.572  1.00  0.00    -0.298 N 
HETATM    5  N4  UNL     1      -6.666  47.300 -29.655  1.00  0.00    -0.284 N 
ATOM      6  H4  UNL     1      -7.165  46.988 -30.488  1.00  0.00     0.188 HD
HETATM    7  C8  UNL     1      -7.122  47.353 -28.403  1.00  0.00     0.130 A 
HETATM    8  N5  UNL     1      -8.363  47.006 -27.994  1.00  0.00    -0.368 N 
HETATM    9  C13 UNL     1      -6.121  47.837 -27.510  1.00  0.00     0.052 A 
HETATM   10  C14 UNL     1      -6.016  48.093 -26.143  1.00  0.00     0.107 A 
HETATM   11  N6  UNL     1      -4.859  48.582 -25.622  1.00  0.00    -0.351 N 
ATOM     12  H6  UNL     1      -4.787  48.766 -24.622  1.00  0.00     0.166 HD
HETATM   13  H10 UNL     1      -4.856  47.796 -30.424  1.00  0.00     0.187 HD
HETATM   14  H11 UNL     1      -8.636  47.135 -27.027  1.00  0.00     0.161 HD
ENDROOT
BRANCH   1  15
HETATM   15  N2  UNL     1      -2.700  49.334 -25.749  1.00  0.00    -0.295 N 
HETATM   16  C4  UNL     1      -2.251  50.627 -25.698  1.00  0.00     0.322 C 
HETATM   17  N1  UNL     1      -1.144  50.732 -24.882  1.00  0.00    -0.332 N 
HETATM   18  O2  UNL     1      -2.728  51.584 -26.291  1.00  0.00    -0.247 OA
HETATM   19  H7  UNL     1      -1.155  50.095 -24.099  1.00  0.00     0.165 HD
HETATM   20  H8  UNL     1      -2.147  48.613 -25.316  1.00  0.00     0.172 HD
BRANCH  17  21
HETATM   21  C3  UNL     1      -0.559  52.041 -24.586  1.00  0.00     0.143 C 
BRANCH  21  22
HETATM   22  C2  UNL     1       0.698  52.358 -25.434  1.00  0.00     0.197 C 
BRANCH  22  23
HETATM   23  O1  UNL     1       0.579  53.666 -26.012  1.00  0.00    -0.394 OA
HETATM   24  C1  UNL     1      -0.064  53.620 -27.277  1.00  0.00     0.201 C 
ENDBRANCH  22  23
ENDBRANCH  21  22
BRANCH  21  25
HETATM   25  C15 UNL     1      -0.248  52.115 -23.095  1.00  0.00    -0.033 A 
HETATM   26  C16 UNL     1       0.685  53.035 -22.587  1.00  0.00     0.009 A 
HETATM   27  C17 UNL     1       0.964  53.085 -21.220  1.00  0.00     0.001 A 
HETATM   28  C18 UNL     1       0.315  52.217 -20.344  1.00  0.00     0.000 A 
HETATM   29  C19 UNL     1      -0.616  51.303 -20.832  1.00  0.00     0.001 A 
HETATM   30  C20 UNL     1      -0.897  51.251 -22.199  1.00  0.00     0.009 A 
ENDBRANCH  21  25
ENDBRANCH  17  21
ENDBRANCH   1  15
BRANCH   8  31
HETATM   31  C9  UNL     1      -9.441  46.568 -28.867  1.00  0.00     0.109 C 
HETATM   32  C10 UNL     1     -10.235  47.678 -29.513  1.00  0.00     0.053 C 
HETATM   33  C11 UNL     1     -11.468  46.936 -29.993  1.00  0.00     0.169 C 
HETATM   34  O3  UNL     1     -11.656  45.792 -29.142  1.00  0.00    -0.389 OA
HETATM   35  C12 UNL     1     -10.533  45.714 -28.243  1.00  0.00     0.192 C 
ENDBRANCH   8  31
TORSDOF 6
ENDMDL
