MODEL 1
REMARK minimizedAffinity -8.90188789
REMARK  5 active torsions:
REMARK  status: ('A' for Active; 'I' for Inactive)
REMARK    1  A    between atoms: C2_2  and  N1_3 
REMARK    2  A    between atoms: C2_2  and  C14_24 
REMARK       I    between atoms: N1_3  and  C3_4 
REMARK       I    between atoms: C3_4  and  N2_6 
REMARK    3  A    between atoms: N2_6  and  C4_7 
REMARK    4  A    between atoms: N5_14  and  C8_15 
REMARK    5  A    between atoms: C10_17  and  N6_18 
ROOT
HETATM    1  C4  UNL     1      -3.293  48.716 -24.336  1.00  0.00     0.111 A 
HETATM    2  C5  UNL     1      -4.663  48.487 -24.358  1.00  0.00     0.080 A 
HETATM    3  C6  UNL     1      -5.210  48.283 -25.625  1.00  0.00     0.067 A 
HETATM    4  N3  UNL     1      -6.486  48.029 -26.040  1.00  0.00    -0.298 N 
HETATM    5  N4  UNL     1      -6.614  47.893 -27.369  1.00  0.00    -0.284 N 
ATOM      6  H4  UNL     1      -7.466  47.705 -27.899  1.00  0.00     0.188 HD
HETATM    7  C7  UNL     1      -5.376  48.061 -27.839  1.00  0.00     0.130 A 
HETATM    8  N5  UNL     1      -5.022  48.009 -29.146  1.00  0.00    -0.370 N 
HETATM    9  C12 UNL     1      -4.451  48.309 -26.786  1.00  0.00     0.052 A 
HETATM   10  C13 UNL     1      -3.081  48.549 -26.669  1.00  0.00     0.107 A 
HETATM   11  N7  UNL     1      -2.521  48.752 -25.448  1.00  0.00    -0.351 N 
ATOM     12  H7  UNL     1      -1.520  48.931 -25.369  1.00  0.00     0.166 HD
HETATM   13  H8  UNL     1      -7.316  47.932 -25.465  1.00  0.00     0.187 HD
HETATM   14  H9  UNL     1      -4.105  48.348 -29.414  1.00  0.00     0.161 HD
ENDROOT
BRANCH   1  15
HETATM   15  N2  UNL     1      -2.569  48.942 -23.166  1.00  0.00    -0.295 N 
HETATM   16  C3  UNL     1      -2.699  49.968 -22.269  1.00  0.00     0.322 C 
HETATM   17  N1  UNL     1      -1.781  49.858 -21.249  1.00  0.00    -0.335 N 
HETATM   18  O1  UNL     1      -3.518  50.877 -22.319  1.00  0.00    -0.247 OA
HETATM   19  H5  UNL     1      -0.961  49.296 -21.415  1.00  0.00     0.165 HD
HETATM   20  H6  UNL     1      -1.963  48.172 -22.933  1.00  0.00     0.172 HD
BRANCH  17  21
HETATM   21  C2  UNL     1      -1.690  50.850 -20.190  1.00  0.00     0.115 C 
HETATM   22  C1  UNL     1      -3.066  51.444 -19.867  1.00  0.00     0.037 C 
BRANCH  21  23
HETATM   23  C14 UNL     1      -0.641  51.879 -20.578  1.00  0.00    -0.036 A 
HETATM   24  C15 UNL     1      -0.234  51.958 -21.921  1.00  0.00     0.009 A 
HETATM   25  C16 UNL     1       0.707  52.904 -22.333  1.00  0.00     0.001 A 
HETATM   26  C17 UNL     1       1.249  53.793 -21.410  1.00  0.00     0.000 A 
HETATM   27  C18 UNL     1       0.845  53.741 -20.078  1.00  0.00     0.001 A 
HETATM   28  C19 UNL     1      -0.098  52.796 -19.665  1.00  0.00     0.009 A 
ENDBRANCH  21  23
ENDBRANCH  17  21
ENDBRANCH   1  15
BRANCH   8  29
HETATM   29  C8  UNL     1      -5.986  47.974 -30.213  1.00  0.00     0.087 C 
HETATM   30  C9  UNL     1      -5.353  48.205 -31.607  1.00  0.00     0.060 C 
HETATM   31  C10 UNL     1      -5.215  46.674 -31.737  1.00  0.00     0.221 C 
HETATM   32  C11 UNL     1      -6.317  46.532 -30.667  1.00  0.00     0.060 C 
BRANCH  31  33
HETATM   33  N6  UNL     1      -5.724  46.238 -33.031  1.00  0.00     0.083 N 
HETATM   34  H14 UNL     1      -6.596  46.677 -33.324  1.00  0.00     0.313 HD
HETATM   35  H15 UNL     1      -5.880  45.232 -33.097  1.00  0.00     0.313 HD
ENDBRANCH  31  33
ENDBRANCH   8  29
TORSDOF 5
ENDMDL
MODEL 2
REMARK minimizedAffinity -8.79788494
REMARK  5 active torsions:
REMARK  status: ('A' for Active; 'I' for Inactive)
REMARK    1  A    between atoms: C2_2  and  N1_3 
REMARK    2  A    between atoms: C2_2  and  C14_24 
REMARK       I    between atoms: N1_3  and  C3_4 
REMARK       I    between atoms: C3_4  and  N2_6 
REMARK    3  A    between atoms: N2_6  and  C4_7 
REMARK    4  A    between atoms: N5_14  and  C8_15 
REMARK    5  A    between atoms: C10_17  and  N6_18 
ROOT
HETATM    1  C4  UNL     1      -0.276  52.291 -20.601  1.00  0.00     0.111 A 
HETATM    2  C5  UNL     1       0.549  53.075 -19.805  1.00  0.00     0.080 A 
HETATM    3  C6  UNL     1       0.727  52.615 -18.501  1.00  0.00     0.067 A 
HETATM    4  N3  UNL     1       1.452  53.100 -17.451  1.00  0.00    -0.298 N 
HETATM    5  N4  UNL     1       1.366  52.360 -16.334  1.00  0.00    -0.284 N 
ATOM      6  H4  UNL     1       1.816  52.529 -15.435  1.00  0.00     0.188 HD
HETATM    7  C7  UNL     1       0.556  51.351 -16.669  1.00  0.00     0.130 A 
HETATM    8  N5  UNL     1       0.180  50.344 -15.844  1.00  0.00    -0.370 N 
HETATM    9  C12 UNL     1       0.124  51.460 -18.021  1.00  0.00     0.052 A 
HETATM   10  C13 UNL     1      -0.691  50.735 -18.891  1.00  0.00     0.107 A 
HETATM   11  N7  UNL     1      -0.884  51.161 -20.167  1.00  0.00    -0.351 N 
ATOM     12  H7  UNL     1      -1.484  50.629 -20.797  1.00  0.00     0.166 HD
HETATM   13  H8  UNL     1       2.032  53.931 -17.430  1.00  0.00     0.187 HD
HETATM   14  H9  UNL     1      -0.588  49.748 -16.127  1.00  0.00     0.161 HD
ENDROOT
BRANCH   1  15
HETATM   15  N2  UNL     1      -0.574  52.590 -21.931  1.00  0.00    -0.295 N 
HETATM   16  C3  UNL     1      -0.843  51.725 -22.958  1.00  0.00     0.322 C 
HETATM   17  N1  UNL     1      -1.065  52.404 -24.134  1.00  0.00    -0.335 N 
HETATM   18  O1  UNL     1      -0.901  50.504 -22.883  1.00  0.00    -0.247 OA
HETATM   19  H5  UNL     1      -0.709  53.344 -24.208  1.00  0.00     0.165 HD
HETATM   20  H6  UNL     1      -0.709  53.576 -22.082  1.00  0.00     0.172 HD
BRANCH  17  21
HETATM   21  C2  UNL     1      -1.332  51.707 -25.382  1.00  0.00     0.115 C 
HETATM   22  C1  UNL     1      -1.971  50.338 -25.126  1.00  0.00     0.037 C 
BRANCH  21  23
HETATM   23  C14 UNL     1      -0.047  51.655 -26.193  1.00  0.00    -0.036 A 
HETATM   24  C15 UNL     1      -0.131  51.675 -27.596  1.00  0.00     0.009 A 
HETATM   25  C16 UNL     1       1.020  51.656 -28.386  1.00  0.00     0.001 A 
HETATM   26  C17 UNL     1       2.275  51.627 -27.784  1.00  0.00     0.000 A 
HETATM   27  C18 UNL     1       2.378  51.624 -26.395  1.00  0.00     0.001 A 
HETATM   28  C19 UNL     1       1.227  51.644 -25.604  1.00  0.00     0.009 A 
ENDBRANCH  21  23
ENDBRANCH  17  21
ENDBRANCH   1  15
BRANCH   8  29
HETATM   29  C8  UNL     1       0.443  50.357 -14.430  1.00  0.00     0.087 C 
HETATM   30  C9  UNL     1       1.933  50.099 -14.091  1.00  0.00     0.060 C 
HETATM   31  C10 UNL     1       2.142  51.628 -14.103  1.00  0.00     0.221 C 
HETATM   32  C11 UNL     1       0.625  51.790 -13.873  1.00  0.00     0.060 C 
BRANCH  31  33
HETATM   33  N6  UNL     1       2.869  52.038 -12.907  1.00  0.00     0.083 N 
HETATM   34  H14 UNL     1       2.567  51.592 -12.042  1.00  0.00     0.313 HD
HETATM   35  H15 UNL     1       2.841  53.042 -12.730  1.00  0.00     0.313 HD
ENDBRANCH  31  33
ENDBRANCH   8  29
TORSDOF 5
ENDMDL
MODEL 3
REMARK minimizedAffinity -8.76925087
REMARK  5 active torsions:
REMARK  status: ('A' for Active; 'I' for Inactive)
REMARK    1  A    between atoms: C2_2  and  N1_3 
REMARK    2  A    between atoms: C2_2  and  C14_24 
REMARK       I    between atoms: N1_3  and  C3_4 
REMARK       I    between atoms: C3_4  and  N2_6 
REMARK    3  A    between atoms: N2_6  and  C4_7 
REMARK    4  A    between atoms: N5_14  and  C8_15 
REMARK    5  A    between atoms: C10_17  and  N6_18 
ROOT
HETATM    1  C4  UNL     1       0.815  52.980 -19.616  1.00  0.00     0.111 A 
HETATM    2  C5  UNL     1       1.311  53.983 -20.440  1.00  0.00     0.080 A 
HETATM    3  C6  UNL     1       1.077  53.801 -21.802  1.00  0.00     0.067 A 
HETATM    4  N3  UNL     1       1.400  54.556 -22.894  1.00  0.00    -0.298 N 
HETATM    5  N4  UNL     1       0.995  54.033 -24.062  1.00  0.00    -0.284 N 
ATOM      6  H4  UNL     1       1.126  54.417 -24.998  1.00  0.00     0.188 HD
HETATM    7  C7  UNL     1       0.383  52.896 -23.720  1.00  0.00     0.130 A 
HETATM    8  N5  UNL     1      -0.190  52.026 -24.587  1.00  0.00    -0.370 N 
HETATM    9  C12 UNL     1       0.404  52.700 -22.311  1.00  0.00     0.052 A 
HETATM   10  C13 UNL     1      -0.058  51.739 -21.410  1.00  0.00     0.107 A 
HETATM   11  N7  UNL     1       0.156  51.890 -20.076  1.00  0.00    -0.351 N 
ATOM     12  H7  UNL     1      -0.180  51.182 -19.423  1.00  0.00     0.166 HD
HETATM   13  H8  UNL     1       1.892  55.442 -22.910  1.00  0.00     0.187 HD
HETATM   14  H9  UNL     1      -0.446  51.105 -24.251  1.00  0.00     0.161 HD
ENDROOT
BRANCH   1  15
HETATM   15  N2  UNL     1       0.951  52.985 -18.228  1.00  0.00    -0.295 N 
HETATM   16  C3  UNL     1       0.694  51.972 -17.344  1.00  0.00     0.322 C 
HETATM   17  N1  UNL     1       0.927  52.371 -16.048  1.00  0.00    -0.335 N 
HETATM   18  O1  UNL     1       0.318  50.841 -17.624  1.00  0.00    -0.247 OA
HETATM   19  H5  UNL     1       0.930  53.361 -15.854  1.00  0.00     0.165 HD
HETATM   20  H6  UNL     1       1.404  53.818 -17.889  1.00  0.00     0.172 HD
BRANCH  17  21
HETATM   21  C2  UNL     1       0.688  51.487 -14.919  1.00  0.00     0.115 C 
HETATM   22  C1  UNL     1      -0.049  52.216 -13.790  1.00  0.00     0.037 C 
BRANCH  21  23
HETATM   23  C14 UNL     1       2.011  50.864 -14.502  1.00  0.00    -0.036 A 
HETATM   24  C15 UNL     1       2.001  49.597 -13.894  1.00  0.00     0.009 A 
HETATM   25  C16 UNL     1       3.191  48.971 -13.517  1.00  0.00     0.001 A 
HETATM   26  C17 UNL     1       4.411  49.599 -13.751  1.00  0.00     0.000 A 
HETATM   27  C18 UNL     1       4.441  50.847 -14.368  1.00  0.00     0.001 A 
HETATM   28  C19 UNL     1       3.251  51.474 -14.746  1.00  0.00     0.009 A 
ENDBRANCH  21  23
ENDBRANCH  17  21
ENDBRANCH   1  15
BRANCH   8  29
HETATM   29  C8  UNL     1      -0.021  52.121 -26.012  1.00  0.00     0.087 C 
HETATM   30  C9  UNL     1       1.229  52.943 -26.418  1.00  0.00     0.060 C 
HETATM   31  C10 UNL     1       2.020  51.618 -26.453  1.00  0.00     0.221 C 
HETATM   32  C11 UNL     1       0.677  50.876 -26.611  1.00  0.00     0.060 C 
BRANCH  31  33
HETATM   33  N6  UNL     1       2.782  51.529 -27.692  1.00  0.00     0.083 N 
HETATM   34  H14 UNL     1       2.283  51.823 -28.530  1.00  0.00     0.313 HD
HETATM   35  H15 UNL     1       3.139  50.595 -27.891  1.00  0.00     0.313 HD
ENDBRANCH  31  33
ENDBRANCH   8  29
TORSDOF 5
ENDMDL
MODEL 4
REMARK minimizedAffinity -8.76131821
REMARK  5 active torsions:
REMARK  status: ('A' for Active; 'I' for Inactive)
REMARK    1  A    between atoms: C2_2  and  N1_3 
REMARK    2  A    between atoms: C2_2  and  C14_24 
REMARK       I    between atoms: N1_3  and  C3_4 
REMARK       I    between atoms: C3_4  and  N2_6 
REMARK    3  A    between atoms: N2_6  and  C4_7 
REMARK    4  A    between atoms: N5_14  and  C8_15 
REMARK    5  A    between atoms: C10_17  and  N6_18 
ROOT
HETATM    1  C4  UNL     1       0.114  52.553 -20.327  1.00  0.00     0.111 A 
HETATM    2  C5  UNL     1       1.136  53.170 -19.616  1.00  0.00     0.080 A 
HETATM    3  C6  UNL     1       1.239  52.793 -18.278  1.00  0.00     0.067 A 
HETATM    4  N3  UNL     1       2.099  53.168 -17.286  1.00  0.00    -0.298 N 
HETATM    5  N4  UNL     1       1.870  52.571 -16.106  1.00  0.00    -0.284 N 
ATOM      6  H4  UNL     1       2.380  52.698 -15.231  1.00  0.00     0.188 HD
HETATM    7  C7  UNL     1       0.824  51.774 -16.337  1.00  0.00     0.130 A 
HETATM    8  N5  UNL     1       0.238  50.968 -15.418  1.00  0.00    -0.370 N 
HETATM    9  C12 UNL     1       0.385  51.872 -17.687  1.00  0.00     0.052 A 
HETATM   10  C13 UNL     1      -0.615  51.304 -18.477  1.00  0.00     0.107 A 
HETATM   11  N7  UNL     1      -0.740  51.653 -19.784  1.00  0.00    -0.351 N 
ATOM     12  H7  UNL     1      -1.476  51.238 -20.355  1.00  0.00     0.166 HD
HETATM   13  H8  UNL     1       2.868  53.826 -17.349  1.00  0.00     0.187 HD
HETATM   14  H9  UNL     1      -0.664  50.562 -15.636  1.00  0.00     0.161 HD
ENDROOT
BRANCH   1  15
HETATM   15  N2  UNL     1      -0.147  52.803 -21.675  1.00  0.00    -0.295 N 
HETATM   16  C3  UNL     1      -0.616  51.937 -22.625  1.00  0.00     0.322 C 
HETATM   17  N1  UNL     1      -0.719  52.552 -23.852  1.00  0.00    -0.335 N 
HETATM   18  O1  UNL     1      -0.928  50.766 -22.451  1.00  0.00    -0.247 OA
HETATM   19  H5  UNL     1      -0.176  53.387 -24.006  1.00  0.00     0.165 HD
HETATM   20  H6  UNL     1      -0.075  53.780 -21.906  1.00  0.00     0.172 HD
BRANCH  17  21
HETATM   21  C2  UNL     1      -1.157  51.831 -25.037  1.00  0.00     0.115 C 
HETATM   22  C1  UNL     1      -1.726  50.456 -24.669  1.00  0.00     0.037 C 
BRANCH  21  23
HETATM   23  C14 UNL     1      -0.007  51.786 -26.030  1.00  0.00    -0.036 A 
HETATM   24  C15 UNL     1       1.306  51.676 -25.541  1.00  0.00     0.009 A 
HETATM   25  C16 UNL     1       2.394  51.604 -26.413  1.00  0.00     0.001 A 
HETATM   26  C17 UNL     1       2.185  51.632 -27.789  1.00  0.00     0.000 A 
HETATM   27  C18 UNL     1       0.890  51.724 -28.291  1.00  0.00     0.001 A 
HETATM   28  C19 UNL     1      -0.200  51.795 -27.420  1.00  0.00     0.009 A 
ENDBRANCH  21  23
ENDBRANCH  17  21
ENDBRANCH   1  15
BRANCH   8  29
HETATM   29  C8  UNL     1       0.546  51.035 -14.015  1.00  0.00     0.087 C 
HETATM   30  C9  UNL     1       0.155  52.390 -13.374  1.00  0.00     0.060 C 
HETATM   31  C10 UNL     1      -1.204  51.760 -13.005  1.00  0.00     0.221 C 
HETATM   32  C11 UNL     1      -0.543  50.373 -13.136  1.00  0.00     0.060 C 
BRANCH  31  33
HETATM   33  N6  UNL     1      -1.512  52.030 -11.606  1.00  0.00     0.083 N 
HETATM   34  H14 UNL     1      -0.730  51.920 -10.961  1.00  0.00     0.313 HD
HETATM   35  H15 UNL     1      -2.268  51.458 -11.231  1.00  0.00     0.313 HD
ENDBRANCH  31  33
ENDBRANCH   8  29
TORSDOF 5
ENDMDL
MODEL 5
REMARK minimizedAffinity -8.71877575
REMARK  5 active torsions:
REMARK  status: ('A' for Active; 'I' for Inactive)
REMARK    1  A    between atoms: C2_2  and  N1_3 
REMARK    2  A    between atoms: C2_2  and  C14_24 
REMARK       I    between atoms: N1_3  and  C3_4 
REMARK       I    between atoms: C3_4  and  N2_6 
REMARK    3  A    between atoms: N2_6  and  C4_7 
REMARK    4  A    between atoms: N5_14  and  C8_15 
REMARK    5  A    between atoms: C10_17  and  N6_18 
ROOT
HETATM    1  C4  UNL     1      -3.082  49.118 -24.604  1.00  0.00     0.111 A 
HETATM    2  C5  UNL     1      -4.411  48.722 -24.507  1.00  0.00     0.080 A 
HETATM    3  C6  UNL     1      -5.019  48.386 -25.716  1.00  0.00     0.067 A 
HETATM    4  N3  UNL     1      -6.279  47.956 -26.017  1.00  0.00    -0.298 N 
HETATM    5  N4  UNL     1      -6.487  47.736 -27.325  1.00  0.00    -0.284 N 
ATOM      6  H4  UNL     1      -7.344  47.417 -27.778  1.00  0.00     0.188 HD
HETATM    7  C7  UNL     1      -5.317  48.031 -27.899  1.00  0.00     0.130 A 
HETATM    8  N5  UNL     1      -5.057  47.954 -29.227  1.00  0.00    -0.370 N 
HETATM    9  C12 UNL     1      -4.356  48.445 -26.935  1.00  0.00     0.052 A 
HETATM   10  C13 UNL     1      -3.023  48.857 -26.937  1.00  0.00     0.107 A 
HETATM   11  N7  UNL     1      -2.405  49.191 -25.774  1.00  0.00    -0.351 N 
ATOM     12  H7  UNL     1      -1.432  49.496 -25.783  1.00  0.00     0.166 HD
HETATM   13  H8  UNL     1      -7.046  47.788 -25.376  1.00  0.00     0.187 HD
HETATM   14  H9  UNL     1      -4.213  48.388 -29.581  1.00  0.00     0.161 HD
ENDROOT
BRANCH   1  15
HETATM   15  N2  UNL     1      -2.308  49.493 -23.505  1.00  0.00    -0.295 N 
HETATM   16  C3  UNL     1      -1.855  50.740 -23.169  1.00  0.00     0.322 C 
HETATM   17  N1  UNL     1      -1.097  50.702 -22.021  1.00  0.00    -0.335 N 
HETATM   18  O1  UNL     1      -2.080  51.782 -23.772  1.00  0.00    -0.247 OA
HETATM   19  H5  UNL     1      -0.696  49.816 -21.753  1.00  0.00     0.165 HD
HETATM   20  H6  UNL     1      -2.187  48.741 -22.846  1.00  0.00     0.172 HD
BRANCH  17  21
HETATM   21  C2  UNL     1      -0.467  51.895 -21.479  1.00  0.00     0.115 C 
HETATM   22  C1  UNL     1       0.733  52.323 -22.331  1.00  0.00     0.037 C 
BRANCH  21  23
HETATM   23  C14 UNL     1      -0.138  51.647 -20.016  1.00  0.00    -0.036 A 
HETATM   24  C15 UNL     1       0.502  52.663 -19.284  1.00  0.00     0.009 A 
HETATM   25  C16 UNL     1       0.802  52.494 -17.931  1.00  0.00     0.001 A 
HETATM   26  C17 UNL     1       0.457  51.310 -17.285  1.00  0.00     0.000 A 
HETATM   27  C18 UNL     1      -0.193  50.300 -17.989  1.00  0.00     0.001 A 
HETATM   28  C19 UNL     1      -0.494  50.468 -19.343  1.00  0.00     0.009 A 
ENDBRANCH  21  23
ENDBRANCH  17  21
ENDBRANCH   1  15
BRANCH   8  29
HETATM   29  C8  UNL     1      -6.085  47.745 -30.211  1.00  0.00     0.087 C 
HETATM   30  C9  UNL     1      -5.611  48.050 -31.654  1.00  0.00     0.060 C 
HETATM   31  C10 UNL     1      -5.237  46.558 -31.786  1.00  0.00     0.221 C 
HETATM   32  C11 UNL     1      -6.213  46.260 -30.629  1.00  0.00     0.060 C 
BRANCH  31  33
HETATM   33  N6  UNL     1      -5.771  46.022 -33.032  1.00  0.00     0.083 N 
HETATM   34  H14 UNL     1      -6.723  46.310 -33.256  1.00  0.00     0.313 HD
HETATM   35  H15 UNL     1      -5.767  45.004 -33.079  1.00  0.00     0.313 HD
ENDBRANCH  31  33
ENDBRANCH   8  29
TORSDOF 5
ENDMDL
MODEL 6
REMARK minimizedAffinity -8.600667
REMARK  5 active torsions:
REMARK  status: ('A' for Active; 'I' for Inactive)
REMARK    1  A    between atoms: C2_2  and  N1_3 
REMARK    2  A    between atoms: C2_2  and  C14_24 
REMARK       I    between atoms: N1_3  and  C3_4 
REMARK       I    between atoms: C3_4  and  N2_6 
REMARK    3  A    between atoms: N2_6  and  C4_7 
REMARK    4  A    between atoms: N5_14  and  C8_15 
REMARK    5  A    between atoms: C10_17  and  N6_18 
ROOT
HETATM    1  C4  UNL     1       0.771  52.742 -18.928  1.00  0.00     0.111 A 
HETATM    2  C5  UNL     1      -0.098  51.743 -19.350  1.00  0.00     0.080 A 
HETATM    3  C6  UNL     1      -0.283  51.663 -20.730  1.00  0.00     0.067 A 
HETATM    4  N3  UNL     1      -1.038  50.828 -21.504  1.00  0.00    -0.298 N 
HETATM    5  N4  UNL     1      -0.953  51.074 -22.820  1.00  0.00    -0.284 N 
ATOM      6  H4  UNL     1      -1.426  50.584 -23.580  1.00  0.00     0.188 HD
HETATM    7  C7  UNL     1      -0.108  52.104 -22.910  1.00  0.00     0.130 A 
HETATM    8  N5  UNL     1       0.280  52.699 -24.064  1.00  0.00    -0.370 N 
HETATM    9  C12 UNL     1       0.345  52.516 -21.626  1.00  0.00     0.052 A 
HETATM   10  C13 UNL     1       1.200  53.493 -21.112  1.00  0.00     0.107 A 
HETATM   11  N7  UNL     1       1.399  53.595 -19.772  1.00  0.00    -0.351 N 
ATOM     12  H7  UNL     1       2.021  54.314 -19.402  1.00  0.00     0.166 HD
HETATM   13  H8  UNL     1      -1.632  50.066 -21.196  1.00  0.00     0.187 HD
HETATM   14  H9  UNL     1       0.757  53.591 -24.013  1.00  0.00     0.161 HD
ENDROOT
BRANCH   1  15
HETATM   15  N2  UNL     1       1.080  52.978 -17.588  1.00  0.00    -0.295 N 
HETATM   16  C3  UNL     1       1.163  52.076 -16.562  1.00  0.00     0.322 C 
HETATM   17  N1  UNL     1       1.470  52.700 -15.375  1.00  0.00    -0.335 N 
HETATM   18  O1  UNL     1       1.007  50.865 -16.646  1.00  0.00    -0.247 OA
HETATM   19  H5  UNL     1       1.284  53.688 -15.302  1.00  0.00     0.165 HD
HETATM   20  H6  UNL     1       1.383  53.925 -17.425  1.00  0.00     0.172 HD
BRANCH  17  21
HETATM   21  C2  UNL     1       1.575  51.962 -14.126  1.00  0.00     0.115 C 
HETATM   22  C1  UNL     1       2.010  50.513 -14.374  1.00  0.00     0.037 C 
BRANCH  21  23
HETATM   23  C14 UNL     1       0.264  52.100 -13.369  1.00  0.00    -0.036 A 
HETATM   24  C15 UNL     1       0.230  52.904 -12.216  1.00  0.00     0.009 A 
HETATM   25  C16 UNL     1      -0.956  53.085 -11.501  1.00  0.00     0.001 A 
HETATM   26  C17 UNL     1      -2.128  52.471 -11.933  1.00  0.00     0.000 A 
HETATM   27  C18 UNL     1      -2.117  51.685 -13.082  1.00  0.00     0.001 A 
HETATM   28  C19 UNL     1      -0.931  51.505 -13.799  1.00  0.00     0.009 A 
ENDBRANCH  21  23
ENDBRANCH  17  21
ENDBRANCH   1  15
BRANCH   8  29
HETATM   29  C8  UNL     1      -0.343  52.421 -25.331  1.00  0.00     0.087 C 
HETATM   30  C9  UNL     1       0.204  53.304 -26.480  1.00  0.00     0.060 C 
HETATM   31  C10 UNL     1       1.222  52.184 -26.781  1.00  0.00     0.221 C 
HETATM   32  C11 UNL     1       0.287  51.202 -26.047  1.00  0.00     0.060 C 
BRANCH  31  33
HETATM   33  N6  UNL     1       1.227  51.889 -28.208  1.00  0.00     0.083 N 
HETATM   34  H14 UNL     1       0.307  51.844 -28.645  1.00  0.00     0.313 HD
HETATM   35  H15 UNL     1       1.695  51.015 -28.448  1.00  0.00     0.313 HD
ENDBRANCH  31  33
ENDBRANCH   8  29
TORSDOF 5
ENDMDL
MODEL 7
REMARK minimizedAffinity -8.43513584
REMARK  5 active torsions:
REMARK  status: ('A' for Active; 'I' for Inactive)
REMARK    1  A    between atoms: C2_2  and  N1_3 
REMARK    2  A    between atoms: C2_2  and  C14_24 
REMARK       I    between atoms: N1_3  and  C3_4 
REMARK       I    between atoms: C3_4  and  N2_6 
REMARK    3  A    between atoms: N2_6  and  C4_7 
REMARK    4  A    between atoms: N5_14  and  C8_15 
REMARK    5  A    between atoms: C10_17  and  N6_18 
ROOT
HETATM    1  C4  UNL     1      -4.582  48.353 -27.037  1.00  0.00     0.111 A 
HETATM    2  C5  UNL     1      -4.602  48.238 -28.421  1.00  0.00     0.080 A 
HETATM    3  C6  UNL     1      -5.818  47.823 -28.965  1.00  0.00     0.067 A 
HETATM    4  N3  UNL     1      -6.216  47.606 -30.253  1.00  0.00    -0.298 N 
HETATM    5  N4  UNL     1      -7.490  47.201 -30.372  1.00  0.00    -0.284 N 
ATOM      6  H4  UNL     1      -7.999  46.978 -31.228  1.00  0.00     0.188 HD
HETATM    7  C7  UNL     1      -7.941  47.156 -29.116  1.00  0.00     0.130 A 
HETATM    8  N5  UNL     1      -9.195  46.794 -28.747  1.00  0.00    -0.370 N 
HETATM    9  C12 UNL     1      -6.932  47.538 -28.188  1.00  0.00     0.052 A 
HETATM   10  C13 UNL     1      -6.821  47.678 -26.804  1.00  0.00     0.107 A 
HETATM   11  N7  UNL     1      -5.648  48.080 -26.247  1.00  0.00    -0.351 N 
ATOM     12  H7  UNL     1      -5.571  48.177 -25.234  1.00  0.00     0.166 HD
HETATM   13  H8  UNL     1      -5.668  47.719 -31.098  1.00  0.00     0.187 HD
HETATM   14  H9  UNL     1      -9.375  46.599 -27.770  1.00  0.00     0.161 HD
ENDROOT
BRANCH   1  15
HETATM   15  N2  UNL     1      -3.459  48.752 -26.313  1.00  0.00    -0.295 N 
HETATM   16  C3  UNL     1      -2.982  50.020 -26.113  1.00  0.00     0.322 C 
HETATM   17  N1  UNL     1      -1.830  50.005 -25.360  1.00  0.00    -0.335 N 
HETATM   18  O1  UNL     1      -3.487  51.059 -26.518  1.00  0.00    -0.247 OA
HETATM   19  H5  UNL     1      -1.305  49.145 -25.322  1.00  0.00     0.165 HD
HETATM   20  H6  UNL     1      -3.043  47.993 -25.798  1.00  0.00     0.172 HD
BRANCH  17  21
HETATM   21  C2  UNL     1      -1.105  51.225 -25.044  1.00  0.00     0.115 C 
HETATM   22  C1  UNL     1      -2.050  52.431 -24.988  1.00  0.00     0.037 C 
BRANCH  21  23
HETATM   23  C14 UNL     1       0.044  51.377 -26.027  1.00  0.00    -0.036 A 
HETATM   24  C15 UNL     1      -0.250  51.590 -27.385  1.00  0.00     0.009 A 
HETATM   25  C16 UNL     1       0.769  51.762 -28.323  1.00  0.00     0.001 A 
HETATM   26  C17 UNL     1       2.100  51.733 -27.916  1.00  0.00     0.000 A 
HETATM   27  C18 UNL     1       2.410  51.540 -26.572  1.00  0.00     0.001 A 
HETATM   28  C19 UNL     1       1.391  51.369 -25.633  1.00  0.00     0.009 A 
ENDBRANCH  21  23
ENDBRANCH  17  21
ENDBRANCH   1  15
BRANCH   8  29
HETATM   29  C8  UNL     1     -10.136  46.207 -29.663  1.00  0.00     0.087 C 
HETATM   30  C9  UNL     1     -11.243  45.391 -28.950  1.00  0.00     0.060 C 
HETATM   31  C10 UNL     1     -12.106  46.669 -28.946  1.00  0.00     0.221 C 
HETATM   32  C11 UNL     1     -11.236  47.203 -30.103  1.00  0.00     0.060 C 
BRANCH  31  33
HETATM   33  N6  UNL     1     -13.445  46.365 -29.435  1.00  0.00     0.083 N 
HETATM   34  H14 UNL     1     -13.481  45.753 -30.249  1.00  0.00     0.313 HD
HETATM   35  H15 UNL     1     -13.993  47.189 -29.679  1.00  0.00     0.313 HD
ENDBRANCH  31  33
ENDBRANCH   8  29
TORSDOF 5
ENDMDL
MODEL 8
REMARK minimizedAffinity -8.35051537
REMARK  5 active torsions:
REMARK  status: ('A' for Active; 'I' for Inactive)
REMARK    1  A    between atoms: C2_2  and  N1_3 
REMARK    2  A    between atoms: C2_2  and  C14_24 
REMARK       I    between atoms: N1_3  and  C3_4 
REMARK       I    between atoms: C3_4  and  N2_6 
REMARK    3  A    between atoms: N2_6  and  C4_7 
REMARK    4  A    between atoms: N5_14  and  C8_15 
REMARK    5  A    between atoms: C10_17  and  N6_18 
ROOT
HETATM    1  C4  UNL     1      -3.620  49.443 -26.656  1.00  0.00     0.111 A 
HETATM    2  C5  UNL     1      -3.640  48.568 -25.576  1.00  0.00     0.080 A 
HETATM    3  C6  UNL     1      -2.914  48.986 -24.461  1.00  0.00     0.067 A 
HETATM    4  N3  UNL     1      -2.707  48.414 -23.239  1.00  0.00    -0.298 N 
HETATM    5  N4  UNL     1      -1.931  49.139 -22.418  1.00  0.00    -0.284 N 
ATOM      6  H4  UNL     1      -1.642  48.910 -21.466  1.00  0.00     0.188 HD
HETATM    7  C7  UNL     1      -1.623  50.226 -23.129  1.00  0.00     0.130 A 
HETATM    8  N5  UNL     1      -0.848  51.250 -22.697  1.00  0.00    -0.370 N 
HETATM    9  C12 UNL     1      -2.215  50.184 -24.423  1.00  0.00     0.052 A 
HETATM   10  C13 UNL     1      -2.249  51.000 -25.554  1.00  0.00     0.107 A 
HETATM   11  N7  UNL     1      -2.948  50.618 -26.656  1.00  0.00    -0.351 N 
ATOM     12  H7  UNL     1      -2.965  51.217 -27.482  1.00  0.00     0.166 HD
HETATM   13  H8  UNL     1      -3.070  47.530 -22.899  1.00  0.00     0.187 HD
HETATM   14  H9  UNL     1      -0.511  51.923 -23.375  1.00  0.00     0.161 HD
ENDROOT
BRANCH   1  15
HETATM   15  N2  UNL     1      -4.285  49.199 -27.858  1.00  0.00    -0.295 N 
HETATM   16  C3  UNL     1      -5.318  48.334 -28.098  1.00  0.00     0.322 C 
HETATM   17  N1  UNL     1      -5.688  48.356 -29.424  1.00  0.00    -0.335 N 
HETATM   18  O1  UNL     1      -5.879  47.625 -27.273  1.00  0.00    -0.247 OA
HETATM   19  H5  UNL     1      -5.018  48.704 -30.092  1.00  0.00     0.165 HD
HETATM   20  H6  UNL     1      -4.013  49.840 -28.585  1.00  0.00     0.172 HD
BRANCH  17  21
HETATM   21  C2  UNL     1      -6.739  47.495 -29.941  1.00  0.00     0.115 C 
HETATM   22  C1  UNL     1      -7.623  46.959 -28.809  1.00  0.00     0.037 C 
BRANCH  21  23
HETATM   23  C14 UNL     1      -6.102  46.415 -30.801  1.00  0.00    -0.036 A 
HETATM   24  C15 UNL     1      -4.915  46.714 -31.493  1.00  0.00     0.009 A 
HETATM   25  C16 UNL     1      -4.276  45.749 -32.275  1.00  0.00     0.001 A 
HETATM   26  C17 UNL     1      -4.810  44.466 -32.369  1.00  0.00     0.000 A 
HETATM   27  C18 UNL     1      -5.975  44.148 -31.676  1.00  0.00     0.001 A 
HETATM   28  C19 UNL     1      -6.614  45.112 -30.893  1.00  0.00     0.009 A 
ENDBRANCH  21  23
ENDBRANCH  17  21
ENDBRANCH   1  15
BRANCH   8  29
HETATM   29  C8  UNL     1      -0.083  51.186 -21.480  1.00  0.00     0.087 C 
HETATM   30  C9  UNL     1       1.117  52.167 -21.470  1.00  0.00     0.060 C 
HETATM   31  C10 UNL     1       0.195  53.200 -20.788  1.00  0.00     0.221 C 
HETATM   32  C11 UNL     1      -0.706  52.030 -20.342  1.00  0.00     0.060 C 
BRANCH  31  33
HETATM   33  N6  UNL     1       0.867  53.775 -19.629  1.00  0.00     0.083 N 
HETATM   34  H14 UNL     1       1.371  53.109 -19.046  1.00  0.00     0.313 HD
HETATM   35  H15 UNL     1       0.245  54.284 -19.002  1.00  0.00     0.313 HD
ENDBRANCH  31  33
ENDBRANCH   8  29
TORSDOF 5
ENDMDL
MODEL 9
REMARK minimizedAffinity -8.33849812
REMARK  5 active torsions:
REMARK  status: ('A' for Active; 'I' for Inactive)
REMARK    1  A    between atoms: C2_2  and  N1_3 
REMARK    2  A    between atoms: C2_2  and  C14_24 
REMARK       I    between atoms: N1_3  and  C3_4 
REMARK       I    between atoms: C3_4  and  N2_6 
REMARK    3  A    between atoms: N2_6  and  C4_7 
REMARK    4  A    between atoms: N5_14  and  C8_15 
REMARK    5  A    between atoms: C10_17  and  N6_18 
ROOT
HETATM    1  C4  UNL     1      -3.292  48.711 -23.807  1.00  0.00     0.111 A 
HETATM    2  C5  UNL     1      -2.823  48.685 -25.114  1.00  0.00     0.080 A 
HETATM    3  C6  UNL     1      -3.792  48.446 -26.088  1.00  0.00     0.067 A 
HETATM    4  N3  UNL     1      -3.718  48.355 -27.448  1.00  0.00    -0.298 N 
HETATM    5  N4  UNL     1      -4.893  48.106 -28.047  1.00  0.00    -0.284 N 
ATOM      6  H4  UNL     1      -5.077  47.996 -29.045  1.00  0.00     0.188 HD
HETATM    7  C7  UNL     1      -5.768  48.036 -27.040  1.00  0.00     0.130 A 
HETATM    8  N5  UNL     1      -7.095  47.797 -27.172  1.00  0.00    -0.370 N 
HETATM    9  C12 UNL     1      -5.131  48.242 -25.784  1.00  0.00     0.052 A 
HETATM   10  C13 UNL     1      -5.513  48.283 -24.443  1.00  0.00     0.107 A 
HETATM   11  N7  UNL     1      -4.590  48.514 -23.472  1.00  0.00    -0.351 N 
ATOM     12  H7  UNL     1      -4.874  48.538 -22.493  1.00  0.00     0.166 HD
HETATM   13  H8  UNL     1      -2.895  48.457 -28.032  1.00  0.00     0.187 HD
HETATM   14  H9  UNL     1      -7.631  47.564 -26.345  1.00  0.00     0.161 HD
ENDROOT
BRANCH   1  15
HETATM   15  N2  UNL     1      -2.474  48.935 -22.699  1.00  0.00    -0.295 N 
HETATM   16  C3  UNL     1      -2.535  49.955 -21.788  1.00  0.00     0.322 C 
HETATM   17  N1  UNL     1      -1.536  49.844 -20.849  1.00  0.00    -0.335 N 
HETATM   18  O1  UNL     1      -3.359  50.860 -21.765  1.00  0.00    -0.247 OA
HETATM   19  H5  UNL     1      -0.729  49.287 -21.085  1.00  0.00     0.165 HD
HETATM   20  H6  UNL     1      -1.849  48.166 -22.522  1.00  0.00     0.172 HD
BRANCH  17  21
HETATM   21  C2  UNL     1      -1.362  50.830 -19.795  1.00  0.00     0.115 C 
HETATM   22  C1  UNL     1      -2.714  51.356 -19.300  1.00  0.00     0.037 C 
BRANCH  21  23
HETATM   23  C14 UNL     1      -0.415  51.910 -20.292  1.00  0.00    -0.036 A 
HETATM   24  C15 UNL     1       0.123  51.796 -21.586  1.00  0.00     0.009 A 
HETATM   25  C16 UNL     1       0.975  52.775 -22.100  1.00  0.00     0.001 A 
HETATM   26  C17 UNL     1       1.296  53.890 -21.330  1.00  0.00     0.000 A 
HETATM   27  C18 UNL     1       0.759  54.029 -20.053  1.00  0.00     0.001 A 
HETATM   28  C19 UNL     1      -0.095  53.050 -19.539  1.00  0.00     0.009 A 
ENDBRANCH  21  23
ENDBRANCH  17  21
ENDBRANCH   1  15
BRANCH   8  29
HETATM   29  C8  UNL     1      -7.691  47.379 -28.413  1.00  0.00     0.087 C 
HETATM   30  C9  UNL     1      -9.089  46.739 -28.226  1.00  0.00     0.060 C 
HETATM   31  C10 UNL     1      -9.699  48.138 -28.453  1.00  0.00     0.221 C 
HETATM   32  C11 UNL     1      -8.388  48.542 -29.159  1.00  0.00     0.060 C 
BRANCH  31  33
HETATM   33  N6  UNL     1     -10.780  48.056 -29.427  1.00  0.00     0.083 N 
HETATM   34  H14 UNL     1     -10.589  47.468 -30.238  1.00  0.00     0.313 HD
HETATM   35  H15 UNL     1     -11.071  48.960 -29.798  1.00  0.00     0.313 HD
ENDBRANCH  31  33
ENDBRANCH   8  29
TORSDOF 5
ENDMDL
