MODEL 1
REMARK minimizedAffinity -9.42011833
REMARK CNNscore 0.725762129
REMARK CNNaffinity 7.29097891
REMARK  3 active torsions:
REMARK  status: ('A' for Active; 'I' for Inactive)
REMARK       I    between atoms: C1_2  and  N1_3 
REMARK       I    between atoms: C1_2  and  N6_23 
REMARK    1  A    between atoms: N1_3  and  C2_4 
REMARK    2  A    between atoms: N4_11  and  C6_12 
REMARK    3  A    between atoms: N6_23  and  C14_24 
ROOT
HETATM    1  C2  UNL     1       0.457  52.427 -19.256  1.00  0.00     0.111 A 
HETATM    2  C3  UNL     1       0.980  53.554 -19.889  1.00  0.00     0.080 A 
HETATM    3  C4  UNL     1       0.980  53.514 -21.284  1.00  0.00     0.067 A 
HETATM    4  N2  UNL     1       1.404  54.404 -22.228  1.00  0.00    -0.298 N 
HETATM    5  N3  UNL     1       1.253  53.980 -23.487  1.00  0.00    -0.284 N 
ATOM      6  H3  UNL     1       1.528  54.459 -24.345  1.00  0.00     0.188 HD
HETATM    7  C5  UNL     1       0.659  52.787 -23.371  1.00  0.00     0.134 A 
HETATM    8  N4  UNL     1       0.300  51.974 -24.396  1.00  0.00    -0.339 N 
HETATM    9  C12 UNL     1       0.486  52.433 -22.000  1.00  0.00     0.053 A 
HETATM   10  C13 UNL     1      -0.027  51.352 -21.285  1.00  0.00     0.107 A 
HETATM   11  N5  UNL     1      -0.014  51.361 -19.927  1.00  0.00    -0.351 N 
ATOM     12  H5  UNL     1      -0.365  50.553 -19.412  1.00  0.00     0.166 HD
HETATM   13  H3  UNL     1       1.818  55.318 -22.083  1.00  0.00     0.187 HD
HETATM   14  H4  UNL     1       0.146  50.987 -24.215  1.00  0.00     0.167 HD
ENDROOT
BRANCH   1  15
HETATM   15  N1  UNL     1       0.505  52.414 -17.857  1.00  0.00    -0.295 N 
HETATM   16  C1  UNL     1       0.188  51.342 -17.055  1.00  0.00     0.322 C 
HETATM   17  O1  UNL     1      -0.385  50.313 -17.379  1.00  0.00    -0.247 OA
HETATM   18  N6  UNL     1       0.597  51.588 -15.756  1.00  0.00    -0.334 N 
HETATM   19  H10 UNL     1       1.423  52.167 -15.681  1.00  0.00     0.165 HD
HETATM   20  H1  UNL     1       0.610  53.296 -17.387  1.00  0.00     0.172 HD
BRANCH  18  21
HETATM   21  C14 UNL     1       0.438  50.574 -14.718  1.00  0.00     0.122 C 
HETATM   22  C15 UNL     1      -0.910  50.720 -13.992  1.00  0.00     0.032 C 
HETATM   23  C16 UNL     1      -1.177  52.104 -13.398  1.00  0.00     0.029 C 
HETATM   24  C17 UNL     1       0.040  52.718 -12.727  1.00  0.00     0.175 C 
HETATM   25  O2  UNL     1       0.694  51.760 -11.900  1.00  0.00    -0.351 OA
HETATM   26  C18 UNL     1       1.720  51.102 -12.525  1.00  0.00     0.077 A 
HETATM   27  C19 UNL     1       2.871  50.958 -11.742  1.00  0.00     0.037 A 
HETATM   28  C23 UNL     1       1.664  50.558 -13.817  1.00  0.00    -0.002 A 
HETATM   29  C20 UNL     1       3.999  50.313 -12.250  1.00  0.00     0.003 A 
HETATM   30  C21 UNL     1       3.981  49.808 -13.544  1.00  0.00     0.001 A 
HETATM   31  C22 UNL     1       2.824  49.925 -14.317  1.00  0.00     0.012 A 
ENDBRANCH  18  21
ENDBRANCH   1  15
BRANCH   8  32
HETATM   32  C6  UNL     1       0.242  52.286 -25.776  1.00  0.00     0.055 A 
HETATM   33  C7  UNL     1      -0.869  53.015 -26.236  1.00  0.00     0.031 A 
HETATM   34  C8  UNL     1      -1.029  53.313 -27.591  1.00  0.00     0.002 A 
HETATM   35  C9  UNL     1      -0.079  52.885 -28.514  1.00  0.00     0.002 A 
HETATM   36  C10 UNL     1       1.037  52.173 -28.079  1.00  0.00     0.026 A 
HETATM   37  C11 UNL     1       1.203  51.879 -26.722  1.00  0.00     0.060 A 
HETATM   38 CL1  UNL     1       2.686  51.108 -26.271  1.00  0.00    -0.082 Cl
ENDBRANCH   8  32
TORSDOF 3
ENDMDL
MODEL 2
REMARK minimizedAffinity -8.57731628
REMARK CNNscore 0.438812494
REMARK CNNaffinity 7.22171354
REMARK  3 active torsions:
REMARK  status: ('A' for Active; 'I' for Inactive)
REMARK       I    between atoms: C1_2  and  N1_3 
REMARK       I    between atoms: C1_2  and  N6_23 
REMARK    1  A    between atoms: N1_3  and  C2_4 
REMARK    2  A    between atoms: N4_11  and  C6_12 
REMARK    3  A    between atoms: N6_23  and  C14_24 
ROOT
HETATM    1  C2  UNL     1       0.410  52.650 -19.709  1.00  0.00     0.111 A 
HETATM    2  C3  UNL     1      -0.293  51.651 -20.382  1.00  0.00     0.080 A 
HETATM    3  C4  UNL     1      -0.302  51.757 -21.773  1.00  0.00     0.067 A 
HETATM    4  N2  UNL     1      -0.873  50.991 -22.749  1.00  0.00    -0.298 N 
HETATM    5  N3  UNL     1      -0.670  51.445 -23.990  1.00  0.00    -0.284 N 
ATOM      6  H3  UNL     1      -1.028  51.057 -24.863  1.00  0.00     0.188 HD
HETATM    7  C5  UNL     1       0.107  52.522 -23.831  1.00  0.00     0.134 A 
HETATM    8  N4  UNL     1       0.579  53.316 -24.825  1.00  0.00    -0.339 N 
HETATM    9  C12 UNL     1       0.349  52.779 -22.449  1.00  0.00     0.053 A 
HETATM   10  C13 UNL     1       1.036  53.730 -21.696  1.00  0.00     0.107 A 
HETATM   11  N5  UNL     1       1.037  53.658 -20.339  1.00  0.00    -0.351 N 
ATOM     12  H5  UNL     1       1.518  54.376 -19.795  1.00  0.00     0.166 HD
HETATM   13  H3  UNL     1      -1.425  50.149 -22.637  1.00  0.00     0.187 HD
HETATM   14  H4  UNL     1       0.890  54.256 -24.603  1.00  0.00     0.167 HD
ENDROOT
BRANCH   1  15
HETATM   15  N1  UNL     1       0.381  52.604 -18.309  1.00  0.00    -0.295 N 
HETATM   16  C1  UNL     1       0.553  51.476 -17.542  1.00  0.00     0.322 C 
HETATM   17  O1  UNL     1       0.542  50.313 -17.914  1.00  0.00    -0.247 OA
HETATM   18  N6  UNL     1       0.729  51.832 -16.215  1.00  0.00    -0.334 N 
HETATM   19  H10 UNL     1       1.187  52.723 -16.079  1.00  0.00     0.165 HD
HETATM   20  H1  UNL     1       0.038  53.415 -17.825  1.00  0.00     0.172 HD
BRANCH  18  21
HETATM   21  C14 UNL     1       1.003  50.818 -15.200  1.00  0.00     0.122 C 
HETATM   22  C15 UNL     1      -0.123  49.773 -15.135  1.00  0.00     0.032 C 
HETATM   23  C16 UNL     1      -1.525  50.345 -14.919  1.00  0.00     0.029 C 
HETATM   24  C17 UNL     1      -1.567  51.472 -13.900  1.00  0.00     0.175 C 
HETATM   25  O2  UNL     1      -0.807  51.132 -12.743  1.00  0.00    -0.351 OA
HETATM   26  C18 UNL     1       0.484  51.588 -12.778  1.00  0.00     0.077 A 
HETATM   27  C19 UNL     1       0.927  52.146 -11.574  1.00  0.00     0.037 A 
HETATM   28  C23 UNL     1       1.348  51.488 -13.879  1.00  0.00    -0.002 A 
HETATM   29  C20 UNL     1       2.220  52.658 -11.463  1.00  0.00     0.003 A 
HETATM   30  C21 UNL     1       3.077  52.611 -12.555  1.00  0.00     0.001 A 
HETATM   31  C22 UNL     1       2.646  52.029 -13.749  1.00  0.00     0.012 A 
ENDBRANCH  18  21
ENDBRANCH   1  15
BRANCH   8  32
HETATM   32  C6  UNL     1       0.571  53.064 -26.218  1.00  0.00     0.055 A 
HETATM   33  C7  UNL     1      -0.309  53.819 -27.015  1.00  0.00     0.031 A 
HETATM   34  C8  UNL     1      -0.419  53.591 -28.388  1.00  0.00     0.002 A 
HETATM   35  C9  UNL     1       0.350  52.601 -28.992  1.00  0.00     0.002 A 
HETATM   36  C10 UNL     1       1.239  51.850 -28.226  1.00  0.00     0.026 A 
HETATM   37  C11 UNL     1       1.355  52.080 -26.851  1.00  0.00     0.060 A 
HETATM   38 CL1  UNL     1       2.581  51.187 -26.016  1.00  0.00    -0.082 Cl
ENDBRANCH   8  32
TORSDOF 3
ENDMDL
MODEL 3
REMARK minimizedAffinity -8.12770939
REMARK CNNscore 0.279981494
REMARK CNNaffinity 6.50922346
REMARK  3 active torsions:
REMARK  status: ('A' for Active; 'I' for Inactive)
REMARK       I    between atoms: C1_2  and  N1_3 
REMARK       I    between atoms: C1_2  and  N6_23 
REMARK    1  A    between atoms: N1_3  and  C2_4 
REMARK    2  A    between atoms: N4_11  and  C6_12 
REMARK    3  A    between atoms: N6_23  and  C14_24 
ROOT
HETATM    1  C2  UNL     1       1.053  51.950 -16.187  1.00  0.00     0.111 A 
HETATM    2  C3  UNL     1       1.249  52.779 -17.291  1.00  0.00     0.080 A 
HETATM    3  C4  UNL     1       0.719  52.312 -18.494  1.00  0.00     0.067 A 
HETATM    4  N2  UNL     1       0.715  52.828 -19.758  1.00  0.00    -0.298 N 
HETATM    5  N3  UNL     1       0.113  52.051 -20.665  1.00  0.00    -0.284 N 
ATOM      6  H3  UNL     1       0.021  52.217 -21.667  1.00  0.00     0.188 HD
HETATM    7  C5  UNL     1      -0.342  51.007 -19.964  1.00  0.00     0.134 A 
HETATM    8  N4  UNL     1      -1.031  49.951 -20.466  1.00  0.00    -0.339 N 
HETATM    9  C12 UNL     1       0.035  51.109 -18.592  1.00  0.00     0.053 A 
HETATM   10  C13 UNL     1      -0.123  50.348 -17.434  1.00  0.00     0.107 A 
HETATM   11  N5  UNL     1       0.405  50.774 -16.258  1.00  0.00    -0.351 N 
ATOM     12  H5  UNL     1       0.310  50.197 -15.421  1.00  0.00     0.166 HD
HETATM   13  H3  UNL     1       1.115  53.703 -20.076  1.00  0.00     0.187 HD
HETATM   14  H4  UNL     1      -1.064  49.085 -19.938  1.00  0.00     0.167 HD
ENDROOT
BRANCH   1  15
HETATM   15  N1  UNL     1       1.630  52.365 -14.980  1.00  0.00    -0.295 N 
HETATM   16  C1  UNL     1       1.280  51.915 -13.729  1.00  0.00     0.322 C 
HETATM   17  O1  UNL     1       0.293  51.265 -13.421  1.00  0.00    -0.247 OA
HETATM   18  N6  UNL     1       2.219  52.327 -12.800  1.00  0.00    -0.334 N 
HETATM   19  H10 UNL     1       3.159  52.408 -13.164  1.00  0.00     0.165 HD
HETATM   20  H1  UNL     1       2.224  53.175 -15.004  1.00  0.00     0.172 HD
BRANCH  18  21
HETATM   21  C14 UNL     1       2.116  51.920 -11.401  1.00  0.00     0.122 C 
HETATM   22  C15 UNL     1       1.253  52.905 -10.594  1.00  0.00     0.032 C 
HETATM   23  C16 UNL     1       1.699  54.366 -10.667  1.00  0.00     0.029 C 
HETATM   24  C17 UNL     1       3.206  54.542 -10.590  1.00  0.00     0.175 C 
HETATM   25  O2  UNL     1       3.753  53.737  -9.549  1.00  0.00    -0.351 OA
HETATM   26  C18 UNL     1       4.200  52.514  -9.974  1.00  0.00     0.077 A 
HETATM   27  C19 UNL     1       5.435  52.135  -9.438  1.00  0.00     0.037 A 
HETATM   28  C23 UNL     1       3.502  51.652 -10.835  1.00  0.00    -0.002 A 
HETATM   29  C20 UNL     1       6.017  50.917  -9.786  1.00  0.00     0.003 A 
HETATM   30  C21 UNL     1       5.365  50.069 -10.673  1.00  0.00     0.001 A 
HETATM   31  C22 UNL     1       4.118  50.432 -11.188  1.00  0.00     0.012 A 
ENDBRANCH  18  21
ENDBRANCH   1  15
BRANCH   8  32
HETATM   32  C6  UNL     1      -1.622  49.827 -21.746  1.00  0.00     0.055 A 
HETATM   33  C7  UNL     1      -1.721  50.986 -22.537  1.00  0.00     0.031 A 
HETATM   34  C8  UNL     1      -2.343  50.958 -23.787  1.00  0.00     0.002 A 
HETATM   35  C9  UNL     1      -2.881  49.770 -24.270  1.00  0.00     0.002 A 
HETATM   36  C10 UNL     1      -2.783  48.606 -23.510  1.00  0.00     0.026 A 
HETATM   37  C11 UNL     1      -2.155  48.629 -22.260  1.00  0.00     0.060 A 
HETATM   38 CL1  UNL     1      -1.969  47.106 -21.458  1.00  0.00    -0.082 Cl
ENDBRANCH   8  32
TORSDOF 3
ENDMDL
MODEL 4
REMARK minimizedAffinity -9.66604042
REMARK CNNscore 0.267845184
REMARK CNNaffinity 6.83492279
REMARK  3 active torsions:
REMARK  status: ('A' for Active; 'I' for Inactive)
REMARK       I    between atoms: C1_2  and  N1_3 
REMARK       I    between atoms: C1_2  and  N6_23 
REMARK    1  A    between atoms: N1_3  and  C2_4 
REMARK    2  A    between atoms: N4_11  and  C6_12 
REMARK    3  A    between atoms: N6_23  and  C14_24 
ROOT
HETATM    1  C2  UNL     1       0.687  52.541 -18.902  1.00  0.00     0.111 A 
HETATM    2  C3  UNL     1      -0.129  51.577 -19.492  1.00  0.00     0.080 A 
HETATM    3  C4  UNL     1      -0.241  51.651 -20.880  1.00  0.00     0.067 A 
HETATM    4  N2  UNL     1      -0.936  50.903 -21.787  1.00  0.00    -0.298 N 
HETATM    5  N3  UNL     1      -0.803  51.315 -23.052  1.00  0.00    -0.284 N 
ATOM      6  H3  UNL     1      -1.253  50.933 -23.884  1.00  0.00     0.188 HD
HETATM    7  C5  UNL     1       0.052  52.342 -22.984  1.00  0.00     0.134 A 
HETATM    8  N4  UNL     1       0.495  53.080 -24.033  1.00  0.00    -0.339 N 
HETATM    9  C12 UNL     1       0.419  52.612 -21.632  1.00  0.00     0.053 A 
HETATM   10  C13 UNL     1       1.223  53.532 -20.961  1.00  0.00     0.107 A 
HETATM   11  N5  UNL     1       1.327  53.492 -19.607  1.00  0.00    -0.351 N 
ATOM     12  H5  UNL     1       1.894  54.187 -19.122  1.00  0.00     0.166 HD
HETATM   13  H3  UNL     1      -1.531  50.102 -21.610  1.00  0.00     0.187 HD
HETATM   14  H4  UNL     1       0.882  54.002 -23.861  1.00  0.00     0.167 HD
ENDROOT
BRANCH   1  15
HETATM   15  N1  UNL     1       0.766  52.529 -17.504  1.00  0.00    -0.295 N 
HETATM   16  C1  UNL     1       0.409  51.478 -16.692  1.00  0.00     0.322 C 
HETATM   17  O1  UNL     1      -0.227  50.482 -16.999  1.00  0.00    -0.247 OA
HETATM   18  N6  UNL     1       0.861  51.705 -15.403  1.00  0.00    -0.334 N 
HETATM   19  H10 UNL     1       1.719  52.237 -15.349  1.00  0.00     0.165 HD
HETATM   20  H1  UNL     1       0.930  53.405 -17.041  1.00  0.00     0.172 HD
BRANCH  18  21
HETATM   21  C14 UNL     1       0.670  50.703 -14.358  1.00  0.00     0.122 C 
HETATM   22  C15 UNL     1      -0.680  50.887 -13.645  1.00  0.00     0.032 C 
HETATM   23  C16 UNL     1      -0.920  52.281 -13.064  1.00  0.00     0.029 C 
HETATM   24  C17 UNL     1       0.306  52.873 -12.388  1.00  0.00     0.175 C 
HETATM   25  O2  UNL     1       0.932  51.907 -11.548  1.00  0.00    -0.351 OA
HETATM   26  C18 UNL     1       1.947  51.220 -12.159  1.00  0.00     0.077 A 
HETATM   27  C19 UNL     1       3.088  51.056 -11.366  1.00  0.00     0.037 A 
HETATM   28  C23 UNL     1       1.889  50.666 -13.447  1.00  0.00    -0.002 A 
HETATM   29  C20 UNL     1       4.204  50.381 -11.859  1.00  0.00     0.003 A 
HETATM   30  C21 UNL     1       4.185  49.865 -13.149  1.00  0.00     0.001 A 
HETATM   31  C22 UNL     1       3.037  50.003 -13.933  1.00  0.00     0.012 A 
ENDBRANCH  18  21
ENDBRANCH   1  15
BRANCH   8  32
HETATM   32  C6  UNL     1       0.360  52.798 -25.414  1.00  0.00     0.055 A 
HETATM   33  C7  UNL     1       0.380  51.449 -25.812  1.00  0.00     0.031 A 
HETATM   34  C8  UNL     1       0.311  51.092 -27.160  1.00  0.00     0.002 A 
HETATM   35  C9  UNL     1       0.222  52.078 -28.138  1.00  0.00     0.002 A 
HETATM   36  C10 UNL     1       0.188  53.420 -27.766  1.00  0.00     0.026 A 
HETATM   37  C11 UNL     1       0.250  53.782 -26.416  1.00  0.00     0.060 A 
HETATM   38 CL1  UNL     1       0.065  55.465 -26.055  1.00  0.00    -0.082 Cl
ENDBRANCH   8  32
TORSDOF 3
ENDMDL
MODEL 5
REMARK minimizedAffinity -8.52269077
REMARK CNNscore 0.249461874
REMARK CNNaffinity 6.45169497
REMARK  3 active torsions:
REMARK  status: ('A' for Active; 'I' for Inactive)
REMARK       I    between atoms: C1_2  and  N1_3 
REMARK       I    between atoms: C1_2  and  N6_23 
REMARK    1  A    between atoms: N1_3  and  C2_4 
REMARK    2  A    between atoms: N4_11  and  C6_12 
REMARK    3  A    between atoms: N6_23  and  C14_24 
ROOT
HETATM    1  C2  UNL     1       0.828  51.771 -14.737  1.00  0.00     0.111 A 
HETATM    2  C3  UNL     1      -0.232  51.025 -15.250  1.00  0.00     0.080 A 
HETATM    3  C4  UNL     1      -0.433  51.132 -16.626  1.00  0.00     0.067 A 
HETATM    4  N2  UNL     1      -1.350  50.570 -17.468  1.00  0.00    -0.298 N 
HETATM    5  N3  UNL     1      -1.225  50.948 -18.744  1.00  0.00    -0.284 N 
ATOM      6  H3  UNL     1      -1.815  50.685 -19.534  1.00  0.00     0.188 HD
HETATM    7  C5  UNL     1      -0.154  51.749 -18.755  1.00  0.00     0.134 A 
HETATM    8  N4  UNL     1       0.363  52.372 -19.844  1.00  0.00    -0.339 N 
HETATM    9  C12 UNL     1       0.370  51.919 -17.439  1.00  0.00     0.053 A 
HETATM   10  C13 UNL     1       1.414  52.624 -16.843  1.00  0.00     0.107 A 
HETATM   11  N5  UNL     1       1.612  52.552 -15.502  1.00  0.00    -0.351 N 
ATOM     12  H5  UNL     1       2.361  53.095 -15.070  1.00  0.00     0.166 HD
HETATM   13  H3  UNL     1      -2.098  49.927 -17.235  1.00  0.00     0.187 HD
HETATM   14  H4  UNL     1       0.965  53.179 -19.714  1.00  0.00     0.167 HD
ENDROOT
BRANCH   1  15
HETATM   15  N1  UNL     1       1.011  51.732 -13.350  1.00  0.00    -0.295 N 
HETATM   16  C1  UNL     1       2.215  51.861 -12.697  1.00  0.00     0.322 C 
HETATM   17  O1  UNL     1       3.334  51.812 -13.183  1.00  0.00    -0.247 OA
HETATM   18  N6  UNL     1       1.999  52.041 -11.342  1.00  0.00    -0.334 N 
HETATM   19  H10 UNL     1       1.141  52.528 -11.117  1.00  0.00     0.165 HD
HETATM   20  H1  UNL     1       0.241  51.415 -12.789  1.00  0.00     0.172 HD
BRANCH  18  21
HETATM   21  C14 UNL     1       3.117  52.273 -10.432  1.00  0.00     0.122 C 
HETATM   22  C15 UNL     1       3.069  51.314  -9.230  1.00  0.00     0.032 C 
HETATM   23  C16 UNL     1       1.758  51.330  -8.442  1.00  0.00     0.029 C 
HETATM   24  C17 UNL     1       1.194  52.726  -8.236  1.00  0.00     0.175 C 
HETATM   25  O2  UNL     1       2.220  53.627  -7.829  1.00  0.00    -0.351 OA
HETATM   26  C18 UNL     1       2.793  54.316  -8.866  1.00  0.00     0.077 A 
HETATM   27  C19 UNL     1       2.996  55.676  -8.609  1.00  0.00     0.037 A 
HETATM   28  C23 UNL     1       3.203  53.751 -10.083  1.00  0.00    -0.002 A 
HETATM   29  C20 UNL     1       3.565  56.504  -9.576  1.00  0.00     0.003 A 
HETATM   30  C21 UNL     1       3.936  55.974 -10.805  1.00  0.00     0.001 A 
HETATM   31  C22 UNL     1       3.761  54.611 -11.054  1.00  0.00     0.012 A 
ENDBRANCH  18  21
ENDBRANCH   1  15
BRANCH   8  32
HETATM   32  C6  UNL     1       0.059  52.137 -21.206  1.00  0.00     0.055 A 
HETATM   33  C7  UNL     1      -0.780  51.051 -21.513  1.00  0.00     0.031 A 
HETATM   34  C8  UNL     1      -1.080  50.719 -22.836  1.00  0.00     0.002 A 
HETATM   35  C9  UNL     1      -0.544  51.467 -23.879  1.00  0.00     0.002 A 
HETATM   36  C10 UNL     1       0.279  52.555 -23.600  1.00  0.00     0.026 A 
HETATM   37  C11 UNL     1       0.577  52.895 -22.276  1.00  0.00     0.060 A 
HETATM   38 CL1  UNL     1       1.498  54.340 -22.033  1.00  0.00    -0.082 Cl
ENDBRANCH   8  32
TORSDOF 3
ENDMDL
MODEL 6
REMARK minimizedAffinity -7.84717083
REMARK CNNscore 0.176780298
REMARK CNNaffinity 5.4740243
REMARK  3 active torsions:
REMARK  status: ('A' for Active; 'I' for Inactive)
REMARK       I    between atoms: C1_2  and  N1_3 
REMARK       I    between atoms: C1_2  and  N6_23 
REMARK    1  A    between atoms: N1_3  and  C2_4 
REMARK    2  A    between atoms: N4_11  and  C6_12 
REMARK    3  A    between atoms: N6_23  and  C14_24 
ROOT
HETATM    1  C2  UNL     1      -2.186  51.700 -10.005  1.00  0.00     0.111 A 
HETATM    2  C3  UNL     1      -2.377  50.544  -9.250  1.00  0.00     0.080 A 
HETATM    3  C4  UNL     1      -3.664  50.008  -9.287  1.00  0.00     0.067 A 
HETATM    4  N2  UNL     1      -4.222  48.915  -8.687  1.00  0.00    -0.298 N 
HETATM    5  N3  UNL     1      -5.520  48.745  -8.958  1.00  0.00    -0.284 N 
ATOM      6  H3  UNL     1      -6.144  48.023  -8.597  1.00  0.00     0.188 HD
HETATM    7  C5  UNL     1      -5.818  49.733  -9.809  1.00  0.00     0.134 A 
HETATM    8  N4  UNL     1      -7.034  49.963 -10.367  1.00  0.00    -0.339 N 
HETATM    9  C12 UNL     1      -4.689  50.575 -10.031  1.00  0.00     0.053 A 
HETATM   10  C13 UNL     1      -4.406  51.726 -10.765  1.00  0.00     0.107 A 
HETATM   11  N5  UNL     1      -3.166  52.278 -10.724  1.00  0.00    -0.351 N 
ATOM     12  H5  UNL     1      -2.975  53.137 -11.241  1.00  0.00     0.166 HD
HETATM   13  H3  UNL     1      -3.775  48.246  -8.071  1.00  0.00     0.187 HD
HETATM   14  H4  UNL     1      -7.241  50.884 -10.740  1.00  0.00     0.167 HD
ENDROOT
BRANCH   1  15
HETATM   15  N1  UNL     1      -0.921  52.296  -9.934  1.00  0.00    -0.295 N 
HETATM   16  C1  UNL     1      -0.644  53.620 -10.180  1.00  0.00     0.322 C 
HETATM   17  O1  UNL     1      -1.374  54.449 -10.702  1.00  0.00    -0.247 OA
HETATM   18  N6  UNL     1       0.642  53.918  -9.763  1.00  0.00    -0.334 N 
HETATM   19  H10 UNL     1       0.958  53.379  -8.967  1.00  0.00     0.165 HD
HETATM   20  H1  UNL     1      -0.124  51.687  -9.868  1.00  0.00     0.172 HD
BRANCH  18  21
HETATM   21  C14 UNL     1       1.159  55.281  -9.850  1.00  0.00     0.122 C 
HETATM   22  C15 UNL     1       2.422  55.347 -10.724  1.00  0.00     0.032 C 
HETATM   23  C16 UNL     1       3.548  54.401 -10.305  1.00  0.00     0.029 C 
HETATM   24  C17 UNL     1       3.750  54.332  -8.800  1.00  0.00     0.175 C 
HETATM   25  O2  UNL     1       3.741  55.640  -8.232  1.00  0.00    -0.351 OA
HETATM   26  C18 UNL     1       2.512  56.029  -7.767  1.00  0.00     0.077 A 
HETATM   27  C19 UNL     1       2.546  56.665  -6.521  1.00  0.00     0.037 A 
HETATM   28  C23 UNL     1       1.299  55.872  -8.455  1.00  0.00    -0.002 A 
HETATM   29  C20 UNL     1       1.369  57.111  -5.920  1.00  0.00     0.003 A 
HETATM   30  C21 UNL     1       0.152  56.925  -6.564  1.00  0.00     0.001 A 
HETATM   31  C22 UNL     1       0.119  56.315  -7.820  1.00  0.00     0.012 A 
ENDBRANCH  18  21
ENDBRANCH   1  15
BRANCH   8  32
HETATM   32  C6  UNL     1      -8.162  49.108 -10.379  1.00  0.00     0.055 A 
HETATM   33  C7  UNL     1      -8.436  48.402 -11.564  1.00  0.00     0.031 A 
HETATM   34  C8  UNL     1      -9.562  47.583 -11.675  1.00  0.00     0.002 A 
HETATM   35  C9  UNL     1     -10.438  47.456 -10.601  1.00  0.00     0.002 A 
HETATM   36  C10 UNL     1     -10.180  48.136  -9.413  1.00  0.00     0.026 A 
HETATM   37  C11 UNL     1      -9.050  48.952  -9.296  1.00  0.00     0.060 A 
HETATM   38 CL1  UNL     1      -8.750  49.644  -7.738  1.00  0.00    -0.082 Cl
ENDBRANCH   8  32
TORSDOF 3
ENDMDL
MODEL 7
REMARK minimizedAffinity -8.90070152
REMARK CNNscore 0.152972803
REMARK CNNaffinity 6.34900475
REMARK  3 active torsions:
REMARK  status: ('A' for Active; 'I' for Inactive)
REMARK       I    between atoms: C1_2  and  N1_3 
REMARK       I    between atoms: C1_2  and  N6_23 
REMARK    1  A    between atoms: N1_3  and  C2_4 
REMARK    2  A    between atoms: N4_11  and  C6_12 
REMARK    3  A    between atoms: N6_23  and  C14_24 
ROOT
HETATM    1  C2  UNL     1       0.862  52.232 -17.057  1.00  0.00     0.111 A 
HETATM    2  C3  UNL     1       1.465  52.970 -18.076  1.00  0.00     0.080 A 
HETATM    3  C4  UNL     1       1.057  52.651 -19.371  1.00  0.00     0.067 A 
HETATM    4  N2  UNL     1       1.417  53.140 -20.594  1.00  0.00    -0.298 N 
HETATM    5  N3  UNL     1       0.805  52.545 -21.623  1.00  0.00    -0.284 N 
ATOM      6  H3  UNL     1       0.942  52.721 -22.618  1.00  0.00     0.188 HD
HETATM    7  C5  UNL     1      -0.028  51.666 -21.056  1.00  0.00     0.134 A 
HETATM    8  N4  UNL     1      -0.869  50.828 -21.714  1.00  0.00    -0.339 N 
HETATM    9  C12 UNL     1       0.109  51.674 -19.637  1.00  0.00     0.053 A 
HETATM   10  C13 UNL     1      -0.450  50.992 -18.557  1.00  0.00     0.107 A 
HETATM   11  N5  UNL     1      -0.049  51.270 -17.289  1.00  0.00    -0.351 N 
ATOM     12  H5  UNL     1      -0.442  50.745 -16.507  1.00  0.00     0.166 HD
HETATM   13  H3  UNL     1       2.084  53.874 -20.800  1.00  0.00     0.187 HD
HETATM   14  H4  UNL     1      -1.223  50.006 -21.236  1.00  0.00     0.167 HD
ENDROOT
BRANCH   1  15
HETATM   15  N1  UNL     1       1.301  52.487 -15.752  1.00  0.00    -0.295 N 
HETATM   16  C1  UNL     1       0.659  52.093 -14.601  1.00  0.00     0.322 C 
HETATM   17  O1  UNL     1      -0.478  51.662 -14.493  1.00  0.00    -0.247 OA
HETATM   18  N6  UNL     1       1.494  52.275 -13.512  1.00  0.00    -0.334 N 
HETATM   19  H10 UNL     1       2.478  52.162 -13.716  1.00  0.00     0.165 HD
HETATM   20  H1  UNL     1       2.044  53.152 -15.634  1.00  0.00     0.172 HD
BRANCH  18  21
HETATM   21  C14 UNL     1       1.075  51.869 -12.173  1.00  0.00     0.122 C 
HETATM   22  C15 UNL     1       0.252  50.570 -12.215  1.00  0.00     0.032 C 
HETATM   23  C16 UNL     1      -0.964  50.604 -13.141  1.00  0.00     0.029 C 
HETATM   24  C17 UNL     1      -1.737  51.911 -13.075  1.00  0.00     0.175 C 
HETATM   25  O2  UNL     1      -1.927  52.315 -11.721  1.00  0.00    -0.351 OA
HETATM   26  C18 UNL     1      -0.970  53.182 -11.265  1.00  0.00     0.077 A 
HETATM   27  C19 UNL     1      -1.474  54.252 -10.518  1.00  0.00     0.037 A 
HETATM   28  C23 UNL     1       0.412  53.037 -11.460  1.00  0.00    -0.002 A 
HETATM   29  C20 UNL     1      -0.617  55.219  -9.994  1.00  0.00     0.003 A 
HETATM   30  C21 UNL     1       0.751  55.120 -10.214  1.00  0.00     0.001 A 
HETATM   31  C22 UNL     1       1.260  54.038 -10.936  1.00  0.00     0.012 A 
ENDBRANCH  18  21
ENDBRANCH   1  15
BRANCH   8  32
HETATM   32  C6  UNL     1      -1.231  50.856 -23.082  1.00  0.00     0.055 A 
HETATM   33  C7  UNL     1      -0.760  51.927 -23.863  1.00  0.00     0.031 A 
HETATM   34  C8  UNL     1      -1.121  52.058 -25.205  1.00  0.00     0.002 A 
HETATM   35  C9  UNL     1      -1.962  51.119 -25.794  1.00  0.00     0.002 A 
HETATM   36  C10 UNL     1      -2.430  50.042 -25.045  1.00  0.00     0.026 A 
HETATM   37  C11 UNL     1      -2.066  49.905 -23.701  1.00  0.00     0.060 A 
HETATM   38 CL1  UNL     1      -2.591  48.464 -22.898  1.00  0.00    -0.082 Cl
ENDBRANCH   8  32
TORSDOF 3
ENDMDL
MODEL 8
REMARK minimizedAffinity -7.60292768
REMARK CNNscore 0.149192706
REMARK CNNaffinity 5.34069777
REMARK  3 active torsions:
REMARK  status: ('A' for Active; 'I' for Inactive)
REMARK       I    between atoms: C1_2  and  N1_3 
REMARK       I    between atoms: C1_2  and  N6_23 
REMARK    1  A    between atoms: N1_3  and  C2_4 
REMARK    2  A    between atoms: N4_11  and  C6_12 
REMARK    3  A    between atoms: N6_23  and  C14_24 
ROOT
HETATM    1  C2  UNL     1      -9.509  47.778 -25.196  1.00  0.00     0.111 A 
HETATM    2  C3  UNL     1     -10.203  48.161 -26.344  1.00  0.00     0.080 A 
HETATM    3  C4  UNL     1     -11.534  47.750 -26.406  1.00  0.00     0.067 A 
HETATM    4  N2  UNL     1     -12.507  47.924 -27.350  1.00  0.00    -0.298 N 
HETATM    5  N3  UNL     1     -13.673  47.345 -27.046  1.00  0.00    -0.284 N 
ATOM      6  H3  UNL     1     -14.521  47.316 -27.612  1.00  0.00     0.188 HD
HETATM    7  C5  UNL     1     -13.480  46.813 -25.835  1.00  0.00     0.134 A 
HETATM    8  N4  UNL     1     -14.398  46.122 -25.114  1.00  0.00    -0.339 N 
HETATM    9  C12 UNL     1     -12.139  47.017 -25.395  1.00  0.00     0.053 A 
HETATM   10  C13 UNL     1     -11.373  46.686 -24.278  1.00  0.00     0.107 A 
HETATM   11  N5  UNL     1     -10.068  47.056 -24.208  1.00  0.00    -0.351 N 
ATOM     12  H5  UNL     1      -9.506  46.784 -23.400  1.00  0.00     0.166 HD
HETATM   13  H3  UNL     1     -12.439  48.420 -28.231  1.00  0.00     0.187 HD
HETATM   14  H4  UNL     1     -14.083  45.507 -24.370  1.00  0.00     0.167 HD
ENDROOT
BRANCH   1  15
HETATM   15  N1  UNL     1      -8.153  48.122 -25.138  1.00  0.00    -0.295 N 
HETATM   16  C1  UNL     1      -7.573  48.929 -24.188  1.00  0.00     0.322 C 
HETATM   17  O1  UNL     1      -8.135  49.651 -23.379  1.00  0.00    -0.247 OA
HETATM   18  N6  UNL     1      -6.194  48.840 -24.274  1.00  0.00    -0.334 N 
HETATM   19  H10 UNL     1      -5.852  47.940 -24.583  1.00  0.00     0.165 HD
HETATM   20  H1  UNL     1      -7.586  47.911 -25.939  1.00  0.00     0.172 HD
BRANCH  18  21
HETATM   21  C14 UNL     1      -5.339  49.551 -23.326  1.00  0.00     0.122 C 
HETATM   22  C15 UNL     1      -4.651  50.757 -23.988  1.00  0.00     0.032 C 
HETATM   23  C16 UNL     1      -3.853  50.433 -25.251  1.00  0.00     0.029 C 
HETATM   24  C17 UNL     1      -3.046  49.150 -25.143  1.00  0.00     0.175 C 
HETATM   25  O2  UNL     1      -2.359  49.092 -23.895  1.00  0.00    -0.351 OA
HETATM   26  C18 UNL     1      -3.043  48.413 -22.921  1.00  0.00     0.077 A 
HETATM   27  C19 UNL     1      -2.251  47.543 -22.164  1.00  0.00     0.037 A 
HETATM   28  C23 UNL     1      -4.407  48.569 -22.632  1.00  0.00    -0.002 A 
HETATM   29  C20 UNL     1      -2.812  46.780 -21.141  1.00  0.00     0.003 A 
HETATM   30  C21 UNL     1      -4.170  46.885 -20.868  1.00  0.00     0.001 A 
HETATM   31  C22 UNL     1      -4.958  47.774 -21.603  1.00  0.00     0.012 A 
ENDBRANCH  18  21
ENDBRANCH   1  15
BRANCH   8  32
HETATM   32  C6  UNL     1     -15.790  46.018 -25.349  1.00  0.00     0.055 A 
HETATM   33  C7  UNL     1     -16.646  46.832 -24.584  1.00  0.00     0.031 A 
HETATM   34  C8  UNL     1     -18.034  46.746 -24.716  1.00  0.00     0.002 A 
HETATM   35  C9  UNL     1     -18.593  45.843 -25.614  1.00  0.00     0.002 A 
HETATM   36  C10 UNL     1     -17.765  45.036 -26.391  1.00  0.00     0.026 A 
HETATM   37  C11 UNL     1     -16.375  45.123 -26.267  1.00  0.00     0.060 A 
HETATM   38 CL1  UNL     1     -15.436  44.176 -27.371  1.00  0.00    -0.082 Cl
ENDBRANCH   8  32
TORSDOF 3
ENDMDL
MODEL 9
REMARK minimizedAffinity -8.58409309
REMARK CNNscore 0.147422045
REMARK CNNaffinity 6.73424578
REMARK  3 active torsions:
REMARK  status: ('A' for Active; 'I' for Inactive)
REMARK       I    between atoms: C1_2  and  N1_3 
REMARK       I    between atoms: C1_2  and  N6_23 
REMARK    1  A    between atoms: N1_3  and  C2_4 
REMARK    2  A    between atoms: N4_11  and  C6_12 
REMARK    3  A    between atoms: N6_23  and  C14_24 
ROOT
HETATM    1  C2  UNL     1      -0.091  51.032 -18.739  1.00  0.00     0.111 A 
HETATM    2  C3  UNL     1      -0.661  50.033 -19.529  1.00  0.00     0.080 A 
HETATM    3  C4  UNL     1      -0.755  50.323 -20.890  1.00  0.00     0.067 A 
HETATM    4  N2  UNL     1      -1.248  49.615 -21.948  1.00  0.00    -0.298 N 
HETATM    5  N3  UNL     1      -1.180  50.260 -23.117  1.00  0.00    -0.284 N 
ATOM      6  H3  UNL     1      -1.516  49.942 -24.026  1.00  0.00     0.188 HD
HETATM    7  C5  UNL     1      -0.574  51.417 -22.829  1.00  0.00     0.134 A 
HETATM    8  N4  UNL     1      -0.282  52.405 -23.712  1.00  0.00    -0.339 N 
HETATM    9  C12 UNL     1      -0.307  51.520 -21.431  1.00  0.00     0.053 A 
HETATM   10  C13 UNL     1       0.259  52.458 -20.570  1.00  0.00     0.107 A 
HETATM   11  N5  UNL     1       0.339  52.205 -19.238  1.00  0.00    -0.351 N 
ATOM     12  H5  UNL     1       0.728  52.910 -18.610  1.00  0.00     0.166 HD
HETATM   13  H3  UNL     1      -1.655  48.687 -21.942  1.00  0.00     0.187 HD
HETATM   14  H4  UNL     1      -0.112  53.344 -23.367  1.00  0.00     0.167 HD
ENDROOT
BRANCH   1  15
HETATM   15  N1  UNL     1      -0.043  50.792 -17.361  1.00  0.00    -0.295 N 
HETATM   16  C1  UNL     1       0.616  51.568 -16.436  1.00  0.00     0.322 C 
HETATM   17  O1  UNL     1       1.435  52.448 -16.651  1.00  0.00    -0.247 OA
HETATM   18  N6  UNL     1       0.238  51.199 -15.157  1.00  0.00    -0.334 N 
HETATM   19  H10 UNL     1      -0.712  50.859 -15.084  1.00  0.00     0.165 HD
HETATM   20  H1  UNL     1      -0.363  49.898 -17.033  1.00  0.00     0.172 HD
BRANCH  18  21
HETATM   21  C14 UNL     1       0.744  51.919 -13.991  1.00  0.00     0.122 C 
HETATM   22  C15 UNL     1       2.235  51.625 -13.755  1.00  0.00     0.032 C 
HETATM   23  C16 UNL     1       2.591  50.143 -13.632  1.00  0.00     0.029 C 
HETATM   24  C17 UNL     1       1.590  49.348 -12.810  1.00  0.00     0.175 C 
HETATM   25  O2  UNL     1       1.255  50.048 -11.614  1.00  0.00    -0.351 OA
HETATM   26  C18 UNL     1       0.127  50.818 -11.724  1.00  0.00     0.077 A 
HETATM   27  C19 UNL     1      -0.737  50.730 -10.628  1.00  0.00     0.037 A 
HETATM   28  C23 UNL     1      -0.165  51.675 -12.796  1.00  0.00    -0.002 A 
HETATM   29  C20 UNL     1      -1.928  51.455 -10.603  1.00  0.00     0.003 A 
HETATM   30  C21 UNL     1      -2.260  52.274 -11.675  1.00  0.00     0.001 A 
HETATM   31  C22 UNL     1      -1.385  52.386 -12.758  1.00  0.00     0.012 A 
ENDBRANCH  18  21
ENDBRANCH   1  15
BRANCH   8  32
HETATM   32  C6  UNL     1      -0.320  52.346 -25.126  1.00  0.00     0.055 A 
HETATM   33  C7  UNL     1       0.903  52.226 -25.810  1.00  0.00     0.031 A 
HETATM   34  C8  UNL     1       0.955  52.221 -27.205  1.00  0.00     0.002 A 
HETATM   35  C9  UNL     1      -0.217  52.337 -27.945  1.00  0.00     0.002 A 
HETATM   36  C10 UNL     1      -1.442  52.444 -27.290  1.00  0.00     0.026 A 
HETATM   37  C11 UNL     1      -1.498  52.443 -25.892  1.00  0.00     0.060 A 
HETATM   38 CL1  UNL     1      -3.076  52.446 -25.179  1.00  0.00    -0.082 Cl
ENDBRANCH   8  32
TORSDOF 3
ENDMDL
