MODEL 1
REMARK minimizedAffinity -8.66763592
REMARK  6 active torsions:
REMARK  status: ('A' for Active; 'I' for Inactive)
REMARK    1  A    between atoms: O1_2  and  C2_3 
REMARK    2  A    between atoms: C2_3  and  C3_4 
REMARK    3  A    between atoms: C3_4  and  N1_5 
REMARK    4  A    between atoms: C3_4  and  C16_27 
REMARK       I    between atoms: N1_5  and  C4_6 
REMARK       I    between atoms: C4_6  and  N2_8 
REMARK    5  A    between atoms: N2_8  and  C5_9 
REMARK    6  A    between atoms: N5_16  and  C9_17 
ROOT
HETATM    1  C5  UNL     1      -3.305  48.700 -24.301  1.00  0.00     0.111 A 
HETATM    2  C6  UNL     1      -4.676  48.487 -24.217  1.00  0.00     0.080 A 
HETATM    3  C7  UNL     1      -5.318  48.266 -25.435  1.00  0.00     0.067 A 
HETATM    4  N3  UNL     1      -6.623  48.018 -25.751  1.00  0.00    -0.298 N 
HETATM    5  N4  UNL     1      -6.852  47.870 -27.065  1.00  0.00    -0.284 N 
ATOM      6  H4  UNL     1      -7.744  47.696 -27.530  1.00  0.00     0.188 HD
HETATM    7  C8  UNL     1      -5.648  48.003 -27.625  1.00  0.00     0.130 A 
HETATM    8  N5  UNL     1      -5.387  47.919 -28.950  1.00  0.00    -0.370 N 
HETATM    9  C14 UNL     1      -4.645  48.256 -26.648  1.00  0.00     0.052 A 
HETATM   10  C15 UNL     1      -3.268  48.476 -26.640  1.00  0.00     0.107 A 
HETATM   11  N6  UNL     1      -2.616  48.701 -25.468  1.00  0.00    -0.351 N 
ATOM     12  H6  UNL     1      -1.610  48.871 -25.467  1.00  0.00     0.166 HD
HETATM   13  H10 UNL     1      -7.408  47.940 -25.114  1.00  0.00     0.187 HD
HETATM   14  H11 UNL     1      -4.501  48.267 -29.309  1.00  0.00     0.161 HD
ENDROOT
BRANCH   1  15
HETATM   15  N2  UNL     1      -2.497  48.952 -23.193  1.00  0.00    -0.295 N 
HETATM   16  C4  UNL     1      -2.591  49.970 -22.282  1.00  0.00     0.322 C 
HETATM   17  N1  UNL     1      -1.569  49.884 -21.356  1.00  0.00    -0.332 N 
HETATM   18  O2  UNL     1      -3.443  50.848 -22.259  1.00  0.00    -0.247 OA
HETATM   19  H7  UNL     1      -0.686  49.641 -21.784  1.00  0.00     0.165 HD
HETATM   20  H8  UNL     1      -1.860  48.198 -22.995  1.00  0.00     0.172 HD
BRANCH  17  21
HETATM   21  C3  UNL     1      -1.421  50.915 -20.329  1.00  0.00     0.143 C 
BRANCH  21  22
HETATM   22  C2  UNL     1      -2.802  51.515 -19.981  1.00  0.00     0.197 C 
BRANCH  22  23
HETATM   23  O1  UNL     1      -2.839  51.826 -18.580  1.00  0.00    -0.394 OA
HETATM   24  C1  UNL     1      -2.513  50.691 -17.787  1.00  0.00     0.201 C 
ENDBRANCH  22  23
ENDBRANCH  21  22
BRANCH  21  25
HETATM   25  C16 UNL     1      -0.472  52.022 -20.756  1.00  0.00    -0.033 A 
HETATM   26  C17 UNL     1      -0.073  52.125 -22.097  1.00  0.00     0.009 A 
HETATM   27  C18 UNL     1       0.821  53.120 -22.500  1.00  0.00     0.001 A 
HETATM   28  C19 UNL     1       1.327  54.022 -21.568  1.00  0.00     0.000 A 
HETATM   29  C20 UNL     1       0.938  53.935 -20.233  1.00  0.00     0.001 A 
HETATM   30  C21 UNL     1       0.045  52.941 -19.829  1.00  0.00     0.009 A 
ENDBRANCH  21  25
ENDBRANCH  17  21
ENDBRANCH   1  15
BRANCH   8  31
HETATM   31  C9  UNL     1      -6.462  47.951 -29.941  1.00  0.00     0.087 C 
HETATM   32  C10 UNL     1      -6.991  46.524 -30.157  1.00  0.00     0.051 C 
HETATM   33  C11 UNL     1      -6.317  45.827 -31.336  1.00  0.00     0.169 C 
HETATM   34  O3  UNL     1      -4.970  46.269 -31.468  1.00  0.00    -0.391 OA
HETATM   35  C12 UNL     1      -4.891  47.633 -31.897  1.00  0.00     0.169 C 
HETATM   36  C13 UNL     1      -5.953  48.529 -31.261  1.00  0.00     0.051 C 
ENDBRANCH   8  31
TORSDOF 6
ENDMDL
MODEL 2
REMARK minimizedAffinity -8.62151623
REMARK  6 active torsions:
REMARK  status: ('A' for Active; 'I' for Inactive)
REMARK    1  A    between atoms: O1_2  and  C2_3 
REMARK    2  A    between atoms: C2_3  and  C3_4 
REMARK    3  A    between atoms: C3_4  and  N1_5 
REMARK    4  A    between atoms: C3_4  and  C16_27 
REMARK       I    between atoms: N1_5  and  C4_6 
REMARK       I    between atoms: C4_6  and  N2_8 
REMARK    5  A    between atoms: N2_8  and  C5_9 
REMARK    6  A    between atoms: N5_16  and  C9_17 
ROOT
HETATM    1  C5  UNL     1       0.786  53.019 -19.781  1.00  0.00     0.111 A 
HETATM    2  C6  UNL     1       1.301  54.105 -20.479  1.00  0.00     0.080 A 
HETATM    3  C7  UNL     1       1.206  54.017 -21.867  1.00  0.00     0.067 A 
HETATM    4  N3  UNL     1       1.585  54.868 -22.867  1.00  0.00    -0.298 N 
HETATM    5  N4  UNL     1       1.330  54.411 -24.103  1.00  0.00    -0.284 N 
ATOM      6  H4  UNL     1       1.538  54.863 -24.993  1.00  0.00     0.188 HD
HETATM    7  C8  UNL     1       0.742  53.229 -23.902  1.00  0.00     0.130 A 
HETATM    8  N5  UNL     1       0.296  52.401 -24.873  1.00  0.00    -0.370 N 
HETATM    9  C14 UNL     1       0.640  52.929 -22.514  1.00  0.00     0.052 A 
HETATM   10  C15 UNL     1       0.146  51.883 -21.736  1.00  0.00     0.107 A 
HETATM   11  N6  UNL     1       0.230  51.938 -20.379  1.00  0.00    -0.351 N 
ATOM     12  H6  UNL     1      -0.125  51.167 -19.814  1.00  0.00     0.166 HD
HETATM   13  H10 UNL     1       2.025  55.775 -22.771  1.00  0.00     0.187 HD
HETATM   14  H11 UNL     1       0.085  51.432 -24.648  1.00  0.00     0.161 HD
ENDROOT
BRANCH   1  15
HETATM   15  N2  UNL     1       0.805  52.921 -18.391  1.00  0.00    -0.295 N 
HETATM   16  C4  UNL     1       0.593  51.815 -17.610  1.00  0.00     0.322 C 
HETATM   17  N1  UNL     1       0.659  52.150 -16.272  1.00  0.00    -0.332 N 
HETATM   18  O2  UNL     1       0.374  50.679 -18.006  1.00  0.00    -0.247 OA
HETATM   19  H7  UNL     1       0.198  53.029 -16.075  1.00  0.00     0.165 HD
HETATM   20  H8  UNL     1       1.149  53.755 -17.944  1.00  0.00     0.172 HD
BRANCH  17  21
HETATM   21  C3  UNL     1       0.386  51.141 -15.249  1.00  0.00     0.143 C 
BRANCH  21  22
HETATM   22  C2  UNL     1      -0.543  51.728 -14.163  1.00  0.00     0.197 C 
BRANCH  22  23
HETATM   23  O1  UNL     1       0.122  52.829 -13.523  1.00  0.00    -0.394 OA
HETATM   24  C1  UNL     1      -0.147  52.858 -12.127  1.00  0.00     0.201 C 
ENDBRANCH  22  23
ENDBRANCH  21  22
BRANCH  21  25
HETATM   25  C16 UNL     1       1.658  50.612 -14.609  1.00  0.00    -0.033 A 
HETATM   26  C17 UNL     1       2.874  51.281 -14.807  1.00  0.00     0.009 A 
HETATM   27  C18 UNL     1       4.056  50.791 -14.248  1.00  0.00     0.001 A 
HETATM   28  C19 UNL     1       4.037  49.627 -13.484  1.00  0.00     0.000 A 
HETATM   29  C20 UNL     1       2.837  48.952 -13.275  1.00  0.00     0.001 A 
HETATM   30  C21 UNL     1       1.654  49.440 -13.833  1.00  0.00     0.009 A 
ENDBRANCH  21  25
ENDBRANCH  17  21
ENDBRANCH   1  15
BRANCH   8  31
HETATM   31  C9  UNL     1       0.673  52.597 -26.273  1.00  0.00     0.087 C 
HETATM   32  C10 UNL     1      -0.203  53.705 -26.880  1.00  0.00     0.051 C 
HETATM   33  C11 UNL     1      -1.434  53.149 -27.590  1.00  0.00     0.169 C 
HETATM   34  O3  UNL     1      -1.882  51.961 -26.947  1.00  0.00    -0.391 OA
HETATM   35  C12 UNL     1      -0.969  50.873 -27.128  1.00  0.00     0.169 C 
HETATM   36  C13 UNL     1       0.498  51.298 -27.059  1.00  0.00     0.051 C 
ENDBRANCH   8  31
TORSDOF 6
ENDMDL
MODEL 3
REMARK minimizedAffinity -8.44532108
REMARK  6 active torsions:
REMARK  status: ('A' for Active; 'I' for Inactive)
REMARK    1  A    between atoms: O1_2  and  C2_3 
REMARK    2  A    between atoms: C2_3  and  C3_4 
REMARK    3  A    between atoms: C3_4  and  N1_5 
REMARK    4  A    between atoms: C3_4  and  C16_27 
REMARK       I    between atoms: N1_5  and  C4_6 
REMARK       I    between atoms: C4_6  and  N2_8 
REMARK    5  A    between atoms: N2_8  and  C5_9 
REMARK    6  A    between atoms: N5_16  and  C9_17 
ROOT
HETATM    1  C5  UNL     1      -3.482  49.053 -25.999  1.00  0.00     0.111 A 
HETATM    2  C6  UNL     1      -4.595  48.530 -25.352  1.00  0.00     0.080 A 
HETATM    3  C7  UNL     1      -5.595  48.043 -26.193  1.00  0.00     0.067 A 
HETATM    4  N3  UNL     1      -6.804  47.461 -25.937  1.00  0.00    -0.298 N 
HETATM    5  N4  UNL     1      -7.501  47.134 -27.037  1.00  0.00    -0.284 N 
ATOM      6  H4  UNL     1      -8.426  46.708 -27.089  1.00  0.00     0.188 HD
HETATM    7  C8  UNL     1      -6.707  47.494 -28.048  1.00  0.00     0.130 A 
HETATM    8  N5  UNL     1      -6.993  47.344 -29.362  1.00  0.00    -0.370 N 
HETATM    9  C14 UNL     1      -5.495  48.074 -27.577  1.00  0.00     0.052 A 
HETATM   10  C15 UNL     1      -4.341  48.615 -28.142  1.00  0.00     0.107 A 
HETATM   11  N6  UNL     1      -3.352  49.104 -27.347  1.00  0.00    -0.351 N 
ATOM     12  H6  UNL     1      -2.513  49.507 -27.764  1.00  0.00     0.166 HD
HETATM   13  H10 UNL     1      -7.214  47.262 -25.033  1.00  0.00     0.187 HD
HETATM   14  H11 UNL     1      -6.452  47.856 -30.054  1.00  0.00     0.161 HD
ENDROOT
BRANCH   1  15
HETATM   15  N2  UNL     1      -2.389  49.598 -25.327  1.00  0.00    -0.295 N 
HETATM   16  C4  UNL     1      -2.044  50.916 -25.187  1.00  0.00     0.322 C 
HETATM   17  N1  UNL     1      -0.862  51.033 -24.481  1.00  0.00    -0.332 N 
HETATM   18  O2  UNL     1      -2.666  51.879 -25.613  1.00  0.00    -0.247 OA
HETATM   19  H7  UNL     1      -0.182  50.337 -24.758  1.00  0.00     0.165 HD
HETATM   20  H8  UNL     1      -1.888  48.918 -24.779  1.00  0.00     0.172 HD
BRANCH  17  21
HETATM   21  C3  UNL     1      -0.256  52.349 -24.276  1.00  0.00     0.143 C 
BRANCH  21  22
HETATM   22  C2  UNL     1       0.957  52.523 -25.215  1.00  0.00     0.197 C 
BRANCH  22  23
HETATM   23  O1  UNL     1       0.745  53.674 -26.048  1.00  0.00    -0.394 OA
HETATM   24  C1  UNL     1       0.090  53.324 -27.261  1.00  0.00     0.201 C 
ENDBRANCH  22  23
ENDBRANCH  21  22
BRANCH  21  25
HETATM   25  C16 UNL     1       0.172  52.567 -22.835  1.00  0.00    -0.033 A 
HETATM   26  C17 UNL     1      -0.267  51.689 -21.832  1.00  0.00     0.009 A 
HETATM   27  C18 UNL     1       0.097  51.893 -20.499  1.00  0.00     0.001 A 
HETATM   28  C19 UNL     1       0.901  52.975 -20.152  1.00  0.00     0.000 A 
HETATM   29  C20 UNL     1       1.347  53.854 -21.136  1.00  0.00     0.001 A 
HETATM   30  C21 UNL     1       0.985  53.652 -22.469  1.00  0.00     0.009 A 
ENDBRANCH  21  25
ENDBRANCH  17  21
ENDBRANCH   1  15
BRANCH   8  31
HETATM   31  C9  UNL     1      -8.347  47.021 -29.813  1.00  0.00     0.087 C 
HETATM   32  C10 UNL     1      -8.267  46.302 -31.169  1.00  0.00     0.051 C 
HETATM   33  C11 UNL     1      -8.416  47.264 -32.345  1.00  0.00     0.169 C 
HETATM   34  O3  UNL     1      -7.865  48.535 -32.018  1.00  0.00    -0.391 OA
HETATM   35  C12 UNL     1      -8.642  49.219 -31.029  1.00  0.00     0.169 C 
HETATM   36  C13 UNL     1      -9.183  48.294 -29.939  1.00  0.00     0.051 C 
ENDBRANCH   8  31
TORSDOF 6
ENDMDL
MODEL 4
REMARK minimizedAffinity -8.32386971
REMARK  6 active torsions:
REMARK  status: ('A' for Active; 'I' for Inactive)
REMARK    1  A    between atoms: O1_2  and  C2_3 
REMARK    2  A    between atoms: C2_3  and  C3_4 
REMARK    3  A    between atoms: C3_4  and  N1_5 
REMARK    4  A    between atoms: C3_4  and  C16_27 
REMARK       I    between atoms: N1_5  and  C4_6 
REMARK       I    between atoms: C4_6  and  N2_8 
REMARK    5  A    between atoms: N2_8  and  C5_9 
REMARK    6  A    between atoms: N5_16  and  C9_17 
ROOT
HETATM    1  C5  UNL     1      -0.326  50.925 -20.601  1.00  0.00     0.111 A 
HETATM    2  C6  UNL     1       0.409  52.062 -20.287  1.00  0.00     0.080 A 
HETATM    3  C7  UNL     1       0.673  52.242 -18.930  1.00  0.00     0.067 A 
HETATM    4  N3  UNL     1       1.354  53.211 -18.250  1.00  0.00    -0.298 N 
HETATM    5  N4  UNL     1       1.377  53.036 -16.919  1.00  0.00    -0.284 N 
ATOM      6  H4  UNL     1       1.809  53.636 -16.216  1.00  0.00     0.188 HD
HETATM    7  C8  UNL     1       0.707  51.898 -16.726  1.00  0.00     0.130 A 
HETATM    8  N5  UNL     1       0.481  51.315 -15.526  1.00  0.00    -0.370 N 
HETATM    9  C14 UNL     1       0.238  51.355 -17.955  1.00  0.00     0.052 A 
HETATM   10  C15 UNL     1      -0.493  50.238 -18.359  1.00  0.00     0.107 A 
HETATM   11  N6  UNL     1      -0.771  50.040 -19.676  1.00  0.00    -0.351 N 
ATOM     12  H6  UNL     1      -1.313  49.226 -19.967  1.00  0.00     0.166 HD
HETATM   13  H10 UNL     1       1.824  54.021 -18.636  1.00  0.00     0.187 HD
HETATM   14  H11 UNL     1      -0.231  50.594 -15.445  1.00  0.00     0.161 HD
ENDROOT
BRANCH   1  15
HETATM   15  N2  UNL     1      -0.699  50.586 -21.900  1.00  0.00    -0.295 N 
HETATM   16  C4  UNL     1      -0.874  51.409 -22.981  1.00  0.00     0.322 C 
HETATM   17  N1  UNL     1      -1.287  50.680 -24.080  1.00  0.00    -0.332 N 
HETATM   18  O2  UNL     1      -0.700  52.619 -23.008  1.00  0.00    -0.247 OA
HETATM   19  H7  UNL     1      -1.973  49.978 -23.837  1.00  0.00     0.165 HD
HETATM   20  H8  UNL     1      -0.702  49.591 -22.059  1.00  0.00     0.172 HD
BRANCH  17  21
HETATM   21  C3  UNL     1      -1.613  51.363 -25.333  1.00  0.00     0.143 C 
BRANCH  21  22
HETATM   22  C2  UNL     1      -2.724  50.592 -26.079  1.00  0.00     0.197 C 
BRANCH  22  23
HETATM   23  O1  UNL     1      -2.403  49.193 -26.082  1.00  0.00    -0.394 OA
HETATM   24  C1  UNL     1      -3.551  48.396 -25.814  1.00  0.00     0.201 C 
ENDBRANCH  22  23
ENDBRANCH  21  22
BRANCH  21  25
HETATM   25  C16 UNL     1      -0.400  51.521 -26.234  1.00  0.00    -0.033 A 
HETATM   26  C17 UNL     1      -0.567  51.895 -27.576  1.00  0.00     0.009 A 
HETATM   27  C18 UNL     1       0.536  52.017 -28.423  1.00  0.00     0.001 A 
HETATM   28  C19 UNL     1       1.818  51.767 -27.941  1.00  0.00     0.000 A 
HETATM   29  C20 UNL     1       2.001  51.397 -26.611  1.00  0.00     0.001 A 
HETATM   30  C21 UNL     1       0.900  51.274 -25.762  1.00  0.00     0.009 A 
ENDBRANCH  21  25
ENDBRANCH  17  21
ENDBRANCH   1  15
BRANCH   8  31
HETATM   31  C9  UNL     1       0.716  52.035 -14.275  1.00  0.00     0.087 C 
HETATM   32  C10 UNL     1       1.857  51.349 -13.505  1.00  0.00     0.051 C 
HETATM   33  C11 UNL     1       1.342  50.334 -12.489  1.00  0.00     0.169 C 
HETATM   34  O3  UNL     1       0.141  49.730 -12.956  1.00  0.00    -0.391 OA
HETATM   35  C12 UNL     1      -0.954  50.651 -12.974  1.00  0.00     0.169 C 
HETATM   36  C13 UNL     1      -0.554  52.056 -13.426  1.00  0.00     0.051 C 
ENDBRANCH   8  31
TORSDOF 6
ENDMDL
MODEL 5
REMARK minimizedAffinity -8.31129456
REMARK  6 active torsions:
REMARK  status: ('A' for Active; 'I' for Inactive)
REMARK    1  A    between atoms: O1_2  and  C2_3 
REMARK    2  A    between atoms: C2_3  and  C3_4 
REMARK    3  A    between atoms: C3_4  and  N1_5 
REMARK    4  A    between atoms: C3_4  and  C16_27 
REMARK       I    between atoms: N1_5  and  C4_6 
REMARK       I    between atoms: C4_6  and  N2_8 
REMARK    5  A    between atoms: N2_8  and  C5_9 
REMARK    6  A    between atoms: N5_16  and  C9_17 
ROOT
HETATM    1  C5  UNL     1      -3.281  48.706 -24.091  1.00  0.00     0.111 A 
HETATM    2  C6  UNL     1      -2.787  48.669 -25.389  1.00  0.00     0.080 A 
HETATM    3  C7  UNL     1      -3.740  48.429 -26.379  1.00  0.00     0.067 A 
HETATM    4  N3  UNL     1      -3.644  48.331 -27.738  1.00  0.00    -0.298 N 
HETATM    5  N4  UNL     1      -4.809  48.075 -28.354  1.00  0.00    -0.284 N 
ATOM      6  H4  UNL     1      -4.974  47.945 -29.352  1.00  0.00     0.188 HD
HETATM    7  C8  UNL     1      -5.701  48.028 -27.363  1.00  0.00     0.130 A 
HETATM    8  N5  UNL     1      -7.027  47.802 -27.512  1.00  0.00    -0.370 N 
HETATM    9  C14 UNL     1      -5.085  48.241 -26.097  1.00  0.00     0.052 A 
HETATM   10  C15 UNL     1      -5.494  48.297 -24.766  1.00  0.00     0.107 A 
HETATM   11  N6  UNL     1      -4.586  48.522 -23.778  1.00  0.00    -0.351 N 
ATOM     12  H6  UNL     1      -4.888  48.553 -22.804  1.00  0.00     0.166 HD
HETATM   13  H10 UNL     1      -2.811  48.427 -28.306  1.00  0.00     0.187 HD
HETATM   14  H11 UNL     1      -7.585  47.545 -26.702  1.00  0.00     0.161 HD
ENDROOT
BRANCH   1  15
HETATM   15  N2  UNL     1      -2.479  48.918 -22.970  1.00  0.00    -0.295 N 
HETATM   16  C4  UNL     1      -2.544  49.935 -22.054  1.00  0.00     0.322 C 
HETATM   17  N1  UNL     1      -1.540  49.801 -21.114  1.00  0.00    -0.332 N 
HETATM   18  O2  UNL     1      -3.358  50.847 -22.038  1.00  0.00    -0.247 OA
HETATM   19  H7  UNL     1      -0.661  49.524 -21.531  1.00  0.00     0.165 HD
HETATM   20  H8  UNL     1      -1.876  48.138 -22.767  1.00  0.00     0.172 HD
BRANCH  17  21
HETATM   21  C3  UNL     1      -1.365  50.820 -20.079  1.00  0.00     0.143 C 
BRANCH  21  22
HETATM   22  C2  UNL     1      -2.734  51.420 -19.692  1.00  0.00     0.197 C 
BRANCH  22  23
HETATM   23  O1  UNL     1      -2.723  51.754 -18.295  1.00  0.00    -0.394 OA
HETATM   24  C1  UNL     1      -2.806  50.590 -17.482  1.00  0.00     0.201 C 
ENDBRANCH  22  23
ENDBRANCH  21  22
BRANCH  21  25
HETATM   25  C16 UNL     1      -0.421  51.927 -20.515  1.00  0.00    -0.033 A 
HETATM   26  C17 UNL     1      -0.101  52.083 -21.872  1.00  0.00     0.009 A 
HETATM   27  C18 UNL     1       0.786  53.079 -22.285  1.00  0.00     0.001 A 
HETATM   28  C19 UNL     1       1.365  53.931 -21.347  1.00  0.00     0.000 A 
HETATM   29  C20 UNL     1       1.056  53.791 -19.996  1.00  0.00     0.001 A 
HETATM   30  C21 UNL     1       0.169  52.796 -19.582  1.00  0.00     0.009 A 
ENDBRANCH  21  25
ENDBRANCH  17  21
ENDBRANCH   1  15
BRANCH   8  31
HETATM   31  C9  UNL     1      -7.576  47.302 -28.772  1.00  0.00     0.087 C 
HETATM   32  C10 UNL     1      -9.038  47.760 -28.901  1.00  0.00     0.051 C 
HETATM   33  C11 UNL     1     -10.022  46.712 -28.391  1.00  0.00     0.169 C 
HETATM   34  O3  UNL     1      -9.448  45.977 -27.315  1.00  0.00    -0.391 OA
HETATM   35  C12 UNL     1      -8.379  45.132 -27.751  1.00  0.00     0.169 C 
HETATM   36  C13 UNL     1      -7.496  45.777 -28.819  1.00  0.00     0.051 C 
ENDBRANCH   8  31
TORSDOF 6
ENDMDL
MODEL 6
REMARK minimizedAffinity -8.13112068
REMARK  6 active torsions:
REMARK  status: ('A' for Active; 'I' for Inactive)
REMARK    1  A    between atoms: O1_2  and  C2_3 
REMARK    2  A    between atoms: C2_3  and  C3_4 
REMARK    3  A    between atoms: C3_4  and  N1_5 
REMARK    4  A    between atoms: C3_4  and  C16_27 
REMARK       I    between atoms: N1_5  and  C4_6 
REMARK       I    between atoms: C4_6  and  N2_8 
REMARK    5  A    between atoms: N2_8  and  C5_9 
REMARK    6  A    between atoms: N5_16  and  C9_17 
ROOT
HETATM    1  C5  UNL     1      -4.618  48.350 -27.051  1.00  0.00     0.111 A 
HETATM    2  C6  UNL     1      -4.608  48.254 -28.437  1.00  0.00     0.080 A 
HETATM    3  C7  UNL     1      -5.813  47.850 -29.012  1.00  0.00     0.067 A 
HETATM    4  N3  UNL     1      -6.187  47.652 -30.310  1.00  0.00    -0.298 N 
HETATM    5  N4  UNL     1      -7.456  47.242 -30.461  1.00  0.00    -0.284 N 
ATOM      6  H4  UNL     1      -7.943  47.018 -31.328  1.00  0.00     0.188 HD
HETATM    7  C8  UNL     1      -7.935  47.193 -29.215  1.00  0.00     0.130 A 
HETATM    8  N5  UNL     1      -9.194  46.836 -28.874  1.00  0.00    -0.370 N 
HETATM    9  C14 UNL     1      -6.945  47.563 -28.262  1.00  0.00     0.052 A 
HETATM   10  C15 UNL     1      -6.866  47.688 -26.876  1.00  0.00     0.107 A 
HETATM   11  N6  UNL     1      -5.703  48.074 -26.286  1.00  0.00    -0.351 N 
ATOM     12  H6  UNL     1      -5.647  48.155 -25.271  1.00  0.00     0.166 HD
HETATM   13  H10 UNL     1      -5.621  47.777 -31.141  1.00  0.00     0.187 HD
HETATM   14  H11 UNL     1      -9.402  46.595 -27.908  1.00  0.00     0.161 HD
ENDROOT
BRANCH   1  15
HETATM   15  N2  UNL     1      -3.506  48.724 -26.298  1.00  0.00    -0.295 N 
HETATM   16  C4  UNL     1      -2.983  49.976 -26.111  1.00  0.00     0.322 C 
HETATM   17  N1  UNL     1      -1.847  49.912 -25.327  1.00  0.00    -0.332 N 
HETATM   18  O2  UNL     1      -3.429  51.023 -26.559  1.00  0.00    -0.247 OA
HETATM   19  H7  UNL     1      -1.258  49.127 -25.571  1.00  0.00     0.165 HD
HETATM   20  H8  UNL     1      -3.147  47.973 -25.731  1.00  0.00     0.172 HD
BRANCH  17  21
HETATM   21  C3  UNL     1      -1.072  51.124 -25.058  1.00  0.00     0.143 C 
BRANCH  21  22
HETATM   22  C2  UNL     1      -2.005  52.354 -25.046  1.00  0.00     0.197 C 
BRANCH  22  23
HETATM   23  O1  UNL     1      -2.461  52.585 -23.704  1.00  0.00    -0.394 OA
HETATM   24  C1  UNL     1      -1.469  52.226 -22.750  1.00  0.00     0.201 C 
ENDBRANCH  22  23
ENDBRANCH  21  22
BRANCH  21  25
HETATM   25  C16 UNL     1       0.041  51.330 -26.070  1.00  0.00    -0.033 A 
HETATM   26  C17 UNL     1       1.381  51.307 -25.654  1.00  0.00     0.009 A 
HETATM   27  C18 UNL     1       2.414  51.523 -26.568  1.00  0.00     0.001 A 
HETATM   28  C19 UNL     1       2.122  51.765 -27.908  1.00  0.00     0.000 A 
HETATM   29  C20 UNL     1       0.797  51.790 -28.338  1.00  0.00     0.001 A 
HETATM   30  C21 UNL     1      -0.237  51.574 -27.425  1.00  0.00     0.009 A 
ENDBRANCH  21  25
ENDBRANCH  17  21
ENDBRANCH   1  15
BRANCH   8  31
HETATM   31  C9  UNL     1     -10.088  46.188 -29.833  1.00  0.00     0.087 C 
HETATM   32  C10 UNL     1     -11.032  47.243 -30.433  1.00  0.00     0.051 C 
HETATM   33  C11 UNL     1     -12.361  47.323 -29.688  1.00  0.00     0.169 C 
HETATM   34  O3  UNL     1     -12.173  47.030 -28.308  1.00  0.00    -0.391 OA
HETATM   35  C12 UNL     1     -11.841  45.655 -28.090  1.00  0.00     0.169 C 
HETATM   36  C13 UNL     1     -10.896  45.087 -29.149  1.00  0.00     0.051 C 
ENDBRANCH   8  31
TORSDOF 6
ENDMDL
MODEL 7
REMARK minimizedAffinity -8.1234827
REMARK  6 active torsions:
REMARK  status: ('A' for Active; 'I' for Inactive)
REMARK    1  A    between atoms: O1_2  and  C2_3 
REMARK    2  A    between atoms: C2_3  and  C3_4 
REMARK    3  A    between atoms: C3_4  and  N1_5 
REMARK    4  A    between atoms: C3_4  and  C16_27 
REMARK       I    between atoms: N1_5  and  C4_6 
REMARK       I    between atoms: C4_6  and  N2_8 
REMARK    5  A    between atoms: N2_8  and  C5_9 
REMARK    6  A    between atoms: N5_16  and  C9_17 
ROOT
HETATM    1  C5  UNL     1      -4.425  48.396 -26.953  1.00  0.00     0.111 A 
HETATM    2  C6  UNL     1      -4.828  48.049 -28.236  1.00  0.00     0.080 A 
HETATM    3  C7  UNL     1      -6.165  47.668 -28.356  1.00  0.00     0.067 A 
HETATM    4  N3  UNL     1      -6.913  47.275 -29.429  1.00  0.00    -0.298 N 
HETATM    5  N4  UNL     1      -8.185  46.971 -29.130  1.00  0.00    -0.284 N 
ATOM      6  H4  UNL     1      -8.916  46.643 -29.762  1.00  0.00     0.188 HD
HETATM    7  C8  UNL     1      -8.278  47.197 -27.817  1.00  0.00     0.130 A 
HETATM    8  N5  UNL     1      -9.394  47.033 -27.071  1.00  0.00    -0.370 N 
HETATM    9  C14 UNL     1      -7.036  47.634 -27.276  1.00  0.00     0.052 A 
HETATM   10  C15 UNL     1      -6.547  48.001 -26.023  1.00  0.00     0.107 A 
HETATM   11  N6  UNL     1      -5.247  48.371 -25.875  1.00  0.00    -0.351 N 
ATOM     12  H6  UNL     1      -4.891  48.630 -24.955  1.00  0.00     0.166 HD
HETATM   13  H10 UNL     1      -6.612  47.191 -30.393  1.00  0.00     0.187 HD
HETATM   14  H11 UNL     1      -9.317  46.994 -26.058  1.00  0.00     0.161 HD
ENDROOT
BRANCH   1  15
HETATM   15  N2  UNL     1      -3.126  48.789 -26.635  1.00  0.00    -0.295 N 
HETATM   16  C4  UNL     1      -2.652  50.050 -26.385  1.00  0.00     0.322 C 
HETATM   17  N1  UNL     1      -1.292  50.015 -26.149  1.00  0.00    -0.332 N 
HETATM   18  O2  UNL     1      -3.309  51.081 -26.364  1.00  0.00    -0.247 OA
HETATM   19  H7  UNL     1      -0.810  49.388 -26.780  1.00  0.00     0.165 HD
HETATM   20  H8  UNL     1      -2.517  48.010 -26.446  1.00  0.00     0.172 HD
BRANCH  17  21
HETATM   21  C3  UNL     1      -0.553  51.260 -25.934  1.00  0.00     0.143 C 
BRANCH  21  22
HETATM   22  C2  UNL     1       0.835  51.172 -26.607  1.00  0.00     0.197 C 
BRANCH  22  23
HETATM   23  O1  UNL     1       0.710  51.538 -27.990  1.00  0.00    -0.394 OA
HETATM   24  C1  UNL     1       0.106  52.817 -28.136  1.00  0.00     0.201 C 
ENDBRANCH  22  23
ENDBRANCH  21  22
BRANCH  21  25
HETATM   25  C16 UNL     1      -0.391  51.585 -24.459  1.00  0.00    -0.033 A 
HETATM   26  C17 UNL     1       0.503  52.588 -24.056  1.00  0.00     0.009 A 
HETATM   27  C18 UNL     1       0.683  52.880 -22.702  1.00  0.00     0.001 A 
HETATM   28  C19 UNL     1      -0.028  52.172 -21.736  1.00  0.00     0.000 A 
HETATM   29  C20 UNL     1      -0.921  51.175 -22.120  1.00  0.00     0.001 A 
HETATM   30  C21 UNL     1      -1.102  50.882 -23.473  1.00  0.00     0.009 A 
ENDBRANCH  21  25
ENDBRANCH  17  21
ENDBRANCH   1  15
BRANCH   8  31
HETATM   31  C9  UNL     1     -10.557  46.313 -27.589  1.00  0.00     0.087 C 
HETATM   32  C10 UNL     1     -11.463  47.298 -28.346  1.00  0.00     0.051 C 
HETATM   33  C11 UNL     1     -12.570  47.865 -27.462  1.00  0.00     0.169 C 
HETATM   34  O3  UNL     1     -12.119  47.980 -26.117  1.00  0.00    -0.391 OA
HETATM   35  C12 UNL     1     -11.932  46.701 -25.501  1.00  0.00     0.169 C 
HETATM   36  C13 UNL     1     -11.330  45.659 -26.445  1.00  0.00     0.051 C 
ENDBRANCH   8  31
TORSDOF 6
ENDMDL
MODEL 8
REMARK minimizedAffinity -7.97492695
REMARK  6 active torsions:
REMARK  status: ('A' for Active; 'I' for Inactive)
REMARK    1  A    between atoms: O1_2  and  C2_3 
REMARK    2  A    between atoms: C2_3  and  C3_4 
REMARK    3  A    between atoms: C3_4  and  N1_5 
REMARK    4  A    between atoms: C3_4  and  C16_27 
REMARK       I    between atoms: N1_5  and  C4_6 
REMARK       I    between atoms: C4_6  and  N2_8 
REMARK    5  A    between atoms: N2_8  and  C5_9 
REMARK    6  A    between atoms: N5_16  and  C9_17 
ROOT
HETATM    1  C5  UNL     1      -3.453  49.070 -25.871  1.00  0.00     0.111 A 
HETATM    2  C6  UNL     1      -3.543  48.827 -27.236  1.00  0.00     0.080 A 
HETATM    3  C7  UNL     1      -4.736  48.241 -27.657  1.00  0.00     0.067 A 
HETATM    4  N3  UNL     1      -5.187  47.867 -28.891  1.00  0.00    -0.298 N 
HETATM    5  N4  UNL     1      -6.410  47.314 -28.885  1.00  0.00    -0.284 N 
ATOM      6  H4  UNL     1      -6.937  46.949 -29.678  1.00  0.00     0.188 HD
HETATM    7  C8  UNL     1      -6.781  47.351 -27.603  1.00  0.00     0.130 A 
HETATM    8  N5  UNL     1      -7.961  46.905 -27.115  1.00  0.00    -0.370 N 
HETATM    9  C14 UNL     1      -5.766  47.921 -26.784  1.00  0.00     0.052 A 
HETATM   10  C15 UNL     1      -5.592  48.202 -25.429  1.00  0.00     0.107 A 
HETATM   11  N6  UNL     1      -4.436  48.768 -24.988  1.00  0.00    -0.351 N 
ATOM     12  H6  UNL     1      -4.310  48.964 -23.996  1.00  0.00     0.166 HD
HETATM   13  H10 UNL     1      -4.706  47.959 -29.778  1.00  0.00     0.187 HD
HETATM   14  H11 UNL     1      -8.063  46.749 -26.115  1.00  0.00     0.161 HD
ENDROOT
BRANCH   1  15
HETATM   15  N2  UNL     1      -2.334  49.636 -25.263  1.00  0.00    -0.295 N 
HETATM   16  C4  UNL     1      -2.038  50.961 -25.082  1.00  0.00     0.322 C 
HETATM   17  N1  UNL     1      -0.808  51.101 -24.470  1.00  0.00    -0.332 N 
HETATM   18  O2  UNL     1      -2.738  51.911 -25.404  1.00  0.00    -0.247 OA
HETATM   19  H7  UNL     1      -0.122  50.454 -24.837  1.00  0.00     0.165 HD
HETATM   20  H8  UNL     1      -1.758  48.955 -24.794  1.00  0.00     0.172 HD
BRANCH  17  21
HETATM   21  C3  UNL     1      -0.247  52.434 -24.245  1.00  0.00     0.143 C 
BRANCH  21  22
HETATM   22  C2  UNL     1       0.954  52.666 -25.188  1.00  0.00     0.197 C 
BRANCH  22  23
HETATM   23  O1  UNL     1       1.304  51.424 -25.817  1.00  0.00    -0.394 OA
HETATM   24  C1  UNL     1       2.501  51.544 -26.575  1.00  0.00     0.201 C 
ENDBRANCH  22  23
ENDBRANCH  21  22
BRANCH  21  25
HETATM   25  C16 UNL     1       0.181  52.643 -22.803  1.00  0.00    -0.033 A 
HETATM   26  C17 UNL     1      -0.324  51.810 -21.793  1.00  0.00     0.009 A 
HETATM   27  C18 UNL     1       0.040  52.007 -20.460  1.00  0.00     0.001 A 
HETATM   28  C19 UNL     1       0.911  53.038 -20.119  1.00  0.00     0.000 A 
HETATM   29  C20 UNL     1       1.423  53.873 -21.109  1.00  0.00     0.001 A 
HETATM   30  C21 UNL     1       1.061  53.677 -22.443  1.00  0.00     0.009 A 
ENDBRANCH  21  25
ENDBRANCH  17  21
ENDBRANCH   1  15
BRANCH   8  31
HETATM   31  C9  UNL     1      -8.850  46.069 -27.922  1.00  0.00     0.087 C 
HETATM   32  C10 UNL     1      -9.908  46.959 -28.592  1.00  0.00     0.051 C 
HETATM   33  C11 UNL     1     -11.197  47.042 -27.780  1.00  0.00     0.169 C 
HETATM   34  O3  UNL     1     -10.911  46.954 -26.388  1.00  0.00    -0.391 OA
HETATM   35  C12 UNL     1     -10.456  45.650 -26.013  1.00  0.00     0.169 C 
HETATM   36  C13 UNL     1      -9.527  45.014 -27.047  1.00  0.00     0.051 C 
ENDBRANCH   8  31
TORSDOF 6
ENDMDL
MODEL 9
REMARK minimizedAffinity -7.82657957
REMARK  6 active torsions:
REMARK  status: ('A' for Active; 'I' for Inactive)
REMARK    1  A    between atoms: O1_2  and  C2_3 
REMARK    2  A    between atoms: C2_3  and  C3_4 
REMARK    3  A    between atoms: C3_4  and  N1_5 
REMARK    4  A    between atoms: C3_4  and  C16_27 
REMARK       I    between atoms: N1_5  and  C4_6 
REMARK       I    between atoms: C4_6  and  N2_8 
REMARK    5  A    between atoms: N2_8  and  C5_9 
REMARK    6  A    between atoms: N5_16  and  C9_17 
ROOT
HETATM    1  C5  UNL     1      -4.327  48.400 -26.386  1.00  0.00     0.111 A 
HETATM    2  C6  UNL     1      -5.512  48.056 -25.748  1.00  0.00     0.080 A 
HETATM    3  C7  UNL     1      -6.546  47.654 -26.593  1.00  0.00     0.067 A 
HETATM    4  N3  UNL     1      -7.824  47.243 -26.344  1.00  0.00    -0.298 N 
HETATM    5  N4  UNL     1      -8.531  46.947 -27.447  1.00  0.00    -0.284 N 
ATOM      6  H4  UNL     1      -9.501  46.639 -27.505  1.00  0.00     0.188 HD
HETATM    7  C8  UNL     1      -7.674  47.150 -28.450  1.00  0.00     0.130 A 
HETATM    8  N5  UNL     1      -7.946  46.966 -29.762  1.00  0.00    -0.370 N 
HETATM    9  C14 UNL     1      -6.410  47.597 -27.973  1.00  0.00     0.052 A 
HETATM   10  C15 UNL     1      -5.184  47.959 -28.530  1.00  0.00     0.107 A 
HETATM   11  N6  UNL     1      -4.159  48.361 -27.730  1.00  0.00    -0.351 N 
ATOM     12  H6  UNL     1      -3.267  48.633 -28.142  1.00  0.00     0.166 HD
HETATM   13  H10 UNL     1      -8.277  47.146 -25.443  1.00  0.00     0.187 HD
HETATM   14  H11 UNL     1      -7.329  47.368 -30.463  1.00  0.00     0.161 HD
ENDROOT
BRANCH   1  15
HETATM   15  N2  UNL     1      -3.189  48.839 -25.710  1.00  0.00    -0.295 N 
HETATM   16  C4  UNL     1      -2.663  50.102 -25.655  1.00  0.00     0.322 C 
HETATM   17  N1  UNL     1      -1.501  50.108 -24.909  1.00  0.00    -0.332 N 
HETATM   18  O2  UNL     1      -3.127  51.106 -26.179  1.00  0.00    -0.247 OA
HETATM   19  H7  UNL     1      -0.918  49.304 -25.102  1.00  0.00     0.165 HD
HETATM   20  H8  UNL     1      -2.809  48.142 -25.091  1.00  0.00     0.172 HD
BRANCH  17  21
HETATM   21  C3  UNL     1      -0.720  51.339 -24.777  1.00  0.00     0.143 C 
BRANCH  21  22
HETATM   22  C2  UNL     1      -1.666  52.555 -24.667  1.00  0.00     0.197 C 
BRANCH  22  23
HETATM   23  O1  UNL     1      -2.192  52.620 -23.332  1.00  0.00    -0.394 OA
HETATM   24  C1  UNL     1      -1.185  52.356 -22.363  1.00  0.00     0.201 C 
ENDBRANCH  22  23
ENDBRANCH  21  22
BRANCH  21  25
HETATM   25  C16 UNL     1       0.241  51.537 -25.937  1.00  0.00    -0.033 A 
HETATM   26  C17 UNL     1      -0.253  51.838 -27.215  1.00  0.00     0.009 A 
HETATM   27  C18 UNL     1       0.616  51.996 -28.296  1.00  0.00     0.001 A 
HETATM   28  C19 UNL     1       1.989  51.854 -28.114  1.00  0.00     0.000 A 
HETATM   29  C20 UNL     1       2.497  51.558 -26.851  1.00  0.00     0.001 A 
HETATM   30  C21 UNL     1       1.629  51.400 -25.769  1.00  0.00     0.009 A 
ENDBRANCH  21  25
ENDBRANCH  17  21
ENDBRANCH   1  15
BRANCH   8  31
HETATM   31  C9  UNL     1      -9.319  46.792 -30.237  1.00  0.00     0.087 C 
HETATM   32  C10 UNL     1      -9.513  45.337 -30.694  1.00  0.00     0.051 C 
HETATM   33  C11 UNL     1      -9.279  45.164 -32.192  1.00  0.00     0.169 C 
HETATM   34  O3  UNL     1      -8.288  46.078 -32.648  1.00  0.00    -0.391 OA
HETATM   35  C12 UNL     1      -8.751  47.433 -32.617  1.00  0.00     0.169 C 
HETATM   36  C13 UNL     1      -9.608  47.750 -31.392  1.00  0.00     0.051 C 
ENDBRANCH   8  31
TORSDOF 6
ENDMDL
