MODEL 1
REMARK minimizedAffinity -9.43424511
REMARK CNNscore 0.292081684
REMARK CNNaffinity 6.97411728
REMARK  6 active torsions:
REMARK  status: ('A' for Active; 'I' for Inactive)
REMARK       I    between atoms: C1_2  and  N1_3 
REMARK    1  A    between atoms: C1_2  and  C13_19 
REMARK    2  A    between atoms: N1_3  and  C2_4 
REMARK    3  A    between atoms: C2_4  and  C3_5 
REMARK    4  A    between atoms: C2_4  and  C9_13 
REMARK    5  A    between atoms: C18_26  and  N4_27 
REMARK    6  A    between atoms: N4_27  and  C19_28 
ROOT
HETATM    1  C13 UNL     1      -0.653  52.122 -21.540  1.00  0.00     0.034 A 
HETATM    2  C14 UNL     1       0.182  53.234 -21.398  1.00  0.00     0.018 A 
HETATM    3  C15 UNL     1       0.846  53.440 -20.190  1.00  0.00     0.016 A 
HETATM    4  C16 UNL     1       0.674  52.527 -19.131  1.00  0.00     0.006 A 
HETATM    5  C17 UNL     1       1.288  52.655 -17.897  1.00  0.00     0.104 A 
HETATM    6  N3  UNL     1       1.126  51.784 -16.887  1.00  0.00    -0.342 N 
ATOM      7  H3  UNL     1       1.587  51.917 -15.986  1.00  0.00     0.167 HD
HETATM    8  C18 UNL     1       0.328  50.733 -17.119  1.00  0.00     0.157 A 
HETATM    9  N5  UNL     1      -0.320  50.525 -18.272  1.00  0.00    -0.332 N 
ATOM     10  H5  UNL     1      -0.931  49.717 -18.390  1.00  0.00     0.168 HD
HETATM   11  C24 UNL     1      -0.146  51.406 -19.266  1.00  0.00     0.047 A 
HETATM   12  C25 UNL     1      -0.796  51.217 -20.478  1.00  0.00     0.047 A 
ENDROOT
BRANCH   1  13
HETATM   13  C1  UNL     1      -1.386  51.848 -22.806  1.00  0.00     0.252 C 
HETATM   14  O1  UNL     1      -1.825  52.775 -23.476  1.00  0.00    -0.268 OA
HETATM   15  N1  UNL     1      -1.487  50.521 -23.177  1.00  0.00    -0.345 N 
HETATM   16  H1  UNL     1      -0.767  49.903 -22.816  1.00  0.00     0.163 HD
BRANCH  15  17
HETATM   17  C2  UNL     1      -2.015  50.152 -24.500  1.00  0.00     0.159 C 
BRANCH  17  18
HETATM   18  C3  UNL     1      -1.350  50.963 -25.607  1.00  0.00    -0.030 A 
HETATM   19  C4  UNL     1      -2.097  51.765 -26.488  1.00  0.00     0.012 A 
HETATM   20  C5  UNL     1      -1.466  52.502 -27.494  1.00  0.00     0.044 A 
HETATM   21  C6  UNL     1      -0.084  52.448 -27.625  1.00  0.00     0.138 A 
HETATM   22  F1  UNL     1       0.498  53.161 -28.601  1.00  0.00    -0.204 F 
HETATM   23  C7  UNL     1       0.677  51.671 -26.759  1.00  0.00     0.073 A 
HETATM   24 CL1  UNL     1       2.391  51.601 -26.914  1.00  0.00    -0.081 Cl
HETATM   25  C8  UNL     1       0.050  50.933 -25.751  1.00  0.00     0.036 A 
ENDBRANCH  17  18
BRANCH  17  26
HETATM   26  C9  UNL     1      -3.561  50.203 -24.493  1.00  0.00     0.155 C 
HETATM   27  F2  UNL     1      -3.984  49.236 -25.389  1.00  0.00    -0.238 F 
HETATM   28  C10 UNL     1      -4.287  49.902 -23.191  1.00  0.00     0.078 C 
HETATM   29  C11 UNL     1      -5.677  50.437 -23.493  1.00  0.00     0.273 C 
HETATM   30  N2  UNL     1      -5.419  51.706 -24.174  1.00  0.00     0.086 N 
HETATM   31  C12 UNL     1      -4.178  51.529 -24.952  1.00  0.00     0.315 C 
HETATM   32  H10 UNL     1      -6.198  51.951 -24.785  1.00  0.00     0.316 HD
ENDBRANCH  17  26
ENDBRANCH  15  17
ENDBRANCH   1  13
BRANCH   8  33
HETATM   33  N4  UNL     1       0.114  49.775 -16.141  1.00  0.00    -0.259 NA
HETATM   34  H16 UNL     1      -0.079  48.914 -16.642  1.00  0.00     0.131 HD
BRANCH  33  35
HETATM   35  C19 UNL     1      -0.813  50.128 -15.072  1.00  0.00     0.067 C 
HETATM   36  C20 UNL     1      -2.156  50.575 -15.658  1.00  0.00     0.046 C 
HETATM   37  C21 UNL     1      -3.064  51.090 -14.552  1.00  0.00     0.169 C 
HETATM   38  O2  UNL     1      -2.440  52.152 -13.833  1.00  0.00    -0.391 OA
HETATM   39  C22 UNL     1      -1.225  51.745 -13.206  1.00  0.00     0.169 C 
HETATM   40  C23 UNL     1      -0.218  51.270 -14.241  1.00  0.00     0.046 C 
ENDBRANCH  33  35
ENDBRANCH   8  33
TORSDOF 6
ENDMDL
MODEL 2
REMARK minimizedAffinity -9.05686283
REMARK CNNscore 0.263383687
REMARK CNNaffinity 6.89600134
REMARK  6 active torsions:
REMARK  status: ('A' for Active; 'I' for Inactive)
REMARK       I    between atoms: C1_2  and  N1_3 
REMARK    1  A    between atoms: C1_2  and  C13_19 
REMARK    2  A    between atoms: N1_3  and  C2_4 
REMARK    3  A    between atoms: C2_4  and  C3_5 
REMARK    4  A    between atoms: C2_4  and  C9_13 
REMARK    5  A    between atoms: C18_26  and  N4_27 
REMARK    6  A    between atoms: N4_27  and  C19_28 
ROOT
HETATM    1  C13 UNL     1      -0.694  52.135 -20.502  1.00  0.00     0.034 A 
HETATM    2  C14 UNL     1       0.553  52.697 -20.790  1.00  0.00     0.018 A 
HETATM    3  C15 UNL     1       0.911  52.922 -22.118  1.00  0.00     0.016 A 
HETATM    4  C16 UNL     1       0.015  52.586 -23.152  1.00  0.00     0.006 A 
HETATM    5  C17 UNL     1       0.287  52.768 -24.496  1.00  0.00     0.104 A 
HETATM    6  N3  UNL     1      -0.568  52.449 -25.483  1.00  0.00    -0.342 N 
ATOM      7  H3  UNL     1      -0.327  52.588 -26.465  1.00  0.00     0.167 HD
HETATM    8  C18 UNL     1      -1.750  51.940 -25.115  1.00  0.00     0.157 A 
HETATM    9  N5  UNL     1      -2.105  51.714 -23.844  1.00  0.00    -0.332 N 
ATOM     10  H5  UNL     1      -3.013  51.306 -23.619  1.00  0.00     0.168 HD
HETATM   11  C24 UNL     1      -1.239  52.037 -22.875  1.00  0.00     0.047 A 
HETATM   12  C25 UNL     1      -1.577  51.825 -21.546  1.00  0.00     0.047 A 
ENDROOT
BRANCH   1  13
HETATM   13  C1  UNL     1      -1.133  51.874 -19.103  1.00  0.00     0.252 C 
HETATM   14  O1  UNL     1      -2.248  52.221 -18.734  1.00  0.00    -0.268 OA
HETATM   15  N1  UNL     1      -0.237  51.194 -18.300  1.00  0.00    -0.345 N 
HETATM   16  H1  UNL     1       0.433  50.604 -18.782  1.00  0.00     0.163 HD
BRANCH  15  17
HETATM   17  C2  UNL     1      -0.642  50.714 -16.969  1.00  0.00     0.159 C 
BRANCH  17  18
HETATM   18  C3  UNL     1       0.391  51.086 -15.909  1.00  0.00    -0.030 A 
HETATM   19  C4  UNL     1       0.117  50.965 -14.535  1.00  0.00     0.012 A 
HETATM   20  C5  UNL     1       1.078  51.309 -13.581  1.00  0.00     0.044 A 
HETATM   21  C6  UNL     1       2.323  51.771 -13.992  1.00  0.00     0.138 A 
HETATM   22  F1  UNL     1       3.228  52.100 -13.057  1.00  0.00    -0.204 F 
HETATM   23  C7  UNL     1       2.620  51.889 -15.345  1.00  0.00     0.073 A 
HETATM   24 CL1  UNL     1       4.161  52.459 -15.861  1.00  0.00    -0.081 Cl
HETATM   25  C8  UNL     1       1.662  51.545 -16.301  1.00  0.00     0.036 A 
ENDBRANCH  17  18
BRANCH  17  26
HETATM   26  C9  UNL     1      -1.004  49.212 -17.029  1.00  0.00     0.155 C 
HETATM   27  F2  UNL     1       0.087  48.530 -16.514  1.00  0.00    -0.238 F 
HETATM   28  C10 UNL     1      -2.204  48.726 -16.233  1.00  0.00     0.078 C 
HETATM   29  C11 UNL     1      -2.448  47.363 -16.858  1.00  0.00     0.273 C 
HETATM   30  N2  UNL     1      -2.284  47.606 -18.292  1.00  0.00     0.086 N 
HETATM   31  C12 UNL     1      -1.250  48.649 -18.434  1.00  0.00     0.315 C 
HETATM   32  H10 UNL     1      -2.004  46.751 -18.772  1.00  0.00     0.316 HD
ENDBRANCH  17  26
ENDBRANCH  15  17
ENDBRANCH   1  13
BRANCH   8  33
HETATM   33  N4  UNL     1      -2.701  51.597 -26.063  1.00  0.00    -0.259 NA
HETATM   34  H16 UNL     1      -3.485  52.221 -25.900  1.00  0.00     0.131 HD
BRANCH  33  35
HETATM   35  C19 UNL     1      -3.015  50.179 -26.191  1.00  0.00     0.067 C 
HETATM   36  C20 UNL     1      -3.441  49.855 -27.626  1.00  0.00     0.046 C 
HETATM   37  C21 UNL     1      -3.917  48.414 -27.718  1.00  0.00     0.169 C 
HETATM   38  O2  UNL     1      -4.981  48.168 -26.801  1.00  0.00    -0.391 OA
HETATM   39  C22 UNL     1      -4.591  48.382 -25.445  1.00  0.00     0.169 C 
HETATM   40  C23 UNL     1      -4.156  49.823 -25.231  1.00  0.00     0.046 C 
ENDBRANCH  33  35
ENDBRANCH   8  33
TORSDOF 6
ENDMDL
MODEL 3
REMARK minimizedAffinity -8.68908024
REMARK CNNscore 0.246289477
REMARK CNNaffinity 6.86260557
REMARK  6 active torsions:
REMARK  status: ('A' for Active; 'I' for Inactive)
REMARK       I    between atoms: C1_2  and  N1_3 
REMARK    1  A    between atoms: C1_2  and  C13_19 
REMARK    2  A    between atoms: N1_3  and  C2_4 
REMARK    3  A    between atoms: C2_4  and  C3_5 
REMARK    4  A    between atoms: C2_4  and  C9_13 
REMARK    5  A    between atoms: C18_26  and  N4_27 
REMARK    6  A    between atoms: N4_27  and  C19_28 
ROOT
HETATM    1  C13 UNL     1      -0.314  52.049 -19.715  1.00  0.00     0.034 A 
HETATM    2  C14 UNL     1       0.404  53.106 -19.147  1.00  0.00     0.018 A 
HETATM    3  C15 UNL     1       1.062  54.010 -19.979  1.00  0.00     0.016 A 
HETATM    4  C16 UNL     1       0.993  53.853 -21.377  1.00  0.00     0.006 A 
HETATM    5  C17 UNL     1       1.619  54.698 -22.278  1.00  0.00     0.104 A 
HETATM    6  N3  UNL     1       1.553  54.551 -23.612  1.00  0.00    -0.342 N 
ATOM      7  H3  UNL     1       2.037  55.188 -24.245  1.00  0.00     0.167 HD
HETATM    8  C18 UNL     1       0.822  53.527 -24.070  1.00  0.00     0.157 A 
HETATM    9  N5  UNL     1       0.189  52.648 -23.283  1.00  0.00    -0.332 N 
ATOM     10  H5  UNL     1      -0.341  51.873 -23.684  1.00  0.00     0.168 HD
HETATM   11  C24 UNL     1       0.268  52.811 -21.956  1.00  0.00     0.047 A 
HETATM   12  C25 UNL     1      -0.384  51.923 -21.110  1.00  0.00     0.047 A 
ENDROOT
BRANCH   1  13
HETATM   13  C1  UNL     1      -1.040  51.054 -18.879  1.00  0.00     0.252 C 
HETATM   14  O1  UNL     1      -2.262  51.085 -18.807  1.00  0.00    -0.268 OA
HETATM   15  N1  UNL     1      -0.260  50.099 -18.253  1.00  0.00    -0.345 N 
HETATM   16  H1  UNL     1       0.633  49.899 -18.690  1.00  0.00     0.163 HD
BRANCH  15  17
HETATM   17  C2  UNL     1      -0.884  48.958 -17.566  1.00  0.00     0.159 C 
BRANCH  17  18
HETATM   18  C3  UNL     1      -1.772  48.159 -18.515  1.00  0.00    -0.030 A 
HETATM   19  C4  UNL     1      -1.482  48.053 -19.887  1.00  0.00     0.012 A 
HETATM   20  C5  UNL     1      -2.308  47.314 -20.738  1.00  0.00     0.044 A 
HETATM   21  C6  UNL     1      -3.427  46.669 -20.225  1.00  0.00     0.138 A 
HETATM   22  F1  UNL     1      -4.207  45.969 -21.062  1.00  0.00    -0.204 F 
HETATM   23  C7  UNL     1      -3.727  46.749 -18.869  1.00  0.00     0.073 A 
HETATM   24 CL1  UNL     1      -5.110  45.950 -18.225  1.00  0.00    -0.081 Cl
HETATM   25  C8  UNL     1      -2.903  47.487 -18.015  1.00  0.00     0.036 A 
ENDBRANCH  17  18
BRANCH  17  26
HETATM   26  C9  UNL     1      -1.577  49.428 -16.266  1.00  0.00     0.155 C 
HETATM   27  F2  UNL     1      -1.456  48.384 -15.363  1.00  0.00    -0.238 F 
HETATM   28  C10 UNL     1      -1.021  50.652 -15.554  1.00  0.00     0.078 C 
HETATM   29  C11 UNL     1      -2.167  51.001 -14.619  1.00  0.00     0.273 C 
HETATM   30  N2  UNL     1      -3.357  50.837 -15.454  1.00  0.00     0.086 N 
HETATM   31  C12 UNL     1      -3.075  49.732 -16.390  1.00  0.00     0.315 C 
HETATM   32  H10 UNL     1      -4.173  50.626 -14.880  1.00  0.00     0.316 HD
ENDBRANCH  17  26
ENDBRANCH  15  17
ENDBRANCH   1  13
BRANCH   8  33
HETATM   33  N4  UNL     1       0.684  53.306 -25.431  1.00  0.00    -0.259 NA
HETATM   34  H16 UNL     1       0.840  54.207 -25.870  1.00  0.00     0.131 HD
BRANCH  33  35
HETATM   35  C19 UNL     1      -0.502  52.572 -25.858  1.00  0.00     0.067 C 
HETATM   36  C20 UNL     1      -0.151  51.106 -26.129  1.00  0.00     0.046 C 
HETATM   37  C21 UNL     1      -1.349  50.382 -26.723  1.00  0.00     0.169 C 
HETATM   38  O2  UNL     1      -1.798  51.029 -27.912  1.00  0.00    -0.391 OA
HETATM   39  C22 UNL     1      -2.211  52.374 -27.676  1.00  0.00     0.169 C 
HETATM   40  C23 UNL     1      -1.056  53.205 -27.139  1.00  0.00     0.046 C 
ENDBRANCH  33  35
ENDBRANCH   8  33
TORSDOF 6
ENDMDL
MODEL 4
REMARK minimizedAffinity -8.73101807
REMARK CNNscore 0.215865523
REMARK CNNaffinity 6.89627218
REMARK  6 active torsions:
REMARK  status: ('A' for Active; 'I' for Inactive)
REMARK       I    between atoms: C1_2  and  N1_3 
REMARK    1  A    between atoms: C1_2  and  C13_19 
REMARK    2  A    between atoms: N1_3  and  C2_4 
REMARK    3  A    between atoms: C2_4  and  C3_5 
REMARK    4  A    between atoms: C2_4  and  C9_13 
REMARK    5  A    between atoms: C18_26  and  N4_27 
REMARK    6  A    between atoms: N4_27  and  C19_28 
ROOT
HETATM    1  C13 UNL     1      -1.562  50.315 -20.662  1.00  0.00     0.034 A 
HETATM    2  C14 UNL     1      -0.991  50.853 -19.505  1.00  0.00     0.018 A 
HETATM    3  C15 UNL     1      -0.097  51.917 -19.615  1.00  0.00     0.016 A 
HETATM    4  C16 UNL     1       0.216  52.440 -20.885  1.00  0.00     0.006 A 
HETATM    5  C17 UNL     1       1.095  53.490 -21.090  1.00  0.00     0.104 A 
HETATM    6  N3  UNL     1       1.394  53.990 -22.301  1.00  0.00    -0.342 N 
ATOM      7  H3  UNL     1       2.056  54.758 -22.414  1.00  0.00     0.167 HD
HETATM    8  C18 UNL     1       0.781  53.431 -23.352  1.00  0.00     0.157 A 
HETATM    9  N5  UNL     1      -0.076  52.406 -23.261  1.00  0.00    -0.332 N 
ATOM     10  H5  UNL     1      -0.501  52.005 -24.097  1.00  0.00     0.168 HD
HETATM   11  C24 UNL     1      -0.359  51.920 -22.046  1.00  0.00     0.047 A 
HETATM   12  C25 UNL     1      -1.249  50.863 -21.914  1.00  0.00     0.047 A 
ENDROOT
BRANCH   1  13
HETATM   13  C1  UNL     1      -2.524  49.181 -20.607  1.00  0.00     0.252 C 
HETATM   14  O1  UNL     1      -2.199  48.122 -20.084  1.00  0.00    -0.268 OA
HETATM   15  N1  UNL     1      -3.781  49.423 -21.128  1.00  0.00    -0.345 N 
HETATM   16  H1  UNL     1      -4.078  50.392 -21.139  1.00  0.00     0.163 HD
BRANCH  15  17
HETATM   17  C2  UNL     1      -4.866  48.444 -20.950  1.00  0.00     0.159 C 
BRANCH  17  18
HETATM   18  C3  UNL     1      -5.523  48.098 -22.283  1.00  0.00    -0.030 A 
HETATM   19  C4  UNL     1      -5.224  48.806 -23.461  1.00  0.00     0.012 A 
HETATM   20  C5  UNL     1      -5.837  48.470 -24.671  1.00  0.00     0.044 A 
HETATM   21  C6  UNL     1      -6.748  47.422 -24.716  1.00  0.00     0.138 A 
HETATM   22  F1  UNL     1      -7.326  47.122 -25.889  1.00  0.00    -0.204 F 
HETATM   23  C7  UNL     1      -7.051  46.701 -23.566  1.00  0.00     0.073 A 
HETATM   24 CL1  UNL     1      -8.177  45.399 -23.615  1.00  0.00    -0.081 Cl
HETATM   25  C8  UNL     1      -6.440  47.033 -22.355  1.00  0.00     0.036 A 
ENDBRANCH  17  18
BRANCH  17  26
HETATM   26  C9  UNL     1      -5.839  48.918 -19.846  1.00  0.00     0.155 C 
HETATM   27  F2  UNL     1      -5.884  50.300 -19.936  1.00  0.00    -0.238 F 
HETATM   28  C10 UNL     1      -7.286  48.455 -19.912  1.00  0.00     0.078 C 
HETATM   29  C11 UNL     1      -7.769  48.778 -18.509  1.00  0.00     0.273 C 
HETATM   30  N2  UNL     1      -6.663  48.345 -17.654  1.00  0.00     0.086 N 
HETATM   31  C12 UNL     1      -5.419  48.584 -18.409  1.00  0.00     0.315 C 
HETATM   32  H10 UNL     1      -6.661  48.866 -16.777  1.00  0.00     0.316 HD
ENDBRANCH  17  26
ENDBRANCH  15  17
ENDBRANCH   1  13
BRANCH   8  33
HETATM   33  N4  UNL     1       1.015  53.893 -24.638  1.00  0.00    -0.259 NA
HETATM   34  H16 UNL     1       0.851  54.893 -24.601  1.00  0.00     0.131 HD
BRANCH  33  35
HETATM   35  C19 UNL     1       0.364  53.166 -25.722  1.00  0.00     0.067 C 
HETATM   36  C20 UNL     1       1.311  52.106 -26.295  1.00  0.00     0.046 C 
HETATM   37  C21 UNL     1       0.690  51.459 -27.523  1.00  0.00     0.169 C 
HETATM   38  O2  UNL     1       0.365  52.440 -28.507  1.00  0.00    -0.391 OA
HETATM   39  C22 UNL     1      -0.580  53.397 -28.029  1.00  0.00     0.169 C 
HETATM   40  C23 UNL     1      -0.024  54.150 -26.831  1.00  0.00     0.046 C 
ENDBRANCH  33  35
ENDBRANCH   8  33
TORSDOF 6
ENDMDL
MODEL 5
REMARK minimizedAffinity -9.33506107
REMARK CNNscore 0.210250914
REMARK CNNaffinity 6.88892221
REMARK  6 active torsions:
REMARK  status: ('A' for Active; 'I' for Inactive)
REMARK       I    between atoms: C1_2  and  N1_3 
REMARK    1  A    between atoms: C1_2  and  C13_19 
REMARK    2  A    between atoms: N1_3  and  C2_4 
REMARK    3  A    between atoms: C2_4  and  C3_5 
REMARK    4  A    between atoms: C2_4  and  C9_13 
REMARK    5  A    between atoms: C18_26  and  N4_27 
REMARK    6  A    between atoms: N4_27  and  C19_28 
ROOT
HETATM    1  C13 UNL     1      -0.016  51.319 -20.403  1.00  0.00     0.034 A 
HETATM    2  C14 UNL     1       0.709  52.507 -20.529  1.00  0.00     0.018 A 
HETATM    3  C15 UNL     1       1.221  53.121 -19.387  1.00  0.00     0.016 A 
HETATM    4  C16 UNL     1       1.008  52.537 -18.123  1.00  0.00     0.006 A 
HETATM    5  C17 UNL     1       1.474  53.078 -16.938  1.00  0.00     0.104 A 
HETATM    6  N3  UNL     1       1.272  52.522 -15.731  1.00  0.00    -0.342 N 
ATOM      7  H3  UNL     1       1.622  52.956 -14.876  1.00  0.00     0.167 HD
HETATM    8  C18 UNL     1       0.590  51.370 -15.705  1.00  0.00     0.157 A 
HETATM    9  N5  UNL     1       0.088  50.772 -16.793  1.00  0.00    -0.332 N 
ATOM     10  H5  UNL     1      -0.441  49.903 -16.715  1.00  0.00     0.168 HD
HETATM   11  C24 UNL     1       0.298  51.343 -17.986  1.00  0.00     0.047 A 
HETATM   12  C25 UNL     1      -0.200  50.746 -19.136  1.00  0.00     0.047 A 
ENDROOT
BRANCH   1  13
HETATM   13  C1  UNL     1      -0.584  50.616 -21.585  1.00  0.00     0.252 C 
HETATM   14  O1  UNL     1      -0.850  49.422 -21.522  1.00  0.00    -0.268 OA
HETATM   15  N1  UNL     1      -0.825  51.396 -22.701  1.00  0.00    -0.345 N 
HETATM   16  H1  UNL     1      -0.974  52.384 -22.527  1.00  0.00     0.163 HD
BRANCH  15  17
HETATM   17  C2  UNL     1      -1.562  50.849 -23.850  1.00  0.00     0.159 C 
BRANCH  17  18
HETATM   18  C3  UNL     1      -1.076  51.460 -25.161  1.00  0.00    -0.030 A 
HETATM   19  C4  UNL     1      -1.927  52.218 -25.985  1.00  0.00     0.012 A 
HETATM   20  C5  UNL     1      -1.459  52.770 -27.180  1.00  0.00     0.044 A 
HETATM   21  C6  UNL     1      -0.137  52.576 -27.560  1.00  0.00     0.138 A 
HETATM   22  F1  UNL     1       0.288  53.113 -28.714  1.00  0.00    -0.204 F 
HETATM   23  C7  UNL     1       0.727  51.840 -26.755  1.00  0.00     0.073 A 
HETATM   24 CL1  UNL     1       2.368  51.597 -27.217  1.00  0.00    -0.081 Cl
HETATM   25  C8  UNL     1       0.263  51.287 -25.559  1.00  0.00     0.036 A 
ENDBRANCH  17  18
BRANCH  17  26
HETATM   26  C9  UNL     1      -3.086  50.953 -23.608  1.00  0.00     0.155 C 
HETATM   27  F2  UNL     1      -3.423  49.884 -22.795  1.00  0.00    -0.238 F 
HETATM   28  C10 UNL     1      -3.623  52.189 -22.904  1.00  0.00     0.078 C 
HETATM   29  C11 UNL     1      -5.105  52.096 -23.221  1.00  0.00     0.273 C 
HETATM   30  N2  UNL     1      -5.133  51.710 -24.632  1.00  0.00     0.086 N 
HETATM   31  C12 UNL     1      -3.961  50.845 -24.863  1.00  0.00     0.315 C 
HETATM   32  H10 UNL     1      -5.998  51.216 -24.853  1.00  0.00     0.316 HD
ENDBRANCH  17  26
ENDBRANCH  15  17
ENDBRANCH   1  13
BRANCH   8  33
HETATM   33  N4  UNL     1       0.348  50.715 -14.508  1.00  0.00    -0.259 NA
HETATM   34  H16 UNL     1      -0.398  51.237 -14.058  1.00  0.00     0.131 HD
BRANCH  33  35
HETATM   35  C19 UNL     1       1.512  50.405 -13.685  1.00  0.00     0.067 C 
HETATM   36  C20 UNL     1       2.791  50.475 -14.524  1.00  0.00     0.046 C 
HETATM   37  C21 UNL     1       3.981  49.999 -13.706  1.00  0.00     0.169 C 
HETATM   38  O2  UNL     1       3.765  48.679 -13.211  1.00  0.00    -0.391 OA
HETATM   39  C22 UNL     1       2.624  48.597 -12.358  1.00  0.00     0.169 C 
HETATM   40  C23 UNL     1       1.362  48.993 -13.107  1.00  0.00     0.046 C 
ENDBRANCH  33  35
ENDBRANCH   8  33
TORSDOF 6
ENDMDL
MODEL 6
REMARK minimizedAffinity -8.31673145
REMARK CNNscore 0.209188625
REMARK CNNaffinity 6.84731483
REMARK  6 active torsions:
REMARK  status: ('A' for Active; 'I' for Inactive)
REMARK       I    between atoms: C1_2  and  N1_3 
REMARK    1  A    between atoms: C1_2  and  C13_19 
REMARK    2  A    between atoms: N1_3  and  C2_4 
REMARK    3  A    between atoms: C2_4  and  C3_5 
REMARK    4  A    between atoms: C2_4  and  C9_13 
REMARK    5  A    between atoms: C18_26  and  N4_27 
REMARK    6  A    between atoms: N4_27  and  C19_28 
ROOT
HETATM    1  C13 UNL     1      -0.874  49.667 -20.640  1.00  0.00     0.034 A 
HETATM    2  C14 UNL     1      -0.535  50.275 -19.428  1.00  0.00     0.018 A 
HETATM    3  C15 UNL     1       0.067  51.532 -19.438  1.00  0.00     0.016 A 
HETATM    4  C16 UNL     1       0.321  52.177 -20.665  1.00  0.00     0.006 A 
HETATM    5  C17 UNL     1       0.917  53.421 -20.771  1.00  0.00     0.104 A 
HETATM    6  N3  UNL     1       1.159  54.038 -21.941  1.00  0.00    -0.342 N 
ATOM      7  H3  UNL     1       1.612  54.951 -21.980  1.00  0.00     0.167 HD
HETATM    8  C18 UNL     1       0.777  53.395 -23.051  1.00  0.00     0.157 A 
HETATM    9  N5  UNL     1       0.203  52.185 -23.056  1.00  0.00    -0.332 N 
ATOM     10  H5  UNL     1      -0.052  51.731 -23.934  1.00  0.00     0.168 HD
HETATM   11  C24 UNL     1      -0.027  51.586 -21.881  1.00  0.00     0.047 A 
HETATM   12  C25 UNL     1      -0.629  50.335 -21.848  1.00  0.00     0.047 A 
ENDROOT
BRANCH   1  13
HETATM   13  C1  UNL     1      -1.521  48.327 -20.692  1.00  0.00     0.252 C 
HETATM   14  O1  UNL     1      -0.864  47.338 -20.991  1.00  0.00    -0.268 OA
HETATM   15  N1  UNL     1      -2.857  48.282 -20.342  1.00  0.00    -0.345 N 
HETATM   16  H1  UNL     1      -3.182  49.022 -19.730  1.00  0.00     0.163 HD
BRANCH  15  17
HETATM   17  C2  UNL     1      -3.541  46.990 -20.170  1.00  0.00     0.159 C 
BRANCH  17  18
HETATM   18  C3  UNL     1      -4.704  46.845 -21.147  1.00  0.00    -0.030 A 
HETATM   19  C4  UNL     1      -5.481  45.674 -21.205  1.00  0.00     0.012 A 
HETATM   20  C5  UNL     1      -6.543  45.564 -22.106  1.00  0.00     0.044 A 
HETATM   21  C6  UNL     1      -6.842  46.624 -22.953  1.00  0.00     0.138 A 
HETATM   22  F1  UNL     1      -7.863  46.493 -23.813  1.00  0.00    -0.204 F 
HETATM   23  C7  UNL     1      -6.095  47.797 -22.907  1.00  0.00     0.073 A 
HETATM   24 CL1  UNL     1      -6.460  49.115 -23.952  1.00  0.00    -0.081 Cl
HETATM   25  C8  UNL     1      -5.033  47.910 -22.006  1.00  0.00     0.036 A 
ENDBRANCH  17  18
BRANCH  17  26
HETATM   26  C9  UNL     1      -3.908  46.772 -18.683  1.00  0.00     0.155 C 
HETATM   27  F2  UNL     1      -4.043  45.404 -18.515  1.00  0.00    -0.238 F 
HETATM   28  C10 UNL     1      -2.916  47.220 -17.622  1.00  0.00     0.078 C 
HETATM   29  C11 UNL     1      -3.784  47.210 -16.376  1.00  0.00     0.273 C 
HETATM   30  N2  UNL     1      -5.041  47.809 -16.826  1.00  0.00     0.086 N 
HETATM   31  C12 UNL     1      -5.230  47.404 -18.231  1.00  0.00     0.315 C 
HETATM   32  H10 UNL     1      -5.819  47.489 -16.248  1.00  0.00     0.316 HD
ENDBRANCH  17  26
ENDBRANCH  15  17
ENDBRANCH   1  13
BRANCH   8  33
HETATM   33  N4  UNL     1       0.971  53.961 -24.301  1.00  0.00    -0.259 NA
HETATM   34  H16 UNL     1       0.692  54.932 -24.206  1.00  0.00     0.131 HD
BRANCH  33  35
HETATM   35  C19 UNL     1       0.421  53.235 -25.440  1.00  0.00     0.067 C 
HETATM   36  C20 UNL     1      -1.055  52.905 -25.199  1.00  0.00     0.046 C 
HETATM   37  C21 UNL     1      -1.581  52.015 -26.314  1.00  0.00     0.169 C 
HETATM   38  O2  UNL     1      -0.803  50.825 -26.427  1.00  0.00    -0.391 OA
HETATM   39  C22 UNL     1       0.564  51.096 -26.734  1.00  0.00     0.169 C 
HETATM   40  C23 UNL     1       1.205  51.933 -25.638  1.00  0.00     0.046 C 
ENDBRANCH  33  35
ENDBRANCH   8  33
TORSDOF 6
ENDMDL
MODEL 7
REMARK minimizedAffinity -8.54497528
REMARK CNNscore 0.176600441
REMARK CNNaffinity 6.76087952
REMARK  6 active torsions:
REMARK  status: ('A' for Active; 'I' for Inactive)
REMARK       I    between atoms: C1_2  and  N1_3 
REMARK    1  A    between atoms: C1_2  and  C13_19 
REMARK    2  A    between atoms: N1_3  and  C2_4 
REMARK    3  A    between atoms: C2_4  and  C3_5 
REMARK    4  A    between atoms: C2_4  and  C9_13 
REMARK    5  A    between atoms: C18_26  and  N4_27 
REMARK    6  A    between atoms: N4_27  and  C19_28 
ROOT
HETATM    1  C13 UNL     1      -0.149  51.693 -18.738  1.00  0.00     0.034 A 
HETATM    2  C14 UNL     1       0.763  52.718 -18.472  1.00  0.00     0.018 A 
HETATM    3  C15 UNL     1       1.258  53.484 -19.526  1.00  0.00     0.016 A 
HETATM    4  C16 UNL     1       0.831  53.222 -20.843  1.00  0.00     0.006 A 
HETATM    5  C17 UNL     1       1.272  53.927 -21.949  1.00  0.00     0.104 A 
HETATM    6  N3  UNL     1       0.864  53.679 -23.206  1.00  0.00    -0.342 N 
ATOM      7  H3  UNL     1       1.220  54.213 -23.999  1.00  0.00     0.167 HD
HETATM    8  C18 UNL     1      -0.031  52.697 -23.366  1.00  0.00     0.157 A 
HETATM    9  N5  UNL     1      -0.511  51.950 -22.364  1.00  0.00    -0.332 N 
ATOM     10  H5  UNL     1      -1.179  51.200 -22.543  1.00  0.00     0.168 HD
HETATM   11  C24 UNL     1      -0.091  52.211 -21.119  1.00  0.00     0.047 A 
HETATM   12  C25 UNL     1      -0.574  51.462 -20.055  1.00  0.00     0.047 A 
ENDROOT
BRANCH   1  13
HETATM   13  C1  UNL     1      -0.714  50.844 -17.654  1.00  0.00     0.252 C 
HETATM   14  O1  UNL     1      -1.426  49.886 -17.930  1.00  0.00    -0.268 OA
HETATM   15  N1  UNL     1      -0.346  51.178 -16.364  1.00  0.00    -0.345 N 
HETATM   16  H1  UNL     1       0.532  51.676 -16.267  1.00  0.00     0.163 HD
BRANCH  15  17
HETATM   17  C2  UNL     1      -0.685  50.294 -15.238  1.00  0.00     0.159 C 
BRANCH  17  18
HETATM   18  C3  UNL     1      -1.229  51.089 -14.055  1.00  0.00    -0.030 A 
HETATM   19  C4  UNL     1      -2.551  50.932 -13.603  1.00  0.00     0.012 A 
HETATM   20  C5  UNL     1      -3.028  51.669 -12.516  1.00  0.00     0.044 A 
HETATM   21  C6  UNL     1      -2.186  52.564 -11.867  1.00  0.00     0.138 A 
HETATM   22  F1  UNL     1      -2.668  53.264 -10.828  1.00  0.00    -0.204 F 
HETATM   23  C7  UNL     1      -0.871  52.728 -12.288  1.00  0.00     0.073 A 
HETATM   24 CL1  UNL     1       0.179  53.834 -11.487  1.00  0.00    -0.081 Cl
HETATM   25  C8  UNL     1      -0.391  51.992 -13.374  1.00  0.00     0.036 A 
ENDBRANCH  17  18
BRANCH  17  26
HETATM   26  C9  UNL     1       0.508  49.366 -14.907  1.00  0.00     0.155 C 
HETATM   27  F2  UNL     1       1.653  50.112 -15.133  1.00  0.00    -0.238 F 
HETATM   28  C10 UNL     1       0.638  48.835 -13.488  1.00  0.00     0.078 C 
HETATM   29  C11 UNL     1       1.634  47.705 -13.681  1.00  0.00     0.273 C 
HETATM   30  N2  UNL     1       1.183  47.052 -14.911  1.00  0.00     0.086 N 
HETATM   31  C12 UNL     1       0.624  48.108 -15.776  1.00  0.00     0.315 C 
HETATM   32  H10 UNL     1       1.960  46.578 -15.372  1.00  0.00     0.316 HD
ENDBRANCH  17  26
ENDBRANCH  15  17
ENDBRANCH   1  13
BRANCH   8  33
HETATM   33  N4  UNL     1      -0.521  52.381 -24.623  1.00  0.00    -0.259 NA
HETATM   34  H16 UNL     1      -0.906  51.446 -24.538  1.00  0.00     0.131 HD
BRANCH  33  35
HETATM   35  C19 UNL     1       0.374  52.615 -25.751  1.00  0.00     0.067 C 
HETATM   36  C20 UNL     1      -0.403  52.550 -27.069  1.00  0.00     0.046 C 
HETATM   37  C21 UNL     1       0.555  52.637 -28.247  1.00  0.00     0.169 C 
HETATM   38  O2  UNL     1       1.538  51.605 -28.181  1.00  0.00    -0.391 OA
HETATM   39  C22 UNL     1       2.335  51.688 -27.001  1.00  0.00     0.169 C 
HETATM   40  C23 UNL     1       1.472  51.544 -25.757  1.00  0.00     0.046 C 
ENDBRANCH  33  35
ENDBRANCH   8  33
TORSDOF 6
ENDMDL
MODEL 8
REMARK minimizedAffinity -9.58448887
REMARK CNNscore 0.168633819
REMARK CNNaffinity 6.66416502
REMARK  6 active torsions:
REMARK  status: ('A' for Active; 'I' for Inactive)
REMARK       I    between atoms: C1_2  and  N1_3 
REMARK    1  A    between atoms: C1_2  and  C13_19 
REMARK    2  A    between atoms: N1_3  and  C2_4 
REMARK    3  A    between atoms: C2_4  and  C3_5 
REMARK    4  A    between atoms: C2_4  and  C9_13 
REMARK    5  A    between atoms: C18_26  and  N4_27 
REMARK    6  A    between atoms: N4_27  and  C19_28 
ROOT
HETATM    1  C13 UNL     1      -3.534  49.012 -26.094  1.00  0.00     0.034 A 
HETATM    2  C14 UNL     1      -4.421  48.762 -25.043  1.00  0.00     0.018 A 
HETATM    3  C15 UNL     1      -5.651  48.164 -25.313  1.00  0.00     0.016 A 
HETATM    4  C16 UNL     1      -5.983  47.814 -26.637  1.00  0.00     0.006 A 
HETATM    5  C17 UNL     1      -7.181  47.223 -26.998  1.00  0.00     0.104 A 
HETATM    6  N3  UNL     1      -7.499  46.887 -28.261  1.00  0.00    -0.342 N 
ATOM      7  H3  UNL     1      -8.397  46.463 -28.491  1.00  0.00     0.167 HD
HETATM    8  C18 UNL     1      -6.579  47.139 -29.201  1.00  0.00     0.157 A 
HETATM    9  N5  UNL     1      -5.397  47.718 -28.957  1.00  0.00    -0.332 N 
ATOM     10  H5  UNL     1      -4.739  47.904 -29.714  1.00  0.00     0.168 HD
HETATM   11  C24 UNL     1      -5.100  48.046 -27.692  1.00  0.00     0.047 A 
HETATM   12  C25 UNL     1      -3.879  48.639 -27.401  1.00  0.00     0.047 A 
ENDROOT
BRANCH   1  13
HETATM   13  C1  UNL     1      -2.206  49.645 -25.867  1.00  0.00     0.252 C 
HETATM   14  O1  UNL     1      -1.262  49.373 -26.598  1.00  0.00    -0.268 OA
HETATM   15  N1  UNL     1      -2.138  50.565 -24.837  1.00  0.00    -0.345 N 
HETATM   16  H1  UNL     1      -3.010  51.019 -24.588  1.00  0.00     0.163 HD
BRANCH  15  17
HETATM   17  C2  UNL     1      -0.934  51.391 -24.651  1.00  0.00     0.159 C 
BRANCH  17  18
HETATM   18  C3  UNL     1      -0.737  51.759 -23.184  1.00  0.00    -0.030 A 
HETATM   19  C4  UNL     1      -1.602  51.287 -22.180  1.00  0.00     0.012 A 
HETATM   20  C5  UNL     1      -1.401  51.635 -20.842  1.00  0.00     0.044 A 
HETATM   21  C6  UNL     1      -0.333  52.453 -20.494  1.00  0.00     0.138 A 
HETATM   22  F1  UNL     1      -0.164  52.778 -19.203  1.00  0.00    -0.204 F 
HETATM   23  C7  UNL     1       0.541  52.924 -21.468  1.00  0.00     0.073 A 
HETATM   24 CL1  UNL     1       1.868  53.936 -21.044  1.00  0.00    -0.081 Cl
HETATM   25  C8  UNL     1       0.344  52.576 -22.807  1.00  0.00     0.036 A 
ENDBRANCH  17  18
BRANCH  17  26
HETATM   26  C9  UNL     1      -0.950  52.589 -25.628  1.00  0.00     0.155 C 
HETATM   27  F2  UNL     1      -0.950  53.730 -24.842  1.00  0.00    -0.238 F 
HETATM   28  C10 UNL     1       0.217  52.753 -26.589  1.00  0.00     0.078 C 
HETATM   29  C11 UNL     1      -0.355  53.742 -27.590  1.00  0.00     0.273 C 
HETATM   30  N2  UNL     1      -1.718  53.260 -27.813  1.00  0.00     0.086 N 
HETATM   31  C12 UNL     1      -2.182  52.682 -26.537  1.00  0.00     0.315 C 
HETATM   32  H10 UNL     1      -2.326  54.024 -28.107  1.00  0.00     0.316 HD
ENDBRANCH  17  26
ENDBRANCH  15  17
ENDBRANCH   1  13
BRANCH   8  33
HETATM   33  N4  UNL     1      -6.813  46.813 -30.527  1.00  0.00    -0.259 NA
HETATM   34  H16 UNL     1      -6.951  45.808 -30.540  1.00  0.00     0.131 HD
BRANCH  33  35
HETATM   35  C19 UNL     1      -5.879  47.354 -31.509  1.00  0.00     0.067 C 
HETATM   36  C20 UNL     1      -6.603  47.649 -32.826  1.00  0.00     0.046 C 
HETATM   37  C21 UNL     1      -5.601  48.063 -33.892  1.00  0.00     0.169 C 
HETATM   38  O2  UNL     1      -4.603  47.060 -34.071  1.00  0.00    -0.391 OA
HETATM   39  C22 UNL     1      -3.855  46.819 -32.880  1.00  0.00     0.169 C 
HETATM   40  C23 UNL     1      -4.764  46.333 -31.762  1.00  0.00     0.046 C 
ENDBRANCH  33  35
ENDBRANCH   8  33
TORSDOF 6
ENDMDL
MODEL 9
REMARK minimizedAffinity -8.0988121
REMARK CNNscore 0.166286364
REMARK CNNaffinity 6.70704842
REMARK  6 active torsions:
REMARK  status: ('A' for Active; 'I' for Inactive)
REMARK       I    between atoms: C1_2  and  N1_3 
REMARK    1  A    between atoms: C1_2  and  C13_19 
REMARK    2  A    between atoms: N1_3  and  C2_4 
REMARK    3  A    between atoms: C2_4  and  C3_5 
REMARK    4  A    between atoms: C2_4  and  C9_13 
REMARK    5  A    between atoms: C18_26  and  N4_27 
REMARK    6  A    between atoms: N4_27  and  C19_28 
ROOT
HETATM    1  C13 UNL     1      -2.691  49.853 -21.521  1.00  0.00     0.034 A 
HETATM    2  C14 UNL     1      -2.245  50.165 -20.234  1.00  0.00     0.018 A 
HETATM    3  C15 UNL     1      -1.197  51.070 -20.073  1.00  0.00     0.016 A 
HETATM    4  C16 UNL     1      -0.605  51.664 -21.205  1.00  0.00     0.006 A 
HETATM    5  C17 UNL     1       0.440  52.568 -21.141  1.00  0.00     0.104 A 
HETATM    6  N3  UNL     1       1.005  53.136 -22.221  1.00  0.00    -0.342 N 
ATOM      7  H3  UNL     1       1.783  53.791 -22.135  1.00  0.00     0.167 HD
HETATM    8  C18 UNL     1       0.498  52.800 -23.414  1.00  0.00     0.157 A 
HETATM    9  N5  UNL     1      -0.503  51.928 -23.583  1.00  0.00    -0.332 N 
ATOM     10  H5  UNL     1      -0.840  51.693 -24.517  1.00  0.00     0.168 HD
HETATM   11  C24 UNL     1      -1.052  51.372 -22.495  1.00  0.00     0.047 A 
HETATM   12  C25 UNL     1      -2.098  50.470 -22.633  1.00  0.00     0.047 A 
ENDROOT
BRANCH   1  13
HETATM   13  C1  UNL     1      -3.806  48.896 -21.755  1.00  0.00     0.252 C 
HETATM   14  O1  UNL     1      -3.582  47.799 -22.252  1.00  0.00    -0.268 OA
HETATM   15  N1  UNL     1      -5.059  49.305 -21.338  1.00  0.00    -0.345 N 
HETATM   16  H1  UNL     1      -5.076  49.994 -20.594  1.00  0.00     0.163 HD
BRANCH  15  17
HETATM   17  C2  UNL     1      -6.192  48.367 -21.341  1.00  0.00     0.159 C 
BRANCH  17  18
HETATM   18  C3  UNL     1      -5.798  47.022 -20.738  1.00  0.00    -0.030 A 
HETATM   19  C4  UNL     1      -5.905  45.824 -21.467  1.00  0.00     0.012 A 
HETATM   20  C5  UNL     1      -5.536  44.604 -20.896  1.00  0.00     0.044 A 
HETATM   21  C6  UNL     1      -5.053  44.570 -19.593  1.00  0.00     0.138 A 
HETATM   22  F1  UNL     1      -4.709  43.385 -19.065  1.00  0.00    -0.204 F 
HETATM   23  C7  UNL     1      -4.928  45.743 -18.856  1.00  0.00     0.073 A 
HETATM   24 CL1  UNL     1      -4.328  45.709 -17.243  1.00  0.00    -0.081 Cl
HETATM   25  C8  UNL     1      -5.295  46.965 -19.425  1.00  0.00     0.036 A 
ENDBRANCH  17  18
BRANCH  17  26
HETATM   26  C9  UNL     1      -6.820  48.290 -22.752  1.00  0.00     0.155 C 
HETATM   27  F2  UNL     1      -6.076  47.358 -23.457  1.00  0.00    -0.238 F 
HETATM   28  C10 UNL     1      -8.267  47.838 -22.875  1.00  0.00     0.078 C 
HETATM   29  C11 UNL     1      -8.599  48.277 -24.291  1.00  0.00     0.273 C 
HETATM   30  N2  UNL     1      -8.000  49.608 -24.390  1.00  0.00     0.086 N 
HETATM   31  C12 UNL     1      -6.779  49.591 -23.564  1.00  0.00     0.315 C 
HETATM   32  H10 UNL     1      -7.779  49.831 -25.360  1.00  0.00     0.316 HD
ENDBRANCH  17  26
ENDBRANCH  15  17
ENDBRANCH   1  13
BRANCH   8  33
HETATM   33  N4  UNL     1       1.007  53.348 -24.581  1.00  0.00    -0.259 NA
HETATM   34  H16 UNL     1       1.058  54.347 -24.412  1.00  0.00     0.131 HD
BRANCH  33  35
HETATM   35  C19 UNL     1       0.376  52.931 -25.828  1.00  0.00     0.067 C 
HETATM   36  C20 UNL     1       1.325  52.035 -26.630  1.00  0.00     0.046 C 
HETATM   37  C21 UNL     1       0.729  51.731 -27.995  1.00  0.00     0.169 C 
HETATM   38  O2  UNL     1       0.440  52.934 -28.705  1.00  0.00    -0.391 OA
HETATM   39  C22 UNL     1      -0.506  53.755 -28.021  1.00  0.00     0.169 C 
HETATM   40  C23 UNL     1       0.028  54.171 -26.659  1.00  0.00     0.046 C 
ENDBRANCH  33  35
ENDBRANCH   8  33
TORSDOF 6
ENDMDL
