MODEL 1
REMARK minimizedAffinity -9.86859512
REMARK  5 active torsions:
REMARK  status: ('A' for Active; 'I' for Inactive)
REMARK    1  A    between atoms: C4_5  and  C5_6 
REMARK    2  A    between atoms: C8_9  and  C9_10 
REMARK    3  A    between atoms: C12_16  and  N3_17 
REMARK       I    between atoms: N3_17  and  C13_18 
REMARK       I    between atoms: C13_18  and  N4_20 
REMARK    4  A    between atoms: N4_20  and  C14_21 
REMARK    5  A    between atoms: C14_21  and  C16_23 
ROOT
HETATM    1  C9  UNL     1      -0.936  52.551 -24.614  1.00  0.00     0.073 A 
HETATM    2  N1  UNL     1      -0.506  53.571 -25.375  1.00  0.00    -0.299 N 
ATOM      3  H1  UNL     1       0.107  54.339 -25.100  1.00  0.00     0.187 HD
HETATM    4  N2  UNL     1      -1.061  53.354 -26.575  1.00  0.00    -0.299 N 
HETATM    5  C10 UNL     1      -1.814  52.218 -26.647  1.00  0.00     0.065 A 
HETATM    6  C11 UNL     1      -2.531  51.636 -27.692  1.00  0.00     0.080 A 
HETATM    7  C12 UNL     1      -3.173  50.437 -27.388  1.00  0.00     0.111 A 
HETATM    8  N5  UNL     1      -3.123  49.871 -26.168  1.00  0.00    -0.351 N 
ATOM      9  H5  UNL     1      -3.622  48.998 -25.997  1.00  0.00     0.166 HD
HETATM   10  C22 UNL     1      -2.416  50.449 -25.164  1.00  0.00     0.105 A 
HETATM   11  C23 UNL     1      -1.748  51.655 -25.378  1.00  0.00     0.036 A 
HETATM   12  H7  UNL     1      -0.876  54.024 -27.315  1.00  0.00     0.187 HD
ENDROOT
BRANCH   7  13
HETATM   13  N3  UNL     1      -3.918  49.843 -28.414  1.00  0.00    -0.295 N 
HETATM   14  C13 UNL     1      -4.757  48.762 -28.271  1.00  0.00     0.322 C 
HETATM   15  O1  UNL     1      -4.915  48.062 -27.283  1.00  0.00    -0.247 OA
HETATM   16  N4  UNL     1      -5.429  48.527 -29.462  1.00  0.00    -0.335 N 
HETATM   17  H10 UNL     1      -5.703  49.377 -29.932  1.00  0.00     0.165 HD
HETATM   18  H9  UNL     1      -3.707  50.110 -29.360  1.00  0.00     0.172 HD
BRANCH  16  19
HETATM   19  C14 UNL     1      -6.409  47.449 -29.541  1.00  0.00     0.115 C 
HETATM   20  C15 UNL     1      -6.681  46.819 -28.171  1.00  0.00     0.037 C 
BRANCH  19  21
HETATM   21  C16 UNL     1      -5.930  46.404 -30.538  1.00  0.00    -0.036 A 
HETATM   22  C17 UNL     1      -4.845  46.691 -31.385  1.00  0.00     0.012 A 
HETATM   23  C18 UNL     1      -4.386  45.739 -32.296  1.00  0.00     0.043 A 
HETATM   24  C19 UNL     1      -5.007  44.498 -32.363  1.00  0.00     0.116 A 
HETATM   25  F1  UNL     1      -4.563  43.584 -33.236  1.00  0.00    -0.206 F 
HETATM   26  C20 UNL     1      -6.076  44.189 -31.534  1.00  0.00     0.043 A 
HETATM   27  C21 UNL     1      -6.537  45.139 -30.621  1.00  0.00     0.012 A 
ENDBRANCH  19  21
ENDBRANCH  16  19
ENDBRANCH   7  13
BRANCH   1  28
HETATM   28  C8  UNL     1      -0.551  52.462 -23.209  1.00  0.00     0.008 A 
HETATM   29  C7  UNL     1       0.656  53.003 -22.759  1.00  0.00     0.017 A 
HETATM   30  C6  UNL     1       1.005  52.907 -21.409  1.00  0.00     0.033 A 
HETATM   31  C5  UNL     1       0.136  52.269 -20.527  1.00  0.00     0.066 A 
HETATM   32  N6  UNL     1      -1.049  51.750 -20.942  1.00  0.00    -0.363 N 
HETATM   33  C24 UNL     1      -1.364  51.865 -22.256  1.00  0.00     0.102 A 
ATOM     34  H6  UNL     1      -1.681  51.289 -20.287  1.00  0.00     0.165 HD
BRANCH  31  35
HETATM   35  C4  UNL     1       0.412  52.117 -19.083  1.00  0.00     0.101 A 
HETATM   36  S1  UNL     1      -0.660  51.215 -18.069  1.00  0.00    -0.080 SA
HETATM   37  C3  UNL     1       0.324  51.561 -16.714  1.00  0.00     0.076 A 
HETATM   38  C2  UNL     1       1.400  52.337 -17.095  1.00  0.00     0.012 A 
HETATM   39  C1  UNL     1       2.475  52.858 -16.213  1.00  0.00     0.068 C 
HETATM   40  N7  UNL     1       1.438  52.648 -18.442  1.00  0.00    -0.352 N 
ATOM     41  H7  UNL     1       2.163  53.213 -18.882  1.00  0.00     0.166 HD
ENDBRANCH  31  35
ENDBRANCH   1  28
TORSDOF 5
ENDMDL
MODEL 2
REMARK minimizedAffinity -9.65286446
REMARK  5 active torsions:
REMARK  status: ('A' for Active; 'I' for Inactive)
REMARK    1  A    between atoms: C4_5  and  C5_6 
REMARK    2  A    between atoms: C8_9  and  C9_10 
REMARK    3  A    between atoms: C12_16  and  N3_17 
REMARK       I    between atoms: N3_17  and  C13_18 
REMARK       I    between atoms: C13_18  and  N4_20 
REMARK    4  A    between atoms: N4_20  and  C14_21 
REMARK    5  A    between atoms: C14_21  and  C16_23 
ROOT
HETATM    1  C9  UNL     1      -0.087  52.993 -24.009  1.00  0.00     0.073 A 
HETATM    2  N1  UNL     1       0.492  53.894 -24.820  1.00  0.00    -0.299 N 
ATOM      3  H1  UNL     1       1.219  54.570 -24.584  1.00  0.00     0.187 HD
HETATM    4  N2  UNL     1      -0.098  53.707 -26.009  1.00  0.00    -0.299 N 
HETATM    5  C10 UNL     1      -1.019  52.700 -26.024  1.00  0.00     0.065 A 
HETATM    6  C11 UNL     1      -1.825  52.186 -27.040  1.00  0.00     0.080 A 
HETATM    7  C12 UNL     1      -2.645  51.118 -26.676  1.00  0.00     0.111 A 
HETATM    8  N5  UNL     1      -2.674  50.613 -25.430  1.00  0.00    -0.351 N 
ATOM      9  H5  UNL     1      -3.302  49.838 -25.215  1.00  0.00     0.166 HD
HETATM   10  C22 UNL     1      -1.879  51.123 -24.455  1.00  0.00     0.105 A 
HETATM   11  C23 UNL     1      -1.033  52.198 -24.729  1.00  0.00     0.036 A 
HETATM   12  H7  UNL     1       0.184  54.302 -26.781  1.00  0.00     0.187 HD
ENDROOT
BRANCH   7  13
HETATM   13  N3  UNL     1      -3.480  50.597 -27.672  1.00  0.00    -0.295 N 
HETATM   14  C13 UNL     1      -3.858  49.279 -27.791  1.00  0.00     0.322 C 
HETATM   15  O1  UNL     1      -3.456  48.324 -27.145  1.00  0.00    -0.247 OA
HETATM   16  N4  UNL     1      -4.791  49.147 -28.809  1.00  0.00    -0.335 N 
HETATM   17  H10 UNL     1      -5.448  49.912 -28.840  1.00  0.00     0.165 HD
HETATM   18  H9  UNL     1      -3.691  51.185 -28.460  1.00  0.00     0.172 HD
BRANCH  16  19
HETATM   19  C14 UNL     1      -5.371  47.840 -29.095  1.00  0.00     0.115 C 
HETATM   20  C15 UNL     1      -5.408  47.545 -30.598  1.00  0.00     0.037 C 
BRANCH  19  21
HETATM   21  C16 UNL     1      -6.764  47.763 -28.488  1.00  0.00    -0.036 A 
HETATM   22  C17 UNL     1      -6.925  47.347 -27.155  1.00  0.00     0.012 A 
HETATM   23  C18 UNL     1      -8.195  47.284 -26.580  1.00  0.00     0.043 A 
HETATM   24  C19 UNL     1      -9.307  47.638 -27.333  1.00  0.00     0.116 A 
HETATM   25  F1  UNL     1     -10.525  47.579 -26.779  1.00  0.00    -0.206 F 
HETATM   26  C20 UNL     1      -9.174  48.057 -28.649  1.00  0.00     0.043 A 
HETATM   27  C21 UNL     1      -7.906  48.122 -29.227  1.00  0.00     0.012 A 
ENDBRANCH  19  21
ENDBRANCH  16  19
ENDBRANCH   7  13
BRANCH   1  28
HETATM   28  C8  UNL     1       0.290  52.915 -22.601  1.00  0.00     0.008 A 
HETATM   29  C7  UNL     1       1.020  53.940 -21.995  1.00  0.00     0.017 A 
HETATM   30  C6  UNL     1       1.370  53.846 -20.645  1.00  0.00     0.033 A 
HETATM   31  C5  UNL     1       0.981  52.720 -19.921  1.00  0.00     0.066 A 
HETATM   32  N6  UNL     1       0.259  51.720 -20.489  1.00  0.00    -0.363 N 
HETATM   33  C24 UNL     1      -0.073  51.844 -21.798  1.00  0.00     0.102 A 
ATOM     34  H6  UNL     1      -0.025  50.902 -19.949  1.00  0.00     0.165 HD
BRANCH  31  35
HETATM   35  C4  UNL     1       1.300  52.525 -18.491  1.00  0.00     0.101 A 
HETATM   36  S1  UNL     1       0.142  51.822 -17.415  1.00  0.00    -0.080 SA
HETATM   37  C3  UNL     1       1.238  51.997 -16.115  1.00  0.00     0.076 A 
HETATM   38  C2  UNL     1       2.411  52.575 -16.557  1.00  0.00     0.012 A 
HETATM   39  C1  UNL     1       3.603  52.904 -15.736  1.00  0.00     0.068 C 
HETATM   40  N7  UNL     1       2.433  52.873 -17.907  1.00  0.00    -0.352 N 
ATOM     41  H7  UNL     1       3.221  53.304 -18.389  1.00  0.00     0.166 HD
ENDBRANCH  31  35
ENDBRANCH   1  28
TORSDOF 5
ENDMDL
MODEL 3
REMARK minimizedAffinity -9.577075
REMARK  5 active torsions:
REMARK  status: ('A' for Active; 'I' for Inactive)
REMARK    1  A    between atoms: C4_5  and  C5_6 
REMARK    2  A    between atoms: C8_9  and  C9_10 
REMARK    3  A    between atoms: C12_16  and  N3_17 
REMARK       I    between atoms: N3_17  and  C13_18 
REMARK       I    between atoms: C13_18  and  N4_20 
REMARK    4  A    between atoms: N4_20  and  C14_21 
REMARK    5  A    between atoms: C14_21  and  C16_23 
ROOT
HETATM    1  C9  UNL     1      -0.810  52.738 -24.499  1.00  0.00     0.073 A 
HETATM    2  N1  UNL     1      -0.257  53.752 -25.187  1.00  0.00    -0.299 N 
ATOM      3  H1  UNL     1       0.402  54.452 -24.846  1.00  0.00     0.187 HD
HETATM    4  N2  UNL     1      -0.764  53.636 -26.422  1.00  0.00    -0.299 N 
HETATM    5  C10 UNL     1      -1.604  52.573 -26.586  1.00  0.00     0.065 A 
HETATM    6  C11 UNL     1      -2.311  52.102 -27.692  1.00  0.00     0.080 A 
HETATM    7  C12 UNL     1      -3.066  50.949 -27.478  1.00  0.00     0.111 A 
HETATM    8  N5  UNL     1      -3.126  50.327 -26.287  1.00  0.00    -0.351 N 
ATOM      9  H5  UNL     1      -3.704  49.493 -26.183  1.00  0.00     0.166 HD
HETATM   10  C22 UNL     1      -2.427  50.797 -25.222  1.00  0.00     0.105 A 
HETATM   11  C23 UNL     1      -1.651  51.951 -25.345  1.00  0.00     0.036 A 
HETATM   12  H7  UNL     1      -0.486  54.321 -27.118  1.00  0.00     0.187 HD
ENDROOT
BRANCH   7  13
HETATM   13  N3  UNL     1      -3.802  50.467 -28.568  1.00  0.00    -0.295 N 
HETATM   14  C13 UNL     1      -4.203  49.164 -28.748  1.00  0.00     0.322 C 
HETATM   15  O1  UNL     1      -3.902  48.188 -28.079  1.00  0.00    -0.247 OA
HETATM   16  N4  UNL     1      -5.023  49.074 -29.864  1.00  0.00    -0.335 N 
HETATM   17  H10 UNL     1      -5.651  49.859 -29.953  1.00  0.00     0.165 HD
HETATM   18  H9  UNL     1      -3.909  51.071 -29.363  1.00  0.00     0.172 HD
BRANCH  16  19
HETATM   19  C14 UNL     1      -5.606  47.788 -30.232  1.00  0.00     0.115 C 
HETATM   20  C15 UNL     1      -5.133  47.318 -31.612  1.00  0.00     0.037 C 
BRANCH  19  21
HETATM   21  C16 UNL     1      -7.124  47.890 -30.179  1.00  0.00    -0.036 A 
HETATM   22  C17 UNL     1      -7.874  47.774 -31.362  1.00  0.00     0.012 A 
HETATM   23  C18 UNL     1      -9.267  47.853 -31.328  1.00  0.00     0.043 A 
HETATM   24  C19 UNL     1      -9.914  48.046 -30.114  1.00  0.00     0.116 A 
HETATM   25  F1  UNL     1     -11.252  48.118 -30.083  1.00  0.00    -0.206 F 
HETATM   26  C20 UNL     1      -9.195  48.158 -28.932  1.00  0.00     0.043 A 
HETATM   27  C21 UNL     1      -7.803  48.079 -28.962  1.00  0.00     0.012 A 
ENDBRANCH  19  21
ENDBRANCH  16  19
ENDBRANCH   7  13
BRANCH   1  28
HETATM   28  C8  UNL     1      -0.507  52.555 -23.083  1.00  0.00     0.008 A 
HETATM   29  C7  UNL     1       0.707  52.988 -22.545  1.00  0.00     0.017 A 
HETATM   30  C6  UNL     1       0.976  52.802 -21.186  1.00  0.00     0.033 A 
HETATM   31  C5  UNL     1       0.020  52.182 -20.384  1.00  0.00     0.066 A 
HETATM   32  N6  UNL     1      -1.172  51.767 -20.885  1.00  0.00    -0.363 N 
HETATM   33  C24 UNL     1      -1.408  51.969 -22.206  1.00  0.00     0.102 A 
ATOM     34  H6  UNL     1      -1.868  51.319 -20.288  1.00  0.00     0.165 HD
BRANCH  31  35
HETATM   35  C4  UNL     1       0.207  51.941 -18.938  1.00  0.00     0.101 A 
HETATM   36  S1  UNL     1      -0.836  50.861 -18.080  1.00  0.00    -0.080 SA
HETATM   37  C3  UNL     1       0.009  51.189 -16.631  1.00  0.00     0.076 A 
HETATM   38  C2  UNL     1       1.025  52.092 -16.868  1.00  0.00     0.012 A 
HETATM   39  C1  UNL     1       1.976  52.641 -15.869  1.00  0.00     0.068 C 
HETATM   40  N7  UNL     1       1.126  52.514 -18.181  1.00  0.00    -0.352 N 
ATOM     41  H7  UNL     1       1.819  53.180 -18.520  1.00  0.00     0.166 HD
ENDBRANCH  31  35
ENDBRANCH   1  28
TORSDOF 5
ENDMDL
MODEL 4
REMARK minimizedAffinity -9.53946972
REMARK  5 active torsions:
REMARK  status: ('A' for Active; 'I' for Inactive)
REMARK    1  A    between atoms: C4_5  and  C5_6 
REMARK    2  A    between atoms: C8_9  and  C9_10 
REMARK    3  A    between atoms: C12_16  and  N3_17 
REMARK       I    between atoms: N3_17  and  C13_18 
REMARK       I    between atoms: C13_18  and  N4_20 
REMARK    4  A    between atoms: N4_20  and  C14_21 
REMARK    5  A    between atoms: C14_21  and  C16_23 
ROOT
HETATM    1  C9  UNL     1      -0.421  50.387 -19.346  1.00  0.00     0.073 A 
HETATM    2  N1  UNL     1      -0.867  49.199 -18.902  1.00  0.00    -0.299 N 
ATOM      3  H1  UNL     1      -1.298  48.451 -19.446  1.00  0.00     0.187 HD
HETATM    4  N2  UNL     1      -0.618  49.217 -17.585  1.00  0.00    -0.299 N 
HETATM    5  C10 UNL     1       0.001  50.352 -17.146  1.00  0.00     0.065 A 
HETATM    6  C11 UNL     1       0.437  50.750 -15.883  1.00  0.00     0.080 A 
HETATM    7  C12 UNL     1       1.057  51.997 -15.826  1.00  0.00     0.111 A 
HETATM    8  N5  UNL     1       1.222  52.780 -16.906  1.00  0.00    -0.351 N 
ATOM      9  H5  UNL     1       1.673  53.690 -16.806  1.00  0.00     0.166 HD
HETATM   10  C22 UNL     1       0.796  52.374 -18.130  1.00  0.00     0.105 A 
HETATM   11  C23 UNL     1       0.157  51.143 -18.278  1.00  0.00     0.036 A 
HETATM   12  H7  UNL     1      -0.891  48.407 -17.037  1.00  0.00     0.187 HD
ENDROOT
BRANCH   7  13
HETATM   13  N3  UNL     1       1.486  52.430 -14.565  1.00  0.00    -0.295 N 
HETATM   14  C13 UNL     1       0.674  52.646 -13.474  1.00  0.00     0.322 C 
HETATM   15  O1  UNL     1      -0.545  52.619 -13.432  1.00  0.00    -0.247 OA
HETATM   16  N4  UNL     1       1.449  52.939 -12.362  1.00  0.00    -0.335 N 
HETATM   17  H10 UNL     1       2.295  52.391 -12.317  1.00  0.00     0.165 HD
HETATM   18  H9  UNL     1       2.427  52.771 -14.483  1.00  0.00     0.172 HD
BRANCH  16  19
HETATM   19  C14 UNL     1       0.808  53.168 -11.072  1.00  0.00     0.115 C 
HETATM   20  C15 UNL     1      -0.681  53.498 -11.222  1.00  0.00     0.037 C 
BRANCH  19  21
HETATM   21  C16 UNL     1       1.543  54.276 -10.333  1.00  0.00    -0.036 A 
HETATM   22  C17 UNL     1       1.018  54.785  -9.132  1.00  0.00     0.012 A 
HETATM   23  C18 UNL     1       1.687  55.793  -8.437  1.00  0.00     0.043 A 
HETATM   24  C19 UNL     1       2.882  56.294  -8.936  1.00  0.00     0.116 A 
HETATM   25  F1  UNL     1       3.525  57.260  -8.266  1.00  0.00    -0.206 F 
HETATM   26  C20 UNL     1       3.424  55.805 -10.117  1.00  0.00     0.043 A 
HETATM   27  C21 UNL     1       2.758  54.797 -10.814  1.00  0.00     0.012 A 
ENDBRANCH  19  21
ENDBRANCH  16  19
ENDBRANCH   7  13
BRANCH   1  28
HETATM   28  C8  UNL     1      -0.549  50.745 -20.755  1.00  0.00     0.008 A 
HETATM   29  C7  UNL     1       0.157  51.825 -21.290  1.00  0.00     0.017 A 
HETATM   30  C6  UNL     1       0.020  52.150 -22.642  1.00  0.00     0.033 A 
HETATM   31  C5  UNL     1      -0.827  51.384 -23.441  1.00  0.00     0.066 A 
HETATM   32  N6  UNL     1      -1.512  50.322 -22.943  1.00  0.00    -0.363 N 
HETATM   33  C24 UNL     1      -1.352  50.026 -21.629  1.00  0.00     0.102 A 
ATOM     34  H6  UNL     1      -2.125  49.764 -23.537  1.00  0.00     0.165 HD
BRANCH  31  35
HETATM   35  C4  UNL     1      -1.041  51.644 -24.880  1.00  0.00     0.101 A 
HETATM   36  S1  UNL     1      -2.622  51.979 -25.493  1.00  0.00    -0.080 SA
HETATM   37  C3  UNL     1      -1.987  52.105 -27.076  1.00  0.00     0.076 A 
HETATM   38  C2  UNL     1      -0.624  51.886 -27.059  1.00  0.00     0.012 A 
HETATM   39  C1  UNL     1       0.291  51.896 -28.228  1.00  0.00     0.068 C 
HETATM   40  N7  UNL     1      -0.099  51.623 -25.807  1.00  0.00    -0.352 N 
ATOM     41  H7  UNL     1       0.887  51.437 -25.623  1.00  0.00     0.166 HD
ENDBRANCH  31  35
ENDBRANCH   1  28
TORSDOF 5
ENDMDL
MODEL 5
REMARK minimizedAffinity -9.53510189
REMARK  5 active torsions:
REMARK  status: ('A' for Active; 'I' for Inactive)
REMARK    1  A    between atoms: C4_5  and  C5_6 
REMARK    2  A    between atoms: C8_9  and  C9_10 
REMARK    3  A    between atoms: C12_16  and  N3_17 
REMARK       I    between atoms: N3_17  and  C13_18 
REMARK       I    between atoms: C13_18  and  N4_20 
REMARK    4  A    between atoms: N4_20  and  C14_21 
REMARK    5  A    between atoms: C14_21  and  C16_23 
ROOT
HETATM    1  C9  UNL     1      -0.337  50.662 -19.628  1.00  0.00     0.073 A 
HETATM    2  N1  UNL     1      -0.862  49.485 -19.244  1.00  0.00    -0.299 N 
ATOM      3  H1  UNL     1      -1.276  48.764 -19.835  1.00  0.00     0.187 HD
HETATM    4  N2  UNL     1      -0.720  49.472 -17.911  1.00  0.00    -0.299 N 
HETATM    5  C10 UNL     1      -0.097  50.575 -17.403  1.00  0.00     0.065 A 
HETATM    6  C11 UNL     1       0.250  50.936 -16.102  1.00  0.00     0.080 A 
HETATM    7  C12 UNL     1       0.911  52.157 -15.971  1.00  0.00     0.111 A 
HETATM    8  N5  UNL     1       1.193  52.949 -17.020  1.00  0.00    -0.351 N 
ATOM      9  H5  UNL     1       1.669  53.839 -16.867  1.00  0.00     0.166 HD
HETATM   10  C22 UNL     1       0.852  52.580 -18.281  1.00  0.00     0.105 A 
HETATM   11  C23 UNL     1       0.181  51.377 -18.504  1.00  0.00     0.036 A 
HETATM   12  H7  UNL     1      -1.068  48.666 -17.403  1.00  0.00     0.187 HD
ENDROOT
BRANCH   7  13
HETATM   13  N3  UNL     1       1.252  52.553 -14.672  1.00  0.00    -0.295 N 
HETATM   14  C13 UNL     1       0.656  52.104 -13.516  1.00  0.00     0.322 C 
HETATM   15  O1  UNL     1      -0.331  51.392 -13.411  1.00  0.00    -0.247 OA
HETATM   16  N4  UNL     1       1.332  52.604 -12.413  1.00  0.00    -0.335 N 
HETATM   17  H10 UNL     1       2.332  52.624 -12.542  1.00  0.00     0.165 HD
HETATM   18  H9  UNL     1       1.862  53.345 -14.570  1.00  0.00     0.172 HD
BRANCH  16  19
HETATM   19  C14 UNL     1       0.903  52.229 -11.070  1.00  0.00     0.115 C 
HETATM   20  C15 UNL     1       0.914  50.711 -10.866  1.00  0.00     0.037 C 
BRANCH  19  21
HETATM   21  C16 UNL     1      -0.479  52.807 -10.802  1.00  0.00    -0.036 A 
HETATM   22  C17 UNL     1      -1.563  51.946 -10.560  1.00  0.00     0.012 A 
HETATM   23  C18 UNL     1      -2.833  52.461 -10.301  1.00  0.00     0.043 A 
HETATM   24  C19 UNL     1      -3.026  53.836 -10.280  1.00  0.00     0.116 A 
HETATM   25  F1  UNL     1      -4.245  54.329 -10.029  1.00  0.00    -0.206 F 
HETATM   26  C20 UNL     1      -1.970  54.708 -10.511  1.00  0.00     0.043 A 
HETATM   27  C21 UNL     1      -0.698  54.196 -10.770  1.00  0.00     0.012 A 
ENDBRANCH  19  21
ENDBRANCH  16  19
ENDBRANCH   7  13
BRANCH   1  28
HETATM   28  C8  UNL     1      -0.337  51.046 -21.036  1.00  0.00     0.008 A 
HETATM   29  C7  UNL     1       0.442  52.113 -21.490  1.00  0.00     0.017 A 
HETATM   30  C6  UNL     1       0.428  52.464 -22.843  1.00  0.00     0.033 A 
HETATM   31  C5  UNL     1      -0.371  51.737 -23.723  1.00  0.00     0.066 A 
HETATM   32  N6  UNL     1      -1.124  50.687 -23.304  1.00  0.00    -0.363 N 
HETATM   33  C24 UNL     1      -1.083  50.365 -21.987  1.00  0.00     0.102 A 
ATOM     34  H6  UNL     1      -1.701  50.158 -23.958  1.00  0.00     0.165 HD
BRANCH  31  35
HETATM   35  C4  UNL     1      -0.455  52.027 -25.170  1.00  0.00     0.101 A 
HETATM   36  S1  UNL     1      -0.593  50.744 -26.322  1.00  0.00    -0.080 SA
HETATM   37  C3  UNL     1      -0.598  51.884 -27.597  1.00  0.00     0.076 A 
HETATM   38  C2  UNL     1      -0.494  53.163 -27.090  1.00  0.00     0.012 A 
HETATM   39  C1  UNL     1      -0.452  54.426 -27.870  1.00  0.00     0.068 C 
HETATM   40  N7  UNL     1      -0.411  53.232 -25.711  1.00  0.00    -0.352 N 
ATOM     41  H7  UNL     1      -0.326  54.098 -25.182  1.00  0.00     0.166 HD
ENDBRANCH  31  35
ENDBRANCH   1  28
TORSDOF 5
ENDMDL
MODEL 6
REMARK minimizedAffinity -9.50384331
REMARK  5 active torsions:
REMARK  status: ('A' for Active; 'I' for Inactive)
REMARK    1  A    between atoms: C4_5  and  C5_6 
REMARK    2  A    between atoms: C8_9  and  C9_10 
REMARK    3  A    between atoms: C12_16  and  N3_17 
REMARK       I    between atoms: N3_17  and  C13_18 
REMARK       I    between atoms: C13_18  and  N4_20 
REMARK    4  A    between atoms: N4_20  and  C14_21 
REMARK    5  A    between atoms: C14_21  and  C16_23 
ROOT
HETATM    1  C9  UNL     1      -0.366  50.485 -19.253  1.00  0.00     0.073 A 
HETATM    2  N1  UNL     1      -0.871  49.322 -18.807  1.00  0.00    -0.299 N 
ATOM      3  H1  UNL     1      -1.294  48.573 -19.356  1.00  0.00     0.187 HD
HETATM    4  N2  UNL     1      -0.695  49.367 -17.479  1.00  0.00    -0.299 N 
HETATM    5  C10 UNL     1      -0.068  50.494 -17.034  1.00  0.00     0.065 A 
HETATM    6  C11 UNL     1       0.309  50.913 -15.758  1.00  0.00     0.080 A 
HETATM    7  C12 UNL     1       0.963  52.142 -15.696  1.00  0.00     0.111 A 
HETATM    8  N5  UNL     1       1.212  52.892 -16.785  1.00  0.00    -0.351 N 
ATOM      9  H5  UNL     1       1.684  53.790 -16.682  1.00  0.00     0.166 HD
HETATM   10  C22 UNL     1       0.842  52.466 -18.020  1.00  0.00     0.105 A 
HETATM   11  C23 UNL     1       0.175  51.251 -18.174  1.00  0.00     0.036 A 
HETATM   12  H7  UNL     1      -1.023  48.580 -16.928  1.00  0.00     0.187 HD
ENDROOT
BRANCH   7  13
HETATM   13  N3  UNL     1       1.334  52.596 -14.424  1.00  0.00    -0.295 N 
HETATM   14  C13 UNL     1       1.831  51.811 -13.409  1.00  0.00     0.322 C 
HETATM   15  O1  UNL     1       1.925  50.594 -13.381  1.00  0.00    -0.247 OA
HETATM   16  N4  UNL     1       2.213  52.610 -12.341  1.00  0.00    -0.335 N 
HETATM   17  H10 UNL     1       2.650  53.471 -12.633  1.00  0.00     0.165 HD
HETATM   18  H9  UNL     1       1.069  53.530 -14.165  1.00  0.00     0.172 HD
BRANCH  16  19
HETATM   19  C14 UNL     1       2.810  52.000 -11.158  1.00  0.00     0.115 C 
HETATM   20  C15 UNL     1       1.758  51.657 -10.097  1.00  0.00     0.037 C 
BRANCH  19  21
HETATM   21  C16 UNL     1       3.873  52.931 -10.593  1.00  0.00    -0.036 A 
HETATM   22  C17 UNL     1       3.796  54.312 -10.841  1.00  0.00     0.012 A 
HETATM   23  C18 UNL     1       4.758  55.180 -10.320  1.00  0.00     0.043 A 
HETATM   24  C19 UNL     1       5.795  54.672  -9.549  1.00  0.00     0.116 A 
HETATM   25  F1  UNL     1       6.715  55.507  -9.047  1.00  0.00    -0.206 F 
HETATM   26  C20 UNL     1       5.889  53.313  -9.286  1.00  0.00     0.043 A 
HETATM   27  C21 UNL     1       4.930  52.442  -9.805  1.00  0.00     0.012 A 
ENDBRANCH  19  21
ENDBRANCH  16  19
ENDBRANCH   7  13
BRANCH   1  28
HETATM   28  C8  UNL     1      -0.404  50.809 -20.676  1.00  0.00     0.008 A 
HETATM   29  C7  UNL     1       0.406  51.815 -21.207  1.00  0.00     0.017 A 
HETATM   30  C6  UNL     1       0.353  52.109 -22.572  1.00  0.00     0.033 A 
HETATM   31  C5  UNL     1      -0.515  51.387 -23.388  1.00  0.00     0.066 A 
HETATM   32  N6  UNL     1      -1.300  50.395 -22.894  1.00  0.00    -0.363 N 
HETATM   33  C24 UNL     1      -1.221  50.127 -21.566  1.00  0.00     0.102 A 
ATOM     34  H6  UNL     1      -1.929  49.868 -23.501  1.00  0.00     0.165 HD
BRANCH  31  35
HETATM   35  C4  UNL     1      -0.645  51.619 -24.842  1.00  0.00     0.101 A 
HETATM   36  S1  UNL     1      -2.179  51.998 -25.543  1.00  0.00    -0.080 SA
HETATM   37  C3  UNL     1      -1.460  52.061 -27.093  1.00  0.00     0.076 A 
HETATM   38  C2  UNL     1      -0.110  51.792 -27.001  1.00  0.00     0.012 A 
HETATM   39  C1  UNL     1       0.863  51.740 -28.121  1.00  0.00     0.068 C 
HETATM   40  N7  UNL     1       0.341  51.540 -25.718  1.00  0.00    -0.352 N 
ATOM     41  H7  UNL     1       1.308  51.322 -25.479  1.00  0.00     0.166 HD
ENDBRANCH  31  35
ENDBRANCH   1  28
TORSDOF 5
ENDMDL
MODEL 7
REMARK minimizedAffinity -9.44604588
REMARK  5 active torsions:
REMARK  status: ('A' for Active; 'I' for Inactive)
REMARK    1  A    between atoms: C4_5  and  C5_6 
REMARK    2  A    between atoms: C8_9  and  C9_10 
REMARK    3  A    between atoms: C12_16  and  N3_17 
REMARK       I    between atoms: N3_17  and  C13_18 
REMARK       I    between atoms: C13_18  and  N4_20 
REMARK    4  A    between atoms: N4_20  and  C14_21 
REMARK    5  A    between atoms: C14_21  and  C16_23 
ROOT
HETATM    1  C9  UNL     1       0.230  52.408 -20.535  1.00  0.00     0.073 A 
HETATM    2  N1  UNL     1       1.066  53.452 -20.404  1.00  0.00    -0.299 N 
ATOM      3  H1  UNL     1       1.390  54.088 -21.133  1.00  0.00     0.187 HD
HETATM    4  N2  UNL     1       1.380  53.471 -19.101  1.00  0.00    -0.299 N 
HETATM    5  C10 UNL     1       0.762  52.504 -18.362  1.00  0.00     0.065 A 
HETATM    6  C11 UNL     1       0.805  52.196 -17.002  1.00  0.00     0.080 A 
HETATM    7  C12 UNL     1       0.005  51.127 -16.601  1.00  0.00     0.111 A 
HETATM    8  N5  UNL     1      -0.754  50.422 -17.458  1.00  0.00    -0.351 N 
ATOM      9  H5  UNL     1      -1.312  49.641 -17.113  1.00  0.00     0.166 HD
HETATM   10  C22 UNL     1      -0.787  50.739 -18.778  1.00  0.00     0.105 A 
HETATM   11  C23 UNL     1      -0.012  51.790 -19.268  1.00  0.00     0.036 A 
HETATM   12  H7  UNL     1       2.023  54.186 -18.776  1.00  0.00     0.187 HD
ENDROOT
BRANCH   7  13
HETATM   13  N3  UNL     1       0.046  50.785 -15.244  1.00  0.00    -0.295 N 
HETATM   14  C13 UNL     1       0.317  51.649 -14.208  1.00  0.00     0.322 C 
HETATM   15  O1  UNL     1       0.681  52.812 -14.280  1.00  0.00    -0.247 OA
HETATM   16  N4  UNL     1       0.142  51.000 -12.995  1.00  0.00    -0.335 N 
HETATM   17  H10 UNL     1      -0.650  50.375 -12.995  1.00  0.00     0.165 HD
HETATM   18  H9  UNL     1       0.042  49.808 -15.008  1.00  0.00     0.172 HD
BRANCH  16  19
HETATM   19  C14 UNL     1       0.335  51.731 -11.747  1.00  0.00     0.115 C 
HETATM   20  C15 UNL     1       0.863  50.827 -10.628  1.00  0.00     0.037 C 
BRANCH  19  21
HETATM   21  C16 UNL     1      -0.975  52.393 -11.344  1.00  0.00    -0.036 A 
HETATM   22  C17 UNL     1      -0.966  53.688 -10.798  1.00  0.00     0.012 A 
HETATM   23  C18 UNL     1      -2.160  54.312 -10.435  1.00  0.00     0.043 A 
HETATM   24  C19 UNL     1      -3.365  53.648 -10.618  1.00  0.00     0.116 A 
HETATM   25  F1  UNL     1      -4.511  54.251 -10.272  1.00  0.00    -0.206 F 
HETATM   26  C20 UNL     1      -3.401  52.371 -11.161  1.00  0.00     0.043 A 
HETATM   27  C21 UNL     1      -2.210  51.744 -11.526  1.00  0.00     0.012 A 
ENDBRANCH  19  21
ENDBRANCH  16  19
ENDBRANCH   7  13
BRANCH   1  28
HETATM   28  C8  UNL     1      -0.311  52.054 -21.844  1.00  0.00     0.008 A 
HETATM   29  C7  UNL     1       0.404  52.322 -23.014  1.00  0.00     0.017 A 
HETATM   30  C6  UNL     1      -0.132  51.974 -24.256  1.00  0.00     0.033 A 
HETATM   31  C5  UNL     1      -1.382  51.360 -24.307  1.00  0.00     0.066 A 
HETATM   32  N6  UNL     1      -2.086  51.078 -23.180  1.00  0.00    -0.363 N 
HETATM   33  C24 UNL     1      -1.536  51.420 -21.989  1.00  0.00     0.102 A 
ATOM     34  H6  UNL     1      -2.998  50.623 -23.229  1.00  0.00     0.165 HD
BRANCH  31  35
HETATM   35  C4  UNL     1      -2.035  50.952 -25.569  1.00  0.00     0.101 A 
HETATM   36  S1  UNL     1      -2.124  52.039 -26.911  1.00  0.00    -0.080 SA
HETATM   37  C3  UNL     1      -2.976  50.863 -27.813  1.00  0.00     0.076 A 
HETATM   38  C2  UNL     1      -3.150  49.721 -27.059  1.00  0.00     0.012 A 
HETATM   39  C1  UNL     1      -3.849  48.479 -27.476  1.00  0.00     0.068 C 
HETATM   40  N7  UNL     1      -2.614  49.784 -25.785  1.00  0.00    -0.352 N 
ATOM     41  H7  UNL     1      -2.660  49.028 -25.103  1.00  0.00     0.166 HD
ENDBRANCH  31  35
ENDBRANCH   1  28
TORSDOF 5
ENDMDL
MODEL 8
REMARK minimizedAffinity -9.3755703
REMARK  5 active torsions:
REMARK  status: ('A' for Active; 'I' for Inactive)
REMARK    1  A    between atoms: C4_5  and  C5_6 
REMARK    2  A    between atoms: C8_9  and  C9_10 
REMARK    3  A    between atoms: C12_16  and  N3_17 
REMARK       I    between atoms: N3_17  and  C13_18 
REMARK       I    between atoms: C13_18  and  N4_20 
REMARK    4  A    between atoms: N4_20  and  C14_21 
REMARK    5  A    between atoms: C14_21  and  C16_23 
ROOT
HETATM    1  C9  UNL     1      -1.605  50.775 -24.643  1.00  0.00     0.073 A 
HETATM    2  N1  UNL     1      -1.006  51.485 -25.615  1.00  0.00    -0.299 N 
ATOM      3  H1  UNL     1      -0.236  52.147 -25.520  1.00  0.00     0.187 HD
HETATM    4  N2  UNL     1      -1.649  51.129 -26.736  1.00  0.00    -0.299 N 
HETATM    5  C10 UNL     1      -2.624  50.192 -26.550  1.00  0.00     0.065 A 
HETATM    6  C11 UNL     1      -3.493  49.558 -27.438  1.00  0.00     0.080 A 
HETATM    7  C12 UNL     1      -4.356  48.622 -26.871  1.00  0.00     0.111 A 
HETATM    8  N5  UNL     1      -4.368  48.344 -25.555  1.00  0.00    -0.351 N 
ATOM      9  H5  UNL     1      -5.029  47.657 -25.191  1.00  0.00     0.166 HD
HETATM   10  C22 UNL     1      -3.511  48.967 -24.706  1.00  0.00     0.105 A 
HETATM   11  C23 UNL     1      -2.618  49.925 -25.187  1.00  0.00     0.036 A 
HETATM   12  H7  UNL     1      -1.362  51.563 -27.608  1.00  0.00     0.187 HD
ENDROOT
BRANCH   7  13
HETATM   13  N3  UNL     1      -5.253  47.986 -27.738  1.00  0.00    -0.295 N 
HETATM   14  C13 UNL     1      -5.227  48.060 -29.112  1.00  0.00     0.322 C 
HETATM   15  O1  UNL     1      -4.516  48.766 -29.810  1.00  0.00    -0.247 OA
HETATM   16  N4  UNL     1      -6.178  47.204 -29.647  1.00  0.00    -0.335 N 
HETATM   17  H10 UNL     1      -6.246  46.331 -29.146  1.00  0.00     0.165 HD
HETATM   18  H9  UNL     1      -6.080  47.578 -27.338  1.00  0.00     0.172 HD
BRANCH  16  19
HETATM   19  C14 UNL     1      -6.308  47.081 -31.095  1.00  0.00     0.115 C 
HETATM   20  C15 UNL     1      -7.704  47.487 -31.582  1.00  0.00     0.037 C 
BRANCH  19  21
HETATM   21  C16 UNL     1      -5.977  45.656 -31.512  1.00  0.00    -0.036 A 
HETATM   22  C17 UNL     1      -4.819  45.399 -32.266  1.00  0.00     0.012 A 
HETATM   23  C18 UNL     1      -4.495  44.095 -32.644  1.00  0.00     0.043 A 
HETATM   24  C19 UNL     1      -5.323  43.045 -32.270  1.00  0.00     0.116 A 
HETATM   25  F1  UNL     1      -5.008  41.794 -32.632  1.00  0.00    -0.206 F 
HETATM   26  C20 UNL     1      -6.469  43.273 -31.520  1.00  0.00     0.043 A 
HETATM   27  C21 UNL     1      -6.796  44.574 -31.140  1.00  0.00     0.012 A 
ENDBRANCH  19  21
ENDBRANCH  16  19
ENDBRANCH   7  13
BRANCH   1  28
HETATM   28  C8  UNL     1      -1.182  50.921 -23.254  1.00  0.00     0.008 A 
HETATM   29  C7  UNL     1      -0.523  52.074 -22.820  1.00  0.00     0.017 A 
HETATM   30  C6  UNL     1      -0.128  52.194 -21.485  1.00  0.00     0.033 A 
HETATM   31  C5  UNL     1      -0.400  51.152 -20.602  1.00  0.00     0.066 A 
HETATM   32  N6  UNL     1      -1.053  50.029 -21.000  1.00  0.00    -0.363 N 
HETATM   33  C24 UNL     1      -1.431  49.945 -22.300  1.00  0.00     0.102 A 
ATOM     34  H6  UNL     1      -1.252  49.274 -20.344  1.00  0.00     0.165 HD
BRANCH  31  35
HETATM   35  C4  UNL     1      -0.025  51.180 -19.172  1.00  0.00     0.101 A 
HETATM   36  S1  UNL     1       0.634  52.611 -18.459  1.00  0.00    -0.080 SA
HETATM   37  C3  UNL     1       0.778  51.803 -16.959  1.00  0.00     0.076 A 
HETATM   38  C2  UNL     1       0.327  50.504 -17.075  1.00  0.00     0.012 A 
HETATM   39  C1  UNL     1       0.296  49.475 -16.004  1.00  0.00     0.068 C 
HETATM   40  N7  UNL     1      -0.124  50.161 -18.337  1.00  0.00    -0.352 N 
ATOM     41  H7  UNL     1      -0.486  49.242 -18.589  1.00  0.00     0.166 HD
ENDBRANCH  31  35
ENDBRANCH   1  28
TORSDOF 5
ENDMDL
MODEL 9
REMARK minimizedAffinity -9.36226559
REMARK  5 active torsions:
REMARK  status: ('A' for Active; 'I' for Inactive)
REMARK    1  A    between atoms: C4_5  and  C5_6 
REMARK    2  A    between atoms: C8_9  and  C9_10 
REMARK    3  A    between atoms: C12_16  and  N3_17 
REMARK       I    between atoms: N3_17  and  C13_18 
REMARK       I    between atoms: C13_18  and  N4_20 
REMARK    4  A    between atoms: N4_20  and  C14_21 
REMARK    5  A    between atoms: C14_21  and  C16_23 
ROOT
HETATM    1  C9  UNL     1      -6.638  47.645 -28.347  1.00  0.00     0.073 A 
HETATM    2  N1  UNL     1      -7.410  47.162 -27.359  1.00  0.00    -0.299 N 
ATOM      3  H1  UNL     1      -8.311  46.689 -27.444  1.00  0.00     0.187 HD
HETATM    4  N2  UNL     1      -6.733  47.438 -26.235  1.00  0.00    -0.299 N 
HETATM    5  C10 UNL     1      -5.533  48.056 -26.442  1.00  0.00     0.065 A 
HETATM    6  C11 UNL     1      -4.541  48.489 -25.563  1.00  0.00     0.080 A 
HETATM    7  C12 UNL     1      -3.422  49.070 -26.157  1.00  0.00     0.111 A 
HETATM    8  N5  UNL     1      -3.297  49.219 -27.488  1.00  0.00    -0.351 N 
ATOM      9  H5  UNL     1      -2.460  49.662 -27.869  1.00  0.00     0.166 HD
HETATM   10  C22 UNL     1      -4.270  48.786 -28.330  1.00  0.00     0.105 A 
HETATM   11  C23 UNL     1      -5.430  48.200 -27.820  1.00  0.00     0.036 A 
HETATM   12  H7  UNL     1      -7.147  47.167 -25.350  1.00  0.00     0.187 HD
ENDROOT
BRANCH   7  13
HETATM   13  N3  UNL     1      -2.420  49.533 -25.295  1.00  0.00    -0.295 N 
HETATM   14  C13 UNL     1      -1.860  50.789 -25.320  1.00  0.00     0.322 C 
HETATM   15  O1  UNL     1      -2.037  51.671 -26.146  1.00  0.00    -0.247 OA
HETATM   16  N4  UNL     1      -0.999  50.943 -24.244  1.00  0.00    -0.335 N 
HETATM   17  H10 UNL     1      -1.346  50.513 -23.399  1.00  0.00     0.165 HD
HETATM   18  H9  UNL     1      -1.949  48.856 -24.720  1.00  0.00     0.172 HD
BRANCH  16  19
HETATM   19  C14 UNL     1      -0.316  52.215 -24.038  1.00  0.00     0.115 C 
HETATM   20  C15 UNL     1       0.966  52.320 -24.869  1.00  0.00     0.037 C 
BRANCH  19  21
HETATM   21  C16 UNL     1      -0.023  52.395 -22.555  1.00  0.00    -0.036 A 
HETATM   22  C17 UNL     1      -0.656  51.567 -21.612  1.00  0.00     0.012 A 
HETATM   23  C18 UNL     1      -0.388  51.712 -20.250  1.00  0.00     0.043 A 
HETATM   24  C19 UNL     1       0.513  52.681 -19.826  1.00  0.00     0.116 A 
HETATM   25  F1  UNL     1       0.771  52.816 -18.519  1.00  0.00    -0.206 F 
HETATM   26  C20 UNL     1       1.155  53.506 -20.739  1.00  0.00     0.043 A 
HETATM   27  C21 UNL     1       0.890  53.364 -22.101  1.00  0.00     0.012 A 
ENDBRANCH  19  21
ENDBRANCH  16  19
ENDBRANCH   7  13
BRANCH   1  28
HETATM   28  C8  UNL     1      -7.070  47.548 -29.737  1.00  0.00     0.008 A 
HETATM   29  C7  UNL     1      -7.819  48.567 -30.331  1.00  0.00     0.017 A 
HETATM   30  C6  UNL     1      -8.222  48.454 -31.664  1.00  0.00     0.033 A 
HETATM   31  C5  UNL     1      -7.867  47.316 -32.385  1.00  0.00     0.066 A 
HETATM   32  N6  UNL     1      -7.126  46.321 -31.831  1.00  0.00    -0.363 N 
HETATM   33  C24 UNL     1      -6.743  46.463 -30.538  1.00  0.00     0.102 A 
ATOM     34  H6  UNL     1      -6.867  45.494 -32.369  1.00  0.00     0.165 HD
BRANCH  31  35
HETATM   35  C4  UNL     1      -8.242  47.100 -33.798  1.00  0.00     0.101 A 
HETATM   36  S1  UNL     1      -9.429  45.919 -34.228  1.00  0.00    -0.080 SA
HETATM   37  C3  UNL     1      -9.218  46.301 -35.881  1.00  0.00     0.076 A 
HETATM   38  C2  UNL     1      -8.267  47.292 -36.021  1.00  0.00     0.012 A 
HETATM   39  C1  UNL     1      -7.791  47.891 -37.293  1.00  0.00     0.068 C 
HETATM   40  N7  UNL     1      -7.718  47.735 -34.832  1.00  0.00    -0.352 N 
ATOM     41  H7  UNL     1      -7.002  48.458 -34.762  1.00  0.00     0.166 HD
ENDBRANCH  31  35
ENDBRANCH   1  28
TORSDOF 5
ENDMDL
