MODEL 1
REMARK minimizedAffinity -10.2654142
REMARK  5 active torsions:
REMARK  status: ('A' for Active; 'I' for Inactive)
REMARK    1  A    between atoms: C4_4  and  C5_5 
REMARK    2  A    between atoms: C8_11  and  N3_12 
REMARK       I    between atoms: N3_12  and  C9_13 
REMARK       I    between atoms: C9_13  and  N4_15 
REMARK    3  A    between atoms: N4_15  and  C10_16 
REMARK    4  A    between atoms: C10_16  and  C11_17 
REMARK    5  A    between atoms: C11_17  and  C12_18 
ROOT
HETATM    1  C5  UNL     1       0.778  53.427 -23.829  1.00  0.00     0.072 A 
HETATM    2  N1  UNL     1       1.380  54.621 -23.974  1.00  0.00    -0.299 N 
ATOM      3  H1  UNL     1       1.546  55.136 -24.839  1.00  0.00     0.187 HD
HETATM    4  N2  UNL     1       1.713  54.982 -22.727  1.00  0.00    -0.299 N 
HETATM    5  C6  UNL     1       1.329  54.093 -21.764  1.00  0.00     0.065 A 
HETATM    6  C7  UNL     1       1.471  54.098 -20.378  1.00  0.00     0.080 A 
HETATM    7  C8  UNL     1       0.934  52.997 -19.713  1.00  0.00     0.111 A 
HETATM    8  N7  UNL     1       0.298  51.998 -20.352  1.00  0.00    -0.351 N 
ATOM      9  H7  UNL     1      -0.090  51.221 -19.816  1.00  0.00     0.166 HD
HETATM   10  C20 UNL     1       0.167  52.011 -21.703  1.00  0.00     0.105 A 
HETATM   11  C21 UNL     1       0.698  53.063 -22.450  1.00  0.00     0.036 A 
HETATM   12  H5  UNL     1       2.202  55.860 -22.600  1.00  0.00     0.187 HD
ENDROOT
BRANCH   7  13
HETATM   13  N3  UNL     1       1.069  52.981 -18.320  1.00  0.00    -0.295 N 
HETATM   14  C9  UNL     1       0.738  51.942 -17.484  1.00  0.00     0.321 C 
HETATM   15  O1  UNL     1       0.328  50.830 -17.790  1.00  0.00    -0.247 OA
HETATM   16  N4  UNL     1       0.950  52.308 -16.165  1.00  0.00    -0.342 N 
HETATM   17  H8  UNL     1       0.741  53.281 -15.957  1.00  0.00     0.164 HD
HETATM   18  H7  UNL     1       1.527  53.762 -17.882  1.00  0.00     0.172 HD
BRANCH  16  19
HETATM   19  C10 UNL     1       0.523  51.426 -15.090  1.00  0.00     0.132 C 
BRANCH  19  20
HETATM   20  C11 UNL     1       0.936  51.944 -13.707  1.00  0.00     0.096 C 
BRANCH  20  21
HETATM   21  C12 UNL     1      -0.245  52.347 -12.868  1.00  0.00     0.085 A 
HETATM   22  N5  UNL     1      -0.277  53.339 -11.995  1.00  0.00    -0.344 N 
HETATM   23  C13 UNL     1      -1.547  53.341 -11.479  1.00  0.00     0.060 A 
ATOM     24  H5  UNL     1       0.486  53.972 -11.754  1.00  0.00     0.167 HD
HETATM   25  C14 UNL     1      -2.111  54.183 -10.509  1.00  0.00     0.032 A 
HETATM   26  C18 UNL     1      -2.322  52.336 -12.051  1.00  0.00     0.062 A 
HETATM   27  C15 UNL     1      -3.446  53.989 -10.140  1.00  0.00     0.002 A 
HETATM   28  C16 UNL     1      -4.206  52.973 -10.724  1.00  0.00     0.002 A 
HETATM   29  C17 UNL     1      -3.659  52.123 -11.693  1.00  0.00     0.032 A 
HETATM   30  N6  UNL     1      -1.473  51.724 -12.943  1.00  0.00    -0.339 N 
HETATM   31  C19 UNL     1      -1.806  50.626 -13.819  1.00  0.00     0.158 C 
ENDBRANCH  20  21
ENDBRANCH  19  20
ENDBRANCH  16  19
ENDBRANCH   7  13
BRANCH   1  32
HETATM   32  C4  UNL     1       0.295  52.691 -24.999  1.00  0.00    -0.004 A 
HETATM   33  C3  UNL     1      -1.077  52.597 -25.248  1.00  0.00     0.038 A 
HETATM   34  C2  UNL     1      -1.516  51.897 -26.365  1.00  0.00     0.005 A 
HETATM   35  C1  UNL     1      -2.984  51.777 -26.648  1.00  0.00     0.068 C 
HETATM   36  N8  UNL     1      -0.664  51.295 -27.227  1.00  0.00    -0.369 N 
HETATM   37  C23 UNL     1       0.658  51.411 -26.978  1.00  0.00     0.089 A 
ATOM     38  H8  UNL     1      -1.007  50.774 -28.034  1.00  0.00     0.165 HD
HETATM   39  C22 UNL     1       1.182  52.090 -25.893  1.00  0.00     0.031 A 
ENDBRANCH   1  32
TORSDOF 5
ENDMDL
MODEL 2
REMARK minimizedAffinity -10.2510014
REMARK  5 active torsions:
REMARK  status: ('A' for Active; 'I' for Inactive)
REMARK    1  A    between atoms: C4_4  and  C5_5 
REMARK    2  A    between atoms: C8_11  and  N3_12 
REMARK       I    between atoms: N3_12  and  C9_13 
REMARK       I    between atoms: C9_13  and  N4_15 
REMARK    3  A    between atoms: N4_15  and  C10_16 
REMARK    4  A    between atoms: C10_16  and  C11_17 
REMARK    5  A    between atoms: C11_17  and  C12_18 
ROOT
HETATM    1  C5  UNL     1       0.749  53.446 -23.867  1.00  0.00     0.072 A 
HETATM    2  N1  UNL     1       1.358  54.636 -24.017  1.00  0.00    -0.299 N 
ATOM      3  H1  UNL     1       1.520  55.151 -24.882  1.00  0.00     0.187 HD
HETATM    4  N2  UNL     1       1.704  54.995 -22.772  1.00  0.00    -0.299 N 
HETATM    5  C6  UNL     1       1.322  54.109 -21.807  1.00  0.00     0.065 A 
HETATM    6  C7  UNL     1       1.476  54.112 -20.421  1.00  0.00     0.080 A 
HETATM    7  C8  UNL     1       0.938  53.015 -19.752  1.00  0.00     0.111 A 
HETATM    8  N7  UNL     1       0.290  52.019 -20.386  1.00  0.00    -0.351 N 
ATOM      9  H7  UNL     1      -0.097  51.245 -19.846  1.00  0.00     0.166 HD
HETATM   10  C20 UNL     1       0.148  52.034 -21.735  1.00  0.00     0.105 A 
HETATM   11  C21 UNL     1       0.680  53.083 -22.487  1.00  0.00     0.036 A 
HETATM   12  H5  UNL     1       2.200  55.870 -22.649  1.00  0.00     0.187 HD
ENDROOT
BRANCH   7  13
HETATM   13  N3  UNL     1       1.085  52.997 -18.361  1.00  0.00    -0.295 N 
HETATM   14  C9  UNL     1       0.794  51.945 -17.526  1.00  0.00     0.321 C 
HETATM   15  O1  UNL     1       0.418  50.822 -17.833  1.00  0.00    -0.247 OA
HETATM   16  N4  UNL     1       1.004  52.313 -16.207  1.00  0.00    -0.342 N 
HETATM   17  H8  UNL     1       0.766  53.277 -15.994  1.00  0.00     0.164 HD
HETATM   18  H7  UNL     1       1.520  53.791 -17.922  1.00  0.00     0.172 HD
BRANCH  16  19
HETATM   19  C10 UNL     1       0.615  51.413 -15.133  1.00  0.00     0.132 C 
BRANCH  19  20
HETATM   20  C11 UNL     1       0.975  51.963 -13.747  1.00  0.00     0.096 C 
BRANCH  20  21
HETATM   21  C12 UNL     1      -0.240  52.327 -12.940  1.00  0.00     0.085 A 
HETATM   22  N5  UNL     1      -1.481  51.947 -13.187  1.00  0.00    -0.344 N 
HETATM   23  C13 UNL     1      -2.247  52.505 -12.196  1.00  0.00     0.060 A 
ATOM     24  H5  UNL     1      -1.803  51.359 -13.956  1.00  0.00     0.167 HD
HETATM   25  C14 UNL     1      -3.633  52.423 -11.991  1.00  0.00     0.032 A 
HETATM   26  C18 UNL     1      -1.463  53.240 -11.310  1.00  0.00     0.062 A 
HETATM   27  C15 UNL     1      -4.193  53.086 -10.894  1.00  0.00     0.002 A 
HETATM   28  C16 UNL     1      -3.389  53.821 -10.020  1.00  0.00     0.002 A 
HETATM   29  C17 UNL     1      -2.005  53.914 -10.210  1.00  0.00     0.032 A 
HETATM   30  N6  UNL     1      -0.185  53.101 -11.799  1.00  0.00    -0.339 N 
HETATM   31  C19 UNL     1       1.014  53.657 -11.217  1.00  0.00     0.158 C 
ENDBRANCH  20  21
ENDBRANCH  19  20
ENDBRANCH  16  19
ENDBRANCH   7  13
BRANCH   1  32
HETATM   32  C4  UNL     1       0.253  52.713 -25.032  1.00  0.00    -0.004 A 
HETATM   33  C3  UNL     1      -1.123  52.594 -25.248  1.00  0.00     0.038 A 
HETATM   34  C2  UNL     1      -1.576  51.898 -26.362  1.00  0.00     0.005 A 
HETATM   35  C1  UNL     1      -3.048  51.751 -26.609  1.00  0.00     0.068 C 
HETATM   36  N8  UNL     1      -0.735  51.323 -27.252  1.00  0.00    -0.369 N 
HETATM   37  C23 UNL     1       0.591  51.463 -27.035  1.00  0.00     0.089 A 
ATOM     38  H8  UNL     1      -1.087  50.804 -28.056  1.00  0.00     0.165 HD
HETATM   39  C22 UNL     1       1.128  52.140 -25.955  1.00  0.00     0.031 A 
ENDBRANCH   1  32
TORSDOF 5
ENDMDL
MODEL 3
REMARK minimizedAffinity -10.0035791
REMARK  5 active torsions:
REMARK  status: ('A' for Active; 'I' for Inactive)
REMARK    1  A    between atoms: C4_4  and  C5_5 
REMARK    2  A    between atoms: C8_11  and  N3_12 
REMARK       I    between atoms: N3_12  and  C9_13 
REMARK       I    between atoms: C9_13  and  N4_15 
REMARK    3  A    between atoms: N4_15  and  C10_16 
REMARK    4  A    between atoms: C10_16  and  C11_17 
REMARK    5  A    between atoms: C11_17  and  C12_18 
ROOT
HETATM    1  C5  UNL     1       0.660  53.454 -23.607  1.00  0.00     0.072 A 
HETATM    2  N1  UNL     1       1.404  54.565 -23.751  1.00  0.00    -0.299 N 
ATOM      3  H1  UNL     1       1.621  55.063 -24.614  1.00  0.00     0.187 HD
HETATM    4  N2  UNL     1       1.796  54.870 -22.506  1.00  0.00    -0.299 N 
HETATM    5  C6  UNL     1       1.317  54.027 -21.545  1.00  0.00     0.065 A 
HETATM    6  C7  UNL     1       1.476  54.001 -20.161  1.00  0.00     0.080 A 
HETATM    7  C8  UNL     1       0.816  52.969 -19.497  1.00  0.00     0.111 A 
HETATM    8  N7  UNL     1       0.052  52.062 -20.135  1.00  0.00    -0.351 N 
ATOM      9  H7  UNL     1      -0.422  51.335 -19.599  1.00  0.00     0.166 HD
HETATM   10  C20 UNL     1      -0.094  52.105 -21.483  1.00  0.00     0.105 A 
HETATM   11  C21 UNL     1       0.554  53.089 -22.230  1.00  0.00     0.036 A 
HETATM   12  H5  UNL     1       2.392  55.679 -22.379  1.00  0.00     0.187 HD
ENDROOT
BRANCH   7  13
HETATM   13  N3  UNL     1       0.966  52.923 -18.107  1.00  0.00    -0.295 N 
HETATM   14  C9  UNL     1       0.811  51.814 -17.309  1.00  0.00     0.321 C 
HETATM   15  O1  UNL     1       0.578  50.664 -17.655  1.00  0.00    -0.247 OA
HETATM   16  N4  UNL     1       0.976  52.160 -15.977  1.00  0.00    -0.342 N 
HETATM   17  H8  UNL     1       0.618  53.079 -15.732  1.00  0.00     0.164 HD
HETATM   18  H7  UNL     1       1.299  53.750 -17.641  1.00  0.00     0.172 HD
BRANCH  16  19
HETATM   19  C10 UNL     1       0.704  51.183 -14.936  1.00  0.00     0.132 C 
BRANCH  19  20
HETATM   20  C11 UNL     1      -0.631  51.439 -14.225  1.00  0.00     0.096 C 
BRANCH  20  21
HETATM   21  C12 UNL     1      -0.483  52.343 -13.033  1.00  0.00     0.085 A 
HETATM   22  N5  UNL     1       0.624  52.959 -12.655  1.00  0.00    -0.344 N 
HETATM   23  C13 UNL     1       0.289  53.674 -11.534  1.00  0.00     0.060 A 
ATOM     24  H5  UNL     1       1.538  52.912 -13.105  1.00  0.00     0.167 HD
HETATM   25  C14 UNL     1       1.095  54.496 -10.731  1.00  0.00     0.032 A 
HETATM   26  C18 UNL     1      -1.055  53.505 -11.214  1.00  0.00     0.062 A 
HETATM   27  C15 UNL     1       0.520  55.129  -9.625  1.00  0.00     0.002 A 
HETATM   28  C16 UNL     1      -0.830  54.945  -9.320  1.00  0.00     0.002 A 
HETATM   29  C17 UNL     1      -1.648  54.126 -10.109  1.00  0.00     0.032 A 
HETATM   30  N6  UNL     1      -1.529  52.662 -12.193  1.00  0.00    -0.339 N 
HETATM   31  C19 UNL     1      -2.889  52.197 -12.329  1.00  0.00     0.158 C 
ENDBRANCH  20  21
ENDBRANCH  19  20
ENDBRANCH  16  19
ENDBRANCH   7  13
BRANCH   1  32
HETATM   32  C4  UNL     1       0.074  52.794 -24.775  1.00  0.00    -0.004 A 
HETATM   33  C3  UNL     1       0.862  52.542 -25.902  1.00  0.00     0.038 A 
HETATM   34  C2  UNL     1       0.289  51.910 -27.001  1.00  0.00     0.005 A 
HETATM   35  C1  UNL     1       1.113  51.636 -28.223  1.00  0.00     0.068 C 
HETATM   36  N8  UNL     1      -1.009  51.530 -27.026  1.00  0.00    -0.369 N 
HETATM   37  C23 UNL     1      -1.749  51.768 -25.921  1.00  0.00     0.089 A 
ATOM     38  H8  UNL     1      -1.414  51.081 -27.847  1.00  0.00     0.165 HD
HETATM   39  C22 UNL     1      -1.260  52.387 -24.785  1.00  0.00     0.031 A 
ENDBRANCH   1  32
TORSDOF 5
ENDMDL
MODEL 4
REMARK minimizedAffinity -9.56710529
REMARK  5 active torsions:
REMARK  status: ('A' for Active; 'I' for Inactive)
REMARK    1  A    between atoms: C4_4  and  C5_5 
REMARK    2  A    between atoms: C8_11  and  N3_12 
REMARK       I    between atoms: N3_12  and  C9_13 
REMARK       I    between atoms: C9_13  and  N4_15 
REMARK    3  A    between atoms: N4_15  and  C10_16 
REMARK    4  A    between atoms: C10_16  and  C11_17 
REMARK    5  A    between atoms: C11_17  and  C12_18 
ROOT
HETATM    1  C5  UNL     1      -0.283  51.891 -23.222  1.00  0.00     0.072 A 
HETATM    2  N1  UNL     1      -1.163  50.899 -22.995  1.00  0.00    -0.299 N 
ATOM      3  H1  UNL     1      -1.665  50.339 -23.684  1.00  0.00     0.187 HD
HETATM    4  N2  UNL     1      -1.233  50.813 -21.658  1.00  0.00    -0.299 N 
HETATM    5  C6  UNL     1      -0.414  51.682 -20.997  1.00  0.00     0.065 A 
HETATM    6  C7  UNL     1      -0.185  51.902 -19.639  1.00  0.00     0.080 A 
HETATM    7  C8  UNL     1       0.747  52.892 -19.337  1.00  0.00     0.111 A 
HETATM    8  N7  UNL     1       1.409  53.584 -20.283  1.00  0.00    -0.351 N 
ATOM      9  H7  UNL     1       2.093  54.289 -20.008  1.00  0.00     0.166 HD
HETATM   10  C20 UNL     1       1.175  53.355 -21.600  1.00  0.00     0.105 A 
HETATM   11  C21 UNL     1       0.237  52.399 -21.993  1.00  0.00     0.036 A 
HETATM   12  H5  UNL     1      -1.862  50.128 -21.258  1.00  0.00     0.187 HD
ENDROOT
BRANCH   7  13
HETATM   13  N3  UNL     1       0.989  53.130 -17.980  1.00  0.00    -0.295 N 
HETATM   14  C9  UNL     1       1.149  52.175 -17.004  1.00  0.00     0.321 C 
HETATM   15  O1  UNL     1       1.174  50.959 -17.136  1.00  0.00    -0.247 OA
HETATM   16  N4  UNL     1       1.308  52.782 -15.768  1.00  0.00    -0.342 N 
HETATM   17  H8  UNL     1       0.760  53.627 -15.638  1.00  0.00     0.164 HD
HETATM   18  H7  UNL     1       1.145  54.079 -17.688  1.00  0.00     0.172 HD
BRANCH  16  19
HETATM   19  C10 UNL     1       1.340  51.971 -14.561  1.00  0.00     0.132 C 
BRANCH  19  20
HETATM   20  C11 UNL     1       0.016  51.237 -14.314  1.00  0.00     0.096 C 
BRANCH  20  21
HETATM   21  C12 UNL     1      -0.828  51.911 -13.268  1.00  0.00     0.085 A 
HETATM   22  N5  UNL     1      -0.381  52.603 -12.235  1.00  0.00    -0.344 N 
HETATM   23  C13 UNL     1      -1.496  53.034 -11.563  1.00  0.00     0.060 A 
ATOM     24  H5  UNL     1       0.593  52.781 -11.987  1.00  0.00     0.167 HD
HETATM   25  C14 UNL     1      -1.588  53.802 -10.392  1.00  0.00     0.032 A 
HETATM   26  C18 UNL     1      -2.660  52.608 -12.198  1.00  0.00     0.062 A 
HETATM   27  C15 UNL     1      -2.854  54.120  -9.891  1.00  0.00     0.002 A 
HETATM   28  C16 UNL     1      -4.009  53.680 -10.542  1.00  0.00     0.002 A 
HETATM   29  C17 UNL     1      -3.936  52.912 -11.711  1.00  0.00     0.032 A 
HETATM   30  N6  UNL     1      -2.207  51.904 -13.290  1.00  0.00    -0.339 N 
HETATM   31  C19 UNL     1      -3.028  51.274 -14.296  1.00  0.00     0.158 C 
ENDBRANCH  20  21
ENDBRANCH  19  20
ENDBRANCH  16  19
ENDBRANCH   7  13
BRANCH   1  32
HETATM   32  C4  UNL     1       0.035  52.304 -24.590  1.00  0.00    -0.004 A 
HETATM   33  C3  UNL     1      -0.141  53.636 -24.975  1.00  0.00     0.038 A 
HETATM   34  C2  UNL     1       0.170  54.011 -26.277  1.00  0.00     0.005 A 
HETATM   35  C1  UNL     1      -0.017  55.433 -26.715  1.00  0.00     0.068 C 
HETATM   36  N8  UNL     1       0.636  53.133 -27.195  1.00  0.00    -0.369 N 
HETATM   37  C23 UNL     1       0.813  51.854 -26.799  1.00  0.00     0.089 A 
ATOM     38  H8  UNL     1       0.845  53.425 -28.150  1.00  0.00     0.165 HD
HETATM   39  C22 UNL     1       0.533  51.395 -25.524  1.00  0.00     0.031 A 
ENDBRANCH   1  32
TORSDOF 5
ENDMDL
MODEL 5
REMARK minimizedAffinity -9.36888123
REMARK  5 active torsions:
REMARK  status: ('A' for Active; 'I' for Inactive)
REMARK    1  A    between atoms: C4_4  and  C5_5 
REMARK    2  A    between atoms: C8_11  and  N3_12 
REMARK       I    between atoms: N3_12  and  C9_13 
REMARK       I    between atoms: C9_13  and  N4_15 
REMARK    3  A    between atoms: N4_15  and  C10_16 
REMARK    4  A    between atoms: C10_16  and  C11_17 
REMARK    5  A    between atoms: C11_17  and  C12_18 
ROOT
HETATM    1  C5  UNL     1      -1.947  50.291 -25.104  1.00  0.00     0.072 A 
HETATM    2  N1  UNL     1      -2.228  49.734 -23.913  1.00  0.00    -0.299 N 
ATOM      3  H1  UNL     1      -1.758  49.893 -23.022  1.00  0.00     0.187 HD
HETATM    4  N2  UNL     1      -3.266  48.921 -24.159  1.00  0.00    -0.299 N 
HETATM    5  C6  UNL     1      -3.699  48.943 -25.453  1.00  0.00     0.065 A 
HETATM    6  C7  UNL     1      -4.732  48.269 -26.104  1.00  0.00     0.080 A 
HETATM    7  C8  UNL     1      -4.881  48.558 -27.459  1.00  0.00     0.111 A 
HETATM    8  N7  UNL     1      -4.100  49.444 -28.106  1.00  0.00    -0.351 N 
ATOM      9  H7  UNL     1      -4.260  49.629 -29.096  1.00  0.00     0.166 HD
HETATM   10  C20 UNL     1      -3.101  50.092 -27.455  1.00  0.00     0.105 A 
HETATM   11  C21 UNL     1      -2.865  49.843 -26.103  1.00  0.00     0.036 A 
HETATM   12  H5  UNL     1      -3.638  48.377 -23.389  1.00  0.00     0.187 HD
ENDROOT
BRANCH   7  13
HETATM   13  N3  UNL     1      -5.909  47.890 -28.131  1.00  0.00    -0.295 N 
HETATM   14  C9  UNL     1      -6.148  47.919 -29.484  1.00  0.00     0.321 C 
HETATM   15  O1  UNL     1      -5.488  48.471 -30.354  1.00  0.00    -0.247 OA
HETATM   16  N4  UNL     1      -7.289  47.190 -29.781  1.00  0.00    -0.342 N 
HETATM   17  H8  UNL     1      -8.024  47.251 -29.082  1.00  0.00     0.164 HD
HETATM   18  H7  UNL     1      -6.487  47.258 -27.602  1.00  0.00     0.172 HD
BRANCH  16  19
HETATM   19  C10 UNL     1      -7.828  47.205 -31.131  1.00  0.00     0.132 C 
BRANCH  19  20
HETATM   20  C11 UNL     1      -9.011  48.170 -31.279  1.00  0.00     0.096 C 
BRANCH  20  21
HETATM   21  C12 UNL     1     -10.161  47.812 -30.380  1.00  0.00     0.085 A 
HETATM   22  N5  UNL     1     -10.504  48.438 -29.267  1.00  0.00    -0.344 N 
HETATM   23  C13 UNL     1     -11.605  47.775 -28.790  1.00  0.00     0.060 A 
ATOM     24  H5  UNL     1     -10.044  49.247 -28.850  1.00  0.00     0.167 HD
HETATM   25  C14 UNL     1     -12.360  48.023 -27.634  1.00  0.00     0.032 A 
HETATM   26  C18 UNL     1     -11.959  46.721 -29.629  1.00  0.00     0.062 A 
HETATM   27  C15 UNL     1     -13.456  47.200 -27.354  1.00  0.00     0.002 A 
HETATM   28  C16 UNL     1     -13.792  46.146 -28.206  1.00  0.00     0.002 A 
HETATM   29  C17 UNL     1     -13.048  45.883 -29.363  1.00  0.00     0.032 A 
HETATM   30  N6  UNL     1     -11.030  46.773 -30.642  1.00  0.00    -0.339 N 
HETATM   31  C19 UNL     1     -10.975  45.901 -31.791  1.00  0.00     0.158 C 
ENDBRANCH  20  21
ENDBRANCH  19  20
ENDBRANCH  16  19
ENDBRANCH   7  13
BRANCH   1  32
HETATM   32  C4  UNL     1      -0.832  51.229 -25.241  1.00  0.00    -0.004 A 
HETATM   33  C3  UNL     1       0.216  50.944 -26.121  1.00  0.00     0.038 A 
HETATM   34  C2  UNL     1       1.264  51.849 -26.241  1.00  0.00     0.005 A 
HETATM   35  C1  UNL     1       2.403  51.560 -27.173  1.00  0.00     0.068 C 
HETATM   36  N8  UNL     1       1.314  53.002 -25.535  1.00  0.00    -0.369 N 
HETATM   37  C23 UNL     1       0.284  53.267 -24.703  1.00  0.00     0.089 A 
ATOM     38  H8  UNL     1       2.099  53.647 -25.627  1.00  0.00     0.165 HD
HETATM   39  C22 UNL     1      -0.799  52.426 -24.524  1.00  0.00     0.031 A 
ENDBRANCH   1  32
TORSDOF 5
ENDMDL
MODEL 6
REMARK minimizedAffinity -9.32599354
REMARK  5 active torsions:
REMARK  status: ('A' for Active; 'I' for Inactive)
REMARK    1  A    between atoms: C4_4  and  C5_5 
REMARK    2  A    between atoms: C8_11  and  N3_12 
REMARK       I    between atoms: N3_12  and  C9_13 
REMARK       I    between atoms: C9_13  and  N4_15 
REMARK    3  A    between atoms: N4_15  and  C10_16 
REMARK    4  A    between atoms: C10_16  and  C11_17 
REMARK    5  A    between atoms: C11_17  and  C12_18 
ROOT
HETATM    1  C5  UNL     1       0.391  52.668 -23.954  1.00  0.00     0.072 A 
HETATM    2  N1  UNL     1       1.321  53.072 -24.837  1.00  0.00    -0.299 N 
ATOM      3  H1  UNL     1       2.217  53.519 -24.640  1.00  0.00     0.187 HD
HETATM    4  N2  UNL     1       0.808  52.756 -26.034  1.00  0.00    -0.299 N 
HETATM    5  C6  UNL     1      -0.406  52.133 -25.977  1.00  0.00     0.065 A 
HETATM    6  C7  UNL     1      -1.252  51.644 -26.970  1.00  0.00     0.080 A 
HETATM    7  C8  UNL     1      -2.431  51.052 -26.520  1.00  0.00     0.111 A 
HETATM    8  N7  UNL     1      -2.735  50.933 -25.214  1.00  0.00    -0.351 N 
ATOM      9  H7  UNL     1      -3.605  50.478 -24.938  1.00  0.00     0.166 HD
HETATM   10  C20 UNL     1      -1.897  51.414 -24.261  1.00  0.00     0.105 A 
HETATM   11  C21 UNL     1      -0.707  52.045 -24.624  1.00  0.00     0.036 A 
HETATM   12  H5  UNL     1       1.345  52.991 -26.860  1.00  0.00     0.187 HD
ENDROOT
BRANCH   7  13
HETATM   13  N3  UNL     1      -3.297  50.557 -27.502  1.00  0.00    -0.295 N 
HETATM   14  C9  UNL     1      -3.849  49.299 -27.538  1.00  0.00     0.321 C 
HETATM   15  O1  UNL     1      -3.746  48.407 -26.707  1.00  0.00    -0.247 OA
HETATM   16  N4  UNL     1      -4.604  49.146 -28.690  1.00  0.00    -0.342 N 
HETATM   17  H8  UNL     1      -4.226  49.613 -29.508  1.00  0.00     0.164 HD
HETATM   18  H7  UNL     1      -3.621  51.194 -28.209  1.00  0.00     0.172 HD
BRANCH  16  19
HETATM   19  C10 UNL     1      -5.160  47.844 -29.023  1.00  0.00     0.132 C 
BRANCH  19  20
HETATM   20  C11 UNL     1      -6.320  47.940 -30.022  1.00  0.00     0.096 C 
BRANCH  20  21
HETATM   21  C12 UNL     1      -7.661  47.963 -29.345  1.00  0.00     0.085 A 
HETATM   22  N5  UNL     1      -7.880  48.173 -28.058  1.00  0.00    -0.344 N 
HETATM   23  C13 UNL     1      -9.241  48.113 -27.896  1.00  0.00     0.060 A 
ATOM     24  H5  UNL     1      -7.181  48.344 -27.335  1.00  0.00     0.167 HD
HETATM   25  C14 UNL     1     -10.004  48.259 -26.728  1.00  0.00     0.032 A 
HETATM   26  C18 UNL     1      -9.880  47.870 -29.109  1.00  0.00     0.062 A 
HETATM   27  C15 UNL     1     -11.396  48.157 -26.814  1.00  0.00     0.002 A 
HETATM   28  C16 UNL     1     -12.017  47.910 -28.039  1.00  0.00     0.002 A 
HETATM   29  C17 UNL     1     -11.271  47.760 -29.215  1.00  0.00     0.032 A 
HETATM   30  N6  UNL     1      -8.852  47.791 -30.020  1.00  0.00    -0.339 N 
HETATM   31  C19 UNL     1      -8.990  47.576 -31.441  1.00  0.00     0.158 C 
ENDBRANCH  20  21
ENDBRANCH  19  20
ENDBRANCH  16  19
ENDBRANCH   7  13
BRANCH   1  32
HETATM   32  C4  UNL     1       0.586  52.877 -22.519  1.00  0.00    -0.004 A 
HETATM   33  C3  UNL     1       0.086  51.947 -21.603  1.00  0.00     0.038 A 
HETATM   34  C2  UNL     1       0.285  52.161 -20.244  1.00  0.00     0.005 A 
HETATM   35  C1  UNL     1      -0.249  51.180 -19.243  1.00  0.00     0.068 C 
HETATM   36  N8  UNL     1       0.944  53.242 -19.766  1.00  0.00    -0.369 N 
HETATM   37  C23 UNL     1       1.432  54.121 -20.668  1.00  0.00     0.089 A 
ATOM     38  H8  UNL     1       1.067  53.388 -18.765  1.00  0.00     0.165 HD
HETATM   39  C22 UNL     1       1.283  53.985 -22.037  1.00  0.00     0.031 A 
ENDBRANCH   1  32
TORSDOF 5
ENDMDL
MODEL 7
REMARK minimizedAffinity -9.3027668
REMARK  5 active torsions:
REMARK  status: ('A' for Active; 'I' for Inactive)
REMARK    1  A    between atoms: C4_4  and  C5_5 
REMARK    2  A    between atoms: C8_11  and  N3_12 
REMARK       I    between atoms: N3_12  and  C9_13 
REMARK       I    between atoms: C9_13  and  N4_15 
REMARK    3  A    between atoms: N4_15  and  C10_16 
REMARK    4  A    between atoms: C10_16  and  C11_17 
REMARK    5  A    between atoms: C11_17  and  C12_18 
ROOT
HETATM    1  C5  UNL     1      -1.145  51.316 -21.096  1.00  0.00     0.072 A 
HETATM    2  N1  UNL     1      -1.651  50.124 -20.734  1.00  0.00    -0.299 N 
ATOM      3  H1  UNL     1      -2.229  49.495 -21.292  1.00  0.00     0.187 HD
HETATM    4  N2  UNL     1      -1.225  49.947 -19.475  1.00  0.00    -0.299 N 
HETATM    5  C6  UNL     1      -0.436  50.956 -19.004  1.00  0.00     0.065 A 
HETATM    6  C7  UNL     1       0.203  51.148 -17.780  1.00  0.00     0.080 A 
HETATM    7  C8  UNL     1       0.944  52.323 -17.664  1.00  0.00     0.111 A 
HETATM    8  N7  UNL     1       1.062  53.212 -18.668  1.00  0.00    -0.351 N 
ATOM      9  H7  UNL     1       1.629  54.050 -18.536  1.00  0.00     0.166 HD
HETATM   10  C20 UNL     1       0.435  53.007 -19.853  1.00  0.00     0.105 A 
HETATM   11  C21 UNL     1      -0.349  51.869 -20.046  1.00  0.00     0.036 A 
HETATM   12  H5  UNL     1      -1.508  49.103 -18.990  1.00  0.00     0.187 HD
ENDROOT
BRANCH   7  13
HETATM   13  N3  UNL     1       1.590  52.536 -16.442  1.00  0.00    -0.295 N 
HETATM   14  C9  UNL     1       1.557  51.704 -15.349  1.00  0.00     0.321 C 
HETATM   15  O1  UNL     1       1.020  50.609 -15.252  1.00  0.00    -0.247 OA
HETATM   16  N4  UNL     1       2.262  52.271 -14.299  1.00  0.00    -0.342 N 
HETATM   17  H8  UNL     1       2.183  53.282 -14.234  1.00  0.00     0.164 HD
HETATM   18  H7  UNL     1       2.209  53.326 -16.367  1.00  0.00     0.172 HD
BRANCH  16  19
HETATM   19  C10 UNL     1       2.235  51.645 -12.986  1.00  0.00     0.132 C 
BRANCH  19  20
HETATM   20  C11 UNL     1       1.904  52.640 -11.868  1.00  0.00     0.096 C 
BRANCH  20  21
HETATM   21  C12 UNL     1       0.424  52.789 -11.651  1.00  0.00     0.085 A 
HETATM   22  N5  UNL     1      -0.516  51.982 -12.113  1.00  0.00    -0.344 N 
HETATM   23  C13 UNL     1      -1.705  52.498 -11.664  1.00  0.00     0.060 A 
ATOM     24  H5  UNL     1      -0.384  51.148 -12.685  1.00  0.00     0.167 HD
HETATM   25  C14 UNL     1      -3.011  52.032 -11.875  1.00  0.00     0.032 A 
HETATM   26  C18 UNL     1      -1.498  53.643 -10.901  1.00  0.00     0.062 A 
HETATM   27  C15 UNL     1      -4.078  52.736 -11.307  1.00  0.00     0.002 A 
HETATM   28  C16 UNL     1      -3.850  53.885 -10.547  1.00  0.00     0.002 A 
HETATM   29  C17 UNL     1      -2.553  54.364 -10.328  1.00  0.00     0.032 A 
HETATM   30  N6  UNL     1      -0.131  53.801 -10.896  1.00  0.00    -0.339 N 
HETATM   31  C19 UNL     1       0.602  54.839 -10.212  1.00  0.00     0.158 C 
ENDBRANCH  20  21
ENDBRANCH  19  20
ENDBRANCH  16  19
ENDBRANCH   7  13
BRANCH   1  32
HETATM   32  C4  UNL     1      -1.428  51.873 -22.420  1.00  0.00    -0.004 A 
HETATM   33  C3  UNL     1      -0.375  52.233 -23.265  1.00  0.00     0.038 A 
HETATM   34  C2  UNL     1      -0.663  52.757 -24.520  1.00  0.00     0.005 A 
HETATM   35  C1  UNL     1       0.452  53.157 -25.441  1.00  0.00     0.068 C 
HETATM   36  N8  UNL     1      -1.929  52.937 -24.960  1.00  0.00    -0.369 N 
HETATM   37  C23 UNL     1      -2.932  52.568 -24.135  1.00  0.00     0.089 A 
ATOM     38  H8  UNL     1      -2.119  53.336 -25.879  1.00  0.00     0.165 HD
HETATM   39  C22 UNL     1      -2.737  52.037 -22.872  1.00  0.00     0.031 A 
ENDBRANCH   1  32
TORSDOF 5
ENDMDL
MODEL 8
REMARK minimizedAffinity -9.26275158
REMARK  5 active torsions:
REMARK  status: ('A' for Active; 'I' for Inactive)
REMARK    1  A    between atoms: C4_4  and  C5_5 
REMARK    2  A    between atoms: C8_11  and  N3_12 
REMARK       I    between atoms: N3_12  and  C9_13 
REMARK       I    between atoms: C9_13  and  N4_15 
REMARK    3  A    between atoms: N4_15  and  C10_16 
REMARK    4  A    between atoms: C10_16  and  C11_17 
REMARK    5  A    between atoms: C11_17  and  C12_18 
ROOT
HETATM    1  C5  UNL     1      -4.071  49.281 -27.929  1.00  0.00     0.072 A 
HETATM    2  N1  UNL     1      -3.650  50.264 -28.745  1.00  0.00    -0.299 N 
ATOM      3  H1  UNL     1      -3.955  50.457 -29.699  1.00  0.00     0.187 HD
HETATM    4  N2  UNL     1      -2.740  50.933 -28.023  1.00  0.00    -0.299 N 
HETATM    5  C6  UNL     1      -2.566  50.453 -26.757  1.00  0.00     0.065 A 
HETATM    6  C7  UNL     1      -1.743  50.860 -25.708  1.00  0.00     0.080 A 
HETATM    7  C8  UNL     1      -1.846  50.114 -24.536  1.00  0.00     0.111 A 
HETATM    8  N7  UNL     1      -2.696  49.078 -24.403  1.00  0.00    -0.351 N 
ATOM      9  H7  UNL     1      -2.743  48.574 -23.517  1.00  0.00     0.166 HD
HETATM   10  C20 UNL     1      -3.492  48.698 -25.434  1.00  0.00     0.105 A 
HETATM   11  C21 UNL     1      -3.434  49.374 -26.654  1.00  0.00     0.036 A 
HETATM   12  H5  UNL     1      -2.272  51.720 -28.457  1.00  0.00     0.187 HD
ENDROOT
BRANCH   7  13
HETATM   13  N3  UNL     1      -1.025  50.504 -23.473  1.00  0.00    -0.295 N 
HETATM   14  C9  UNL     1      -1.283  51.511 -22.575  1.00  0.00     0.321 C 
HETATM   15  O1  UNL     1      -2.286  52.208 -22.492  1.00  0.00    -0.247 OA
HETATM   16  N4  UNL     1      -0.218  51.652 -21.699  1.00  0.00    -0.342 N 
HETATM   17  H8  UNL     1       0.695  51.496 -22.116  1.00  0.00     0.164 HD
HETATM   18  H7  UNL     1      -0.206  49.952 -23.282  1.00  0.00     0.172 HD
BRANCH  16  19
HETATM   19  C10 UNL     1      -0.196  52.759 -20.757  1.00  0.00     0.132 C 
BRANCH  19  20
HETATM   20  C11 UNL     1      -0.801  52.385 -19.398  1.00  0.00     0.096 C 
BRANCH  20  21
HETATM   21  C12 UNL     1       0.241  52.258 -18.321  1.00  0.00     0.085 A 
HETATM   22  N5  UNL     1       1.361  52.954 -18.236  1.00  0.00    -0.344 N 
HETATM   23  C13 UNL     1       1.990  52.512 -17.100  1.00  0.00     0.060 A 
ATOM     24  H5  UNL     1       1.690  53.672 -18.881  1.00  0.00     0.167 HD
HETATM   25  C14 UNL     1       3.216  52.914 -16.549  1.00  0.00     0.032 A 
HETATM   26  C18 UNL     1       1.239  51.527 -16.462  1.00  0.00     0.062 A 
HETATM   27  C15 UNL     1       3.655  52.310 -15.366  1.00  0.00     0.002 A 
HETATM   28  C16 UNL     1       2.889  51.322 -14.744  1.00  0.00     0.002 A 
HETATM   29  C17 UNL     1       1.663  50.908 -15.280  1.00  0.00     0.032 A 
HETATM   30  N6  UNL     1       0.122  51.392 -17.254  1.00  0.00    -0.339 N 
HETATM   31  C19 UNL     1      -0.991  50.506 -17.009  1.00  0.00     0.158 C 
ENDBRANCH  20  21
ENDBRANCH  19  20
ENDBRANCH  16  19
ENDBRANCH   7  13
BRANCH   1  32
HETATM   32  C4  UNL     1      -5.062  48.307 -28.388  1.00  0.00    -0.004 A 
HETATM   33  C3  UNL     1      -5.978  47.764 -27.482  1.00  0.00     0.038 A 
HETATM   34  C2  UNL     1      -6.915  46.843 -27.937  1.00  0.00     0.005 A 
HETATM   35  C1  UNL     1      -7.902  46.242 -26.982  1.00  0.00     0.068 C 
HETATM   36  N8  UNL     1      -6.976  46.445 -29.229  1.00  0.00    -0.369 N 
HETATM   37  C23 UNL     1      -6.093  46.994 -30.091  1.00  0.00     0.089 A 
ATOM     38  H8  UNL     1      -7.662  45.758 -29.540  1.00  0.00     0.165 HD
HETATM   39  C22 UNL     1      -5.130  47.918 -29.726  1.00  0.00     0.031 A 
ENDBRANCH   1  32
TORSDOF 5
ENDMDL
MODEL 9
REMARK minimizedAffinity -9.18268585
REMARK  5 active torsions:
REMARK  status: ('A' for Active; 'I' for Inactive)
REMARK    1  A    between atoms: C4_4  and  C5_5 
REMARK    2  A    between atoms: C8_11  and  N3_12 
REMARK       I    between atoms: N3_12  and  C9_13 
REMARK       I    between atoms: C9_13  and  N4_15 
REMARK    3  A    between atoms: N4_15  and  C10_16 
REMARK    4  A    between atoms: C10_16  and  C11_17 
REMARK    5  A    between atoms: C11_17  and  C12_18 
ROOT
HETATM    1  C5  UNL     1      -0.185  51.986 -22.578  1.00  0.00     0.072 A 
HETATM    2  N1  UNL     1      -0.942  50.888 -22.407  1.00  0.00    -0.299 N 
ATOM      3  H1  UNL     1      -1.403  50.328 -23.125  1.00  0.00     0.187 HD
HETATM    4  N2  UNL     1      -0.956  50.693 -21.080  1.00  0.00    -0.299 N 
HETATM    5  C6  UNL     1      -0.216  51.596 -20.374  1.00  0.00     0.065 A 
HETATM    6  C7  UNL     1       0.034  51.736 -19.009  1.00  0.00     0.080 A 
HETATM    7  C8  UNL     1       0.862  52.799 -18.653  1.00  0.00     0.111 A 
HETATM    8  N7  UNL     1       1.411  53.631 -19.559  1.00  0.00    -0.351 N 
ATOM      9  H7  UNL     1       2.022  54.385 -19.246  1.00  0.00     0.166 HD
HETATM   10  C20 UNL     1       1.158  53.478 -20.883  1.00  0.00     0.105 A 
HETATM   11  C21 UNL     1       0.318  52.455 -21.326  1.00  0.00     0.036 A 
HETATM   12  H5  UNL     1      -1.492  49.913 -20.719  1.00  0.00     0.187 HD
ENDROOT
BRANCH   7  13
HETATM   13  N3  UNL     1       1.123  52.958 -17.288  1.00  0.00    -0.295 N 
HETATM   14  C9  UNL     1       1.053  51.978 -16.328  1.00  0.00     0.321 C 
HETATM   15  O1  UNL     1       0.817  50.787 -16.482  1.00  0.00    -0.247 OA
HETATM   16  N4  UNL     1       1.316  52.517 -15.079  1.00  0.00    -0.342 N 
HETATM   17  H8  UNL     1       0.961  53.459 -14.942  1.00  0.00     0.164 HD
HETATM   18  H7  UNL     1       1.475  53.848 -16.976  1.00  0.00     0.172 HD
BRANCH  16  19
HETATM   19  C10 UNL     1       1.148  51.701 -13.887  1.00  0.00     0.132 C 
BRANCH  19  20
HETATM   20  C11 UNL     1       0.504  52.477 -12.731  1.00  0.00     0.096 C 
BRANCH  20  21
HETATM   21  C12 UNL     1      -0.807  51.881 -12.299  1.00  0.00     0.085 A 
HETATM   22  N5  UNL     1      -1.319  50.738 -12.721  1.00  0.00    -0.344 N 
HETATM   23  C13 UNL     1      -2.511  50.595 -12.058  1.00  0.00     0.060 A 
ATOM     24  H5  UNL     1      -0.912  50.095 -13.401  1.00  0.00     0.167 HD
HETATM   25  C14 UNL     1      -3.457  49.562 -12.143  1.00  0.00     0.032 A 
HETATM   26  C18 UNL     1      -2.738  51.667 -11.199  1.00  0.00     0.062 A 
HETATM   27  C15 UNL     1      -4.611  49.638 -11.356  1.00  0.00     0.002 A 
HETATM   28  C16 UNL     1      -4.822  50.724 -10.503  1.00  0.00     0.002 A 
HETATM   29  C17 UNL     1      -3.889  51.764 -10.407  1.00  0.00     0.032 A 
HETATM   30  N6  UNL     1      -1.631  52.467 -11.361  1.00  0.00    -0.339 N 
HETATM   31  C19 UNL     1      -1.367  53.704 -10.665  1.00  0.00     0.158 C 
ENDBRANCH  20  21
ENDBRANCH  19  20
ENDBRANCH  16  19
ENDBRANCH   7  13
BRANCH   1  32
HETATM   32  C4  UNL     1       0.038  52.535 -23.916  1.00  0.00    -0.004 A 
HETATM   33  C3  UNL     1       0.107  51.679 -25.019  1.00  0.00     0.038 A 
HETATM   34  C2  UNL     1       0.315  52.219 -26.283  1.00  0.00     0.005 A 
HETATM   35  C1  UNL     1       0.400  51.319 -27.480  1.00  0.00     0.068 C 
HETATM   36  N8  UNL     1       0.458  53.548 -26.492  1.00  0.00    -0.369 N 
HETATM   37  C23 UNL     1       0.373  54.359 -25.415  1.00  0.00     0.089 A 
ATOM     38  H8  UNL     1       0.624  53.923 -27.425  1.00  0.00     0.165 HD
HETATM   39  C22 UNL     1       0.165  53.909 -24.124  1.00  0.00     0.031 A 
ENDBRANCH   1  32
TORSDOF 5
ENDMDL
