MODEL 1
REMARK minimizedAffinity -9.52208328
REMARK  3 active torsions:
REMARK  status: ('A' for Active; 'I' for Inactive)
REMARK    1  A    between atoms: C4_4  and  C5_5 
REMARK    2  A    between atoms: C8_11  and  N3_12 
REMARK       I    between atoms: N3_12  and  C9_13 
REMARK       I    between atoms: C9_13  and  N4_15 
REMARK    3  A    between atoms: N4_15  and  C11_17 
ROOT
HETATM    1  C5  UNL     1       0.647  53.723 -24.122  1.00  0.00     0.072 A 
HETATM    2  N1  UNL     1       1.387  54.844 -24.087  1.00  0.00    -0.299 N 
ATOM      3  H1  UNL     1       1.654  55.442 -24.870  1.00  0.00     0.187 HD
HETATM    4  N2  UNL     1       1.698  55.000 -22.791  1.00  0.00    -0.299 N 
HETATM    5  C6  UNL     1       1.223  54.011 -21.980  1.00  0.00     0.065 A 
HETATM    6  C7  UNL     1       1.340  53.799 -20.605  1.00  0.00     0.080 A 
HETATM    7  C8  UNL     1       0.718  52.653 -20.129  1.00  0.00     0.111 A 
HETATM    8  N5  UNL     1       0.051  51.780 -20.920  1.00  0.00    -0.351 N 
ATOM      9  H5  UNL     1      -0.379  50.949 -20.514  1.00  0.00     0.166 HD
HETATM   10  C17 UNL     1      -0.045  52.009 -22.256  1.00  0.00     0.105 A 
HETATM   11  C18 UNL     1       0.533  53.148 -22.819  1.00  0.00     0.036 A 
HETATM   12  H5  UNL     1       2.251  55.807 -22.522  1.00  0.00     0.187 HD
ENDROOT
BRANCH   7  13
HETATM   13  N3  UNL     1       0.727  52.262 -18.788  1.00  0.00    -0.294 N 
HETATM   14  C9  UNL     1      -0.268  51.676 -18.058  1.00  0.00     0.324 C 
HETATM   15  O1  UNL     1      -1.355  51.351 -18.534  1.00  0.00    -0.247 OA
HETATM   16  N4  UNL     1       0.023  51.460 -16.708  1.00  0.00    -0.334 N 
HETATM   17  C10 UNL     1      -1.002  50.803 -15.904  1.00  0.00     0.155 C 
HETATM   18  H7  UNL     1       1.637  52.375 -18.385  1.00  0.00     0.172 HD
BRANCH  16  19
HETATM   19  C11 UNL     1       1.214  51.913 -15.958  1.00  0.00     0.088 C 
HETATM   20  C12 UNL     1       1.509  51.051 -14.714  1.00  0.00     0.025 C 
HETATM   21  C13 UNL     1       3.003  50.905 -14.431  1.00  0.00     0.002 C 
HETATM   22  C14 UNL     1       3.737  52.225 -14.638  1.00  0.00     0.000 C 
HETATM   23  C15 UNL     1       3.604  52.759 -16.065  1.00  0.00     0.002 C 
HETATM   24  C16 UNL     1       2.440  52.153 -16.851  1.00  0.00     0.025 C 
ENDBRANCH  16  19
ENDBRANCH   7  13
BRANCH   1  25
HETATM   25  C4  UNL     1       0.092  53.237 -25.384  1.00  0.00    -0.004 A 
HETATM   26  C3  UNL     1      -0.513  51.978 -25.443  1.00  0.00     0.038 A 
HETATM   27  C2  UNL     1      -1.040  51.537 -26.651  1.00  0.00     0.005 A 
HETATM   28  C1  UNL     1      -1.695  50.192 -26.739  1.00  0.00     0.068 C 
HETATM   29  N6  UNL     1      -0.987  52.279 -27.782  1.00  0.00    -0.369 N 
HETATM   30  C20 UNL     1      -0.382  53.482 -27.708  1.00  0.00     0.089 A 
ATOM     31  H6  UNL     1      -1.390  51.941 -28.656  1.00  0.00     0.165 HD
HETATM   32  C19 UNL     1       0.167  54.000 -26.549  1.00  0.00     0.031 A 
ENDBRANCH   1  25
TORSDOF 3
ENDMDL
MODEL 2
REMARK minimizedAffinity -9.40693569
REMARK  3 active torsions:
REMARK  status: ('A' for Active; 'I' for Inactive)
REMARK    1  A    between atoms: C4_4  and  C5_5 
REMARK    2  A    between atoms: C8_11  and  N3_12 
REMARK       I    between atoms: N3_12  and  C9_13 
REMARK       I    between atoms: C9_13  and  N4_15 
REMARK    3  A    between atoms: N4_15  and  C11_17 
ROOT
HETATM    1  C5  UNL     1       0.823  52.588 -18.978  1.00  0.00     0.072 A 
HETATM    2  N1  UNL     1       1.295  53.820 -19.235  1.00  0.00    -0.299 N 
ATOM      3  H1  UNL     1       1.722  54.475 -18.580  1.00  0.00     0.187 HD
HETATM    4  N2  UNL     1       1.079  53.995 -20.548  1.00  0.00    -0.299 N 
HETATM    5  C6  UNL     1       0.453  52.945 -21.156  1.00  0.00     0.065 A 
HETATM    6  C7  UNL     1       0.042  52.745 -22.474  1.00  0.00     0.080 A 
HETATM    7  C8  UNL     1      -0.583  51.531 -22.721  1.00  0.00     0.111 A 
HETATM    8  N5  UNL     1      -0.804  50.596 -21.766  1.00  0.00    -0.351 N 
ATOM      9  H5  UNL     1      -1.277  49.725 -22.005  1.00  0.00     0.166 HD
HETATM   10  C17 UNL     1      -0.396  50.818 -20.489  1.00  0.00     0.105 A 
HETATM   11  C18 UNL     1       0.260  52.004 -20.155  1.00  0.00     0.036 A 
HETATM   12  H5  UNL     1       1.378  54.866 -20.973  1.00  0.00     0.187 HD
ENDROOT
BRANCH   7  13
HETATM   13  N3  UNL     1      -1.072  51.145 -23.971  1.00  0.00    -0.294 N 
HETATM   14  C9  UNL     1      -0.628  51.501 -25.213  1.00  0.00     0.324 C 
HETATM   15  O1  UNL     1       0.355  52.216 -25.401  1.00  0.00    -0.247 OA
HETATM   16  N4  UNL     1      -1.370  50.996 -26.285  1.00  0.00    -0.334 N 
HETATM   17  C10 UNL     1      -0.906  51.326 -27.628  1.00  0.00     0.155 C 
HETATM   18  H7  UNL     1      -1.787  50.449 -23.880  1.00  0.00     0.172 HD
BRANCH  16  19
HETATM   19  C11 UNL     1      -2.643  50.246 -26.227  1.00  0.00     0.088 C 
HETATM   20  C12 UNL     1      -3.222  49.931 -27.621  1.00  0.00     0.025 C 
HETATM   21  C13 UNL     1      -3.946  48.586 -27.674  1.00  0.00     0.002 C 
HETATM   22  C14 UNL     1      -4.792  48.363 -26.427  1.00  0.00     0.000 C 
HETATM   23  C15 UNL     1      -3.965  48.372 -25.141  1.00  0.00     0.002 C 
HETATM   24  C16 UNL     1      -2.593  49.033 -25.287  1.00  0.00     0.025 C 
ENDBRANCH  16  19
ENDBRANCH   7  13
BRANCH   1  25
HETATM   25  C4  UNL     1       0.909  52.024 -17.633  1.00  0.00    -0.004 A 
HETATM   26  C3  UNL     1       2.049  52.245 -16.854  1.00  0.00     0.038 A 
HETATM   27  C2  UNL     1       2.108  51.706 -15.574  1.00  0.00     0.005 A 
HETATM   28  C1  UNL     1       3.319  51.930 -14.720  1.00  0.00     0.068 C 
HETATM   29  N6  UNL     1       1.104  50.967 -15.049  1.00  0.00    -0.369 N 
HETATM   30  C20 UNL     1       0.021  50.749 -15.824  1.00  0.00     0.089 A 
ATOM     31  H6  UNL     1       1.163  50.590 -14.103  1.00  0.00     0.165 HD
HETATM   32  C19 UNL     1      -0.123  51.249 -17.106  1.00  0.00     0.031 A 
ENDBRANCH   1  25
TORSDOF 3
ENDMDL
MODEL 3
REMARK minimizedAffinity -9.35178566
REMARK  3 active torsions:
REMARK  status: ('A' for Active; 'I' for Inactive)
REMARK    1  A    between atoms: C4_4  and  C5_5 
REMARK    2  A    between atoms: C8_11  and  N3_12 
REMARK       I    between atoms: N3_12  and  C9_13 
REMARK       I    between atoms: C9_13  and  N4_15 
REMARK    3  A    between atoms: N4_15  and  C11_17 
ROOT
HETATM    1  C5  UNL     1       0.513  51.780 -17.928  1.00  0.00     0.072 A 
HETATM    2  N1  UNL     1       1.213  52.900 -17.677  1.00  0.00    -0.299 N 
ATOM      3  H1  UNL     1       1.564  53.229 -16.777  1.00  0.00     0.187 HD
HETATM    4  N2  UNL     1       1.347  53.488 -18.876  1.00  0.00    -0.299 N 
HETATM    5  C6  UNL     1       0.735  52.820 -19.897  1.00  0.00     0.065 A 
HETATM    6  C7  UNL     1       0.627  53.101 -21.259  1.00  0.00     0.080 A 
HETATM    7  C8  UNL     1      -0.096  52.176 -21.999  1.00  0.00     0.111 A 
HETATM    8  N5  UNL     1      -0.677  51.078 -21.460  1.00  0.00    -0.351 N 
ATOM      9  H5  UNL     1      -1.204  50.437 -22.053  1.00  0.00     0.166 HD
HETATM   10  C17 UNL     1      -0.558  50.829 -20.130  1.00  0.00     0.105 A 
HETATM   11  C18 UNL     1       0.169  51.696 -19.312  1.00  0.00     0.036 A 
HETATM   12  H5  UNL     1       1.867  54.357 -18.930  1.00  0.00     0.187 HD
ENDROOT
BRANCH   7  13
HETATM   13  N3  UNL     1      -0.322  52.282 -23.373  1.00  0.00    -0.294 N 
HETATM   14  C9  UNL     1      -1.497  52.169 -24.061  1.00  0.00     0.324 C 
HETATM   15  O1  UNL     1      -2.586  51.996 -23.516  1.00  0.00    -0.247 OA
HETATM   16  N4  UNL     1      -1.392  52.264 -25.452  1.00  0.00    -0.334 N 
HETATM   17  C10 UNL     1      -2.630  52.183 -26.219  1.00  0.00     0.155 C 
HETATM   18  H7  UNL     1       0.510  52.564 -23.855  1.00  0.00     0.172 HD
BRANCH  16  19
HETATM   19  C11 UNL     1      -0.156  52.332 -26.260  1.00  0.00     0.088 C 
HETATM   20  C12 UNL     1       1.114  51.999 -25.452  1.00  0.00     0.025 C 
HETATM   21  C13 UNL     1       2.172  51.269 -26.278  1.00  0.00     0.002 C 
HETATM   22  C14 UNL     1       2.291  51.864 -27.675  1.00  0.00     0.000 C 
HETATM   23  C15 UNL     1       0.981  51.790 -28.463  1.00  0.00     0.002 C 
HETATM   24  C16 UNL     1      -0.258  51.576 -27.593  1.00  0.00     0.025 C 
ENDBRANCH  16  19
ENDBRANCH   7  13
BRANCH   1  25
HETATM   25  C4  UNL     1       0.189  50.848 -16.850  1.00  0.00    -0.004 A 
HETATM   26  C3  UNL     1       0.410  51.215 -15.519  1.00  0.00     0.038 A 
HETATM   27  C2  UNL     1       0.088  50.318 -14.508  1.00  0.00     0.005 A 
HETATM   28  C1  UNL     1       0.316  50.688 -13.073  1.00  0.00     0.068 C 
HETATM   29  N6  UNL     1      -0.430  49.093 -14.759  1.00  0.00    -0.369 N 
HETATM   30  C20 UNL     1      -0.618  48.752 -16.051  1.00  0.00     0.089 A 
ATOM     31  H6  UNL     1      -0.670  48.454 -14.002  1.00  0.00     0.165 HD
HETATM   32  C19 UNL     1      -0.328  49.582 -17.119  1.00  0.00     0.031 A 
ENDBRANCH   1  25
TORSDOF 3
ENDMDL
MODEL 4
REMARK minimizedAffinity -9.26433945
REMARK  3 active torsions:
REMARK  status: ('A' for Active; 'I' for Inactive)
REMARK    1  A    between atoms: C4_4  and  C5_5 
REMARK    2  A    between atoms: C8_11  and  N3_12 
REMARK       I    between atoms: N3_12  and  C9_13 
REMARK       I    between atoms: C9_13  and  N4_15 
REMARK    3  A    between atoms: N4_15  and  C11_17 
ROOT
HETATM    1  C5  UNL     1      -0.226  50.927 -18.067  1.00  0.00     0.072 A 
HETATM    2  N1  UNL     1      -1.112  49.924 -17.937  1.00  0.00    -0.299 N 
ATOM      3  H1  UNL     1      -1.350  49.407 -17.090  1.00  0.00     0.187 HD
HETATM    4  N2  UNL     1      -1.613  49.756 -19.170  1.00  0.00    -0.299 N 
HETATM    5  C6  UNL     1      -1.069  50.582 -20.111  1.00  0.00     0.065 A 
HETATM    6  C7  UNL     1      -1.298  50.708 -21.481  1.00  0.00     0.080 A 
HETATM    7  C8  UNL     1      -0.531  51.671 -22.123  1.00  0.00     0.111 A 
HETATM    8  N5  UNL     1       0.389  52.437 -21.491  1.00  0.00    -0.351 N 
ATOM      9  H5  UNL     1       0.930  53.123 -22.018  1.00  0.00     0.166 HD
HETATM   10  C17 UNL     1       0.594  52.291 -20.156  1.00  0.00     0.105 A 
HETATM   11  C18 UNL     1      -0.147  51.360 -19.426  1.00  0.00     0.036 A 
HETATM   12  H5  UNL     1      -2.327  49.049 -19.307  1.00  0.00     0.187 HD
ENDROOT
BRANCH   7  13
HETATM   13  N3  UNL     1      -0.608  51.944 -23.491  1.00  0.00    -0.294 N 
HETATM   14  C9  UNL     1      -1.711  51.997 -24.295  1.00  0.00     0.324 C 
HETATM   15  O1  UNL     1      -2.859  51.848 -23.879  1.00  0.00    -0.247 OA
HETATM   16  N4  UNL     1      -1.458  52.234 -25.649  1.00  0.00    -0.334 N 
HETATM   17  C10 UNL     1      -2.614  52.332 -26.534  1.00  0.00     0.155 C 
HETATM   18  H7  UNL     1       0.286  52.212 -23.856  1.00  0.00     0.172 HD
BRANCH  16  19
HETATM   19  C11 UNL     1      -0.143  52.296 -26.324  1.00  0.00     0.088 C 
HETATM   20  C12 UNL     1       1.024  51.873 -25.411  1.00  0.00     0.025 C 
HETATM   21  C13 UNL     1       2.137  51.146 -26.165  1.00  0.00     0.002 C 
HETATM   22  C14 UNL     1       2.418  51.807 -27.508  1.00  0.00     0.000 C 
HETATM   23  C15 UNL     1       1.195  51.824 -28.427  1.00  0.00     0.002 C 
HETATM   24  C16 UNL     1      -0.133  51.613 -27.700  1.00  0.00     0.025 C 
ENDBRANCH  16  19
ENDBRANCH   7  13
BRANCH   1  25
HETATM   25  C4  UNL     1       0.516  51.420 -16.908  1.00  0.00    -0.004 A 
HETATM   26  C3  UNL     1       1.800  51.947 -17.074  1.00  0.00     0.038 A 
HETATM   27  C2  UNL     1       2.486  52.417 -15.960  1.00  0.00     0.005 A 
HETATM   28  C1  UNL     1       3.864  52.988 -16.111  1.00  0.00     0.068 C 
HETATM   29  N6  UNL     1       1.962  52.381 -14.713  1.00  0.00    -0.369 N 
HETATM   30  C20 UNL     1       0.729  51.850 -14.573  1.00  0.00     0.089 A 
ATOM     31  H6  UNL     1       2.478  52.741 -13.911  1.00  0.00     0.165 HD
HETATM   32  C19 UNL     1      -0.025  51.362 -15.625  1.00  0.00     0.031 A 
ENDBRANCH   1  25
TORSDOF 3
ENDMDL
MODEL 5
REMARK minimizedAffinity -8.81130409
REMARK  3 active torsions:
REMARK  status: ('A' for Active; 'I' for Inactive)
REMARK    1  A    between atoms: C4_4  and  C5_5 
REMARK    2  A    between atoms: C8_11  and  N3_12 
REMARK       I    between atoms: N3_12  and  C9_13 
REMARK       I    between atoms: C9_13  and  N4_15 
REMARK    3  A    between atoms: N4_15  and  C11_17 
ROOT
HETATM    1  C5  UNL     1       0.662  53.671 -23.864  1.00  0.00     0.072 A 
HETATM    2  N1  UNL     1       1.486  54.727 -23.750  1.00  0.00    -0.299 N 
ATOM      3  H1  UNL     1       1.849  55.319 -24.497  1.00  0.00     0.187 HD
HETATM    4  N2  UNL     1       1.724  54.826 -22.433  1.00  0.00    -0.299 N 
HETATM    5  C6  UNL     1       1.120  53.860 -21.682  1.00  0.00     0.065 A 
HETATM    6  C7  UNL     1       1.131  53.606 -20.310  1.00  0.00     0.080 A 
HETATM    7  C8  UNL     1       0.390  52.504 -19.906  1.00  0.00     0.111 A 
HETATM    8  N5  UNL     1      -0.292  51.707 -20.763  1.00  0.00    -0.351 N 
ATOM      9  H5  UNL     1      -0.812  50.905 -20.408  1.00  0.00     0.166 HD
HETATM   10  C17 UNL     1      -0.283  51.975 -22.094  1.00  0.00     0.105 A 
HETATM   11  C18 UNL     1       0.419  53.076 -22.588  1.00  0.00     0.036 A 
HETATM   12  H5  UNL     1       2.321  55.579 -22.108  1.00  0.00     0.187 HD
ENDROOT
BRANCH   7  13
HETATM   13  N3  UNL     1       0.281  52.082 -18.579  1.00  0.00    -0.294 N 
HETATM   14  C9  UNL     1       1.158  52.259 -17.547  1.00  0.00     0.324 C 
HETATM   15  O1  UNL     1       2.204  52.898 -17.650  1.00  0.00    -0.247 OA
HETATM   16  N4  UNL     1       0.793  51.660 -16.338  1.00  0.00    -0.334 N 
HETATM   17  C10 UNL     1       1.689  51.857 -15.202  1.00  0.00     0.155 C 
HETATM   18  H7  UNL     1      -0.618  51.676 -18.402  1.00  0.00     0.172 HD
BRANCH  16  19
HETATM   19  C11 UNL     1      -0.348  50.753 -16.088  1.00  0.00     0.088 C 
HETATM   20  C12 UNL     1      -0.013  49.273 -16.360  1.00  0.00     0.025 C 
HETATM   21  C13 UNL     1      -0.733  48.315 -15.411  1.00  0.00     0.002 C 
HETATM   22  C14 UNL     1      -2.177  48.743 -15.184  1.00  0.00     0.000 C 
HETATM   23  C15 UNL     1      -2.292  50.142 -14.577  1.00  0.00     0.002 C 
HETATM   24  C16 UNL     1      -1.033  50.995 -14.735  1.00  0.00     0.025 C 
ENDBRANCH  16  19
ENDBRANCH   7  13
BRANCH   1  25
HETATM   25  C4  UNL     1       0.153  53.262 -25.171  1.00  0.00    -0.004 A 
HETATM   26  C3  UNL     1      -0.436  52.004 -25.330  1.00  0.00     0.038 A 
HETATM   27  C2  UNL     1      -0.920  51.637 -26.580  1.00  0.00     0.005 A 
HETATM   28  C1  UNL     1      -1.556  50.293 -26.775  1.00  0.00     0.068 C 
HETATM   29  N6  UNL     1      -0.840  52.450 -27.659  1.00  0.00    -0.369 N 
HETATM   30  C20 UNL     1      -0.251  53.652 -27.489  1.00  0.00     0.089 A 
ATOM     31  H6  UNL     1      -1.211  52.165 -28.565  1.00  0.00     0.165 HD
HETATM   32  C19 UNL     1       0.255  54.099 -26.282  1.00  0.00     0.031 A 
ENDBRANCH   1  25
TORSDOF 3
ENDMDL
MODEL 6
REMARK minimizedAffinity -8.77671623
REMARK  3 active torsions:
REMARK  status: ('A' for Active; 'I' for Inactive)
REMARK    1  A    between atoms: C4_4  and  C5_5 
REMARK    2  A    between atoms: C8_11  and  N3_12 
REMARK       I    between atoms: N3_12  and  C9_13 
REMARK       I    between atoms: C9_13  and  N4_15 
REMARK    3  A    between atoms: N4_15  and  C11_17 
ROOT
HETATM    1  C5  UNL     1      -1.946  50.263 -24.221  1.00  0.00     0.072 A 
HETATM    2  N1  UNL     1      -2.333  49.356 -23.307  1.00  0.00    -0.299 N 
ATOM      3  H1  UNL     1      -2.033  49.282 -22.335  1.00  0.00     0.187 HD
HETATM    4  N2  UNL     1      -3.203  48.571 -23.961  1.00  0.00    -0.299 N 
HETATM    5  C6  UNL     1      -3.376  48.902 -25.274  1.00  0.00     0.065 A 
HETATM    6  C7  UNL     1      -4.162  48.336 -26.279  1.00  0.00     0.080 A 
HETATM    7  C8  UNL     1      -4.069  48.953 -27.519  1.00  0.00     0.111 A 
HETATM    8  N5  UNL     1      -3.271  50.019 -27.767  1.00  0.00    -0.351 N 
ATOM      9  H5  UNL     1      -3.238  50.425 -28.702  1.00  0.00     0.166 HD
HETATM   10  C17 UNL     1      -2.515  50.548 -26.770  1.00  0.00     0.105 A 
HETATM   11  C18 UNL     1      -2.560  50.004 -25.485  1.00  0.00     0.036 A 
HETATM   12  H5  UNL     1      -3.643  47.813 -23.452  1.00  0.00     0.187 HD
ENDROOT
BRANCH   7  13
HETATM   13  N3  UNL     1      -4.769  48.533 -28.652  1.00  0.00    -0.294 N 
HETATM   14  C9  UNL     1      -6.018  47.986 -28.736  1.00  0.00     0.324 C 
HETATM   15  O1  UNL     1      -6.753  47.827 -27.763  1.00  0.00    -0.247 OA
HETATM   16  N4  UNL     1      -6.425  47.607 -30.019  1.00  0.00    -0.334 N 
HETATM   17  C10 UNL     1      -7.767  47.050 -30.153  1.00  0.00     0.155 C 
HETATM   18  H7  UNL     1      -4.273  48.769 -29.491  1.00  0.00     0.172 HD
BRANCH  16  19
HETATM   19  C11 UNL     1      -5.616  47.603 -31.257  1.00  0.00     0.088 C 
HETATM   20  C12 UNL     1      -4.611  46.436 -31.317  1.00  0.00     0.025 C 
HETATM   21  C13 UNL     1      -4.400  45.903 -32.734  1.00  0.00     0.002 C 
HETATM   22  C14 UNL     1      -4.314  47.039 -33.745  1.00  0.00     0.000 C 
HETATM   23  C15 UNL     1      -5.577  47.901 -33.776  1.00  0.00     0.002 C 
HETATM   24  C16 UNL     1      -6.456  47.764 -32.533  1.00  0.00     0.025 C 
ENDBRANCH  16  19
ENDBRANCH   7  13
BRANCH   1  25
HETATM   25  C4  UNL     1      -1.004  51.322 -23.866  1.00  0.00    -0.004 A 
HETATM   26  C3  UNL     1      -0.763  51.621 -22.521  1.00  0.00     0.038 A 
HETATM   27  C2  UNL     1       0.142  52.627 -22.204  1.00  0.00     0.005 A 
HETATM   28  C1  UNL     1       0.418  52.965 -20.770  1.00  0.00     0.068 C 
HETATM   29  N6  UNL     1       0.801  53.337 -23.149  1.00  0.00    -0.369 N 
HETATM   30  C20 UNL     1       0.539  53.047 -24.440  1.00  0.00     0.089 A 
ATOM     31  H6  UNL     1       1.469  54.064 -22.894  1.00  0.00     0.165 HD
HETATM   32  C19 UNL     1      -0.343  52.061 -24.846  1.00  0.00     0.031 A 
ENDBRANCH   1  25
TORSDOF 3
ENDMDL
MODEL 7
REMARK minimizedAffinity -8.70516777
REMARK  3 active torsions:
REMARK  status: ('A' for Active; 'I' for Inactive)
REMARK    1  A    between atoms: C4_4  and  C5_5 
REMARK    2  A    between atoms: C8_11  and  N3_12 
REMARK       I    between atoms: N3_12  and  C9_13 
REMARK       I    between atoms: C9_13  and  N4_15 
REMARK    3  A    between atoms: N4_15  and  C11_17 
ROOT
HETATM    1  C5  UNL     1      -2.086  50.270 -25.268  1.00  0.00     0.072 A 
HETATM    2  N1  UNL     1      -2.332  49.638 -24.108  1.00  0.00    -0.299 N 
ATOM      3  H1  UNL     1      -1.847  49.753 -23.218  1.00  0.00     0.187 HD
HETATM    4  N2  UNL     1      -3.359  48.819 -24.384  1.00  0.00    -0.299 N 
HETATM    5  C6  UNL     1      -3.775  48.862 -25.683  1.00  0.00     0.065 A 
HETATM    6  C7  UNL     1      -4.778  48.169 -26.362  1.00  0.00     0.080 A 
HETATM    7  C8  UNL     1      -4.902  48.478 -27.709  1.00  0.00     0.111 A 
HETATM    8  N5  UNL     1      -4.111  49.373 -28.347  1.00  0.00    -0.351 N 
ATOM      9  H5  UNL     1      -4.244  49.552 -29.342  1.00  0.00     0.166 HD
HETATM   10  C17 UNL     1      -3.140  50.032 -27.663  1.00  0.00     0.105 A 
HETATM   11  C18 UNL     1      -2.957  49.798 -26.299  1.00  0.00     0.036 A 
HETATM   12  H5  UNL     1      -3.731  48.245 -23.635  1.00  0.00     0.187 HD
ENDROOT
BRANCH   7  13
HETATM   13  N3  UNL     1      -5.840  47.889 -28.560  1.00  0.00    -0.294 N 
HETATM   14  C9  UNL     1      -5.689  47.486 -29.857  1.00  0.00     0.324 C 
HETATM   15  O1  UNL     1      -4.622  47.552 -30.466  1.00  0.00    -0.247 OA
HETATM   16  N4  UNL     1      -6.841  46.984 -30.469  1.00  0.00    -0.334 N 
HETATM   17  C10 UNL     1      -6.710  46.511 -31.844  1.00  0.00     0.155 C 
HETATM   18  H7  UNL     1      -6.690  47.682 -28.072  1.00  0.00     0.172 HD
BRANCH  16  19
HETATM   19  C11 UNL     1      -8.216  46.968 -29.928  1.00  0.00     0.088 C 
HETATM   20  C12 UNL     1      -8.289  46.445 -28.480  1.00  0.00     0.025 C 
HETATM   21  C13 UNL     1      -9.371  47.135 -27.651  1.00  0.00     0.002 C 
HETATM   22  C14 UNL     1     -10.648  47.328 -28.458  1.00  0.00     0.000 C 
HETATM   23  C15 UNL     1     -10.434  48.181 -29.710  1.00  0.00     0.002 C 
HETATM   24  C16 UNL     1      -8.973  48.285 -30.151  1.00  0.00     0.025 C 
ENDBRANCH  16  19
ENDBRANCH   7  13
BRANCH   1  25
HETATM   25  C4  UNL     1      -1.033  51.279 -25.357  1.00  0.00    -0.004 A 
HETATM   26  C3  UNL     1       0.179  50.971 -25.983  1.00  0.00     0.038 A 
HETATM   27  C2  UNL     1       1.166  51.947 -26.063  1.00  0.00     0.005 A 
HETATM   28  C1  UNL     1       2.473  51.641 -26.731  1.00  0.00     0.068 C 
HETATM   29  N6  UNL     1       1.004  53.189 -25.552  1.00  0.00    -0.369 N 
HETATM   30  C20 UNL     1      -0.165  53.459 -24.934  1.00  0.00     0.089 A 
ATOM     31  H6  UNL     1       1.737  53.894 -25.631  1.00  0.00     0.165 HD
HETATM   32  C19 UNL     1      -1.201  52.551 -24.812  1.00  0.00     0.031 A 
ENDBRANCH   1  25
TORSDOF 3
ENDMDL
MODEL 8
REMARK minimizedAffinity -8.6917181
REMARK  3 active torsions:
REMARK  status: ('A' for Active; 'I' for Inactive)
REMARK    1  A    between atoms: C4_4  and  C5_5 
REMARK    2  A    between atoms: C8_11  and  N3_12 
REMARK       I    between atoms: N3_12  and  C9_13 
REMARK       I    between atoms: C9_13  and  N4_15 
REMARK    3  A    between atoms: N4_15  and  C11_17 
ROOT
HETATM    1  C5  UNL     1      -1.440  50.724 -24.254  1.00  0.00     0.072 A 
HETATM    2  N1  UNL     1      -2.386  49.769 -24.218  1.00  0.00    -0.299 N 
ATOM      3  H1  UNL     1      -2.951  49.420 -24.992  1.00  0.00     0.187 HD
HETATM    4  N2  UNL     1      -2.419  49.380 -22.934  1.00  0.00    -0.299 N 
HETATM    5  C6  UNL     1      -1.562  50.062 -22.121  1.00  0.00     0.065 A 
HETATM    6  C7  UNL     1      -1.311  49.973 -20.751  1.00  0.00     0.080 A 
HETATM    7  C8  UNL     1      -0.356  50.856 -20.266  1.00  0.00     0.111 A 
HETATM    8  N5  UNL     1       0.291  51.757 -21.042  1.00  0.00    -0.351 N 
ATOM      9  H5  UNL     1       0.978  52.387 -20.627  1.00  0.00     0.166 HD
HETATM   10  C17 UNL     1       0.026  51.824 -22.372  1.00  0.00     0.105 A 
HETATM   11  C18 UNL     1      -0.906  50.960 -22.950  1.00  0.00     0.036 A 
HETATM   12  H5  UNL     1      -3.063  48.640 -22.673  1.00  0.00     0.187 HD
ENDROOT
BRANCH   7  13
HETATM   13  N3  UNL     1       0.030  50.928 -18.926  1.00  0.00    -0.294 N 
HETATM   14  C9  UNL     1      -0.751  51.066 -17.813  1.00  0.00     0.324 C 
HETATM   15  O1  UNL     1      -1.980  51.100 -17.850  1.00  0.00    -0.247 OA
HETATM   16  N4  UNL     1      -0.061  51.171 -16.602  1.00  0.00    -0.334 N 
HETATM   17  C10 UNL     1      -0.863  51.286 -15.388  1.00  0.00     0.155 C 
HETATM   18  H7  UNL     1       1.013  50.764 -18.824  1.00  0.00     0.172 HD
BRANCH  16  19
HETATM   19  C11 UNL     1       1.400  51.288 -16.403  1.00  0.00     0.088 C 
HETATM   20  C12 UNL     1       2.024  52.459 -17.187  1.00  0.00     0.025 C 
HETATM   21  C13 UNL     1       3.191  53.115 -16.450  1.00  0.00     0.002 C 
HETATM   22  C14 UNL     1       4.085  52.072 -15.791  1.00  0.00     0.000 C 
HETATM   23  C15 UNL     1       3.340  51.212 -14.770  1.00  0.00     0.002 C 
HETATM   24  C16 UNL     1       1.818  51.237 -14.927  1.00  0.00     0.025 C 
ENDBRANCH  16  19
ENDBRANCH   7  13
BRANCH   1  25
HETATM   25  C4  UNL     1      -1.094  51.380 -25.513  1.00  0.00    -0.004 A 
HETATM   26  C3  UNL     1       0.177  51.200 -26.069  1.00  0.00     0.038 A 
HETATM   27  C2  UNL     1       0.484  51.827 -27.271  1.00  0.00     0.005 A 
HETATM   28  C1  UNL     1       1.839  51.649 -27.887  1.00  0.00     0.068 C 
HETATM   29  N6  UNL     1      -0.399  52.614 -27.927  1.00  0.00    -0.369 N 
HETATM   30  C20 UNL     1      -1.613  52.790 -27.364  1.00  0.00     0.089 A 
ATOM     31  H6  UNL     1      -0.157  53.056 -28.814  1.00  0.00     0.165 HD
HETATM   32  C19 UNL     1      -2.004  52.203 -26.174  1.00  0.00     0.031 A 
ENDBRANCH   1  25
TORSDOF 3
ENDMDL
MODEL 9
REMARK minimizedAffinity -8.65742111
REMARK  3 active torsions:
REMARK  status: ('A' for Active; 'I' for Inactive)
REMARK    1  A    between atoms: C4_4  and  C5_5 
REMARK    2  A    between atoms: C8_11  and  N3_12 
REMARK       I    between atoms: N3_12  and  C9_13 
REMARK       I    between atoms: C9_13  and  N4_15 
REMARK    3  A    between atoms: N4_15  and  C11_17 
ROOT
HETATM    1  C5  UNL     1      -2.085  50.207 -25.291  1.00  0.00     0.072 A 
HETATM    2  N1  UNL     1      -2.298  49.593 -24.114  1.00  0.00    -0.299 N 
ATOM      3  H1  UNL     1      -1.788  49.724 -23.240  1.00  0.00     0.187 HD
HETATM    4  N2  UNL     1      -3.331  48.770 -24.348  1.00  0.00    -0.299 N 
HETATM    5  C6  UNL     1      -3.783  48.791 -25.635  1.00  0.00     0.065 A 
HETATM    6  C7  UNL     1      -4.803  48.087 -26.275  1.00  0.00     0.080 A 
HETATM    7  C8  UNL     1      -4.965  48.373 -27.623  1.00  0.00     0.111 A 
HETATM    8  N5  UNL     1      -4.193  49.258 -28.297  1.00  0.00    -0.351 N 
ATOM      9  H5  UNL     1      -4.353  49.421 -29.291  1.00  0.00     0.166 HD
HETATM   10  C17 UNL     1      -3.204  49.928 -27.651  1.00  0.00     0.105 A 
HETATM   11  C18 UNL     1      -2.983  49.718 -26.289  1.00  0.00     0.036 A 
HETATM   12  H5  UNL     1      -3.681  48.208 -23.579  1.00  0.00     0.187 HD
ENDROOT
BRANCH   7  13
HETATM   13  N3  UNL     1      -5.925  47.770 -28.438  1.00  0.00    -0.294 N 
HETATM   14  C9  UNL     1      -7.276  47.681 -28.253  1.00  0.00     0.324 C 
HETATM   15  O1  UNL     1      -7.864  48.198 -27.305  1.00  0.00    -0.247 OA
HETATM   16  N4  UNL     1      -7.970  46.952 -29.224  1.00  0.00    -0.334 N 
HETATM   17  C10 UNL     1      -9.419  46.864 -29.078  1.00  0.00     0.155 C 
HETATM   18  H7  UNL     1      -5.520  47.453 -29.299  1.00  0.00     0.172 HD
BRANCH  16  19
HETATM   19  C11 UNL     1      -7.401  46.161 -30.336  1.00  0.00     0.088 C 
HETATM   20  C12 UNL     1      -6.387  46.953 -31.184  1.00  0.00     0.025 C 
HETATM   21  C13 UNL     1      -5.248  46.085 -31.716  1.00  0.00     0.002 C 
HETATM   22  C14 UNL     1      -5.761  44.735 -32.202  1.00  0.00     0.000 C 
HETATM   23  C15 UNL     1      -6.455  43.934 -31.100  1.00  0.00     0.002 C 
HETATM   24  C16 UNL     1      -6.899  44.776 -29.902  1.00  0.00     0.025 C 
ENDBRANCH  16  19
ENDBRANCH   7  13
BRANCH   1  25
HETATM   25  C4  UNL     1      -1.035  51.215 -25.425  1.00  0.00    -0.004 A 
HETATM   26  C3  UNL     1       0.184  50.878 -26.021  1.00  0.00     0.038 A 
HETATM   27  C2  UNL     1       1.168  51.853 -26.146  1.00  0.00     0.005 A 
HETATM   28  C1  UNL     1       2.483  51.518 -26.782  1.00  0.00     0.068 C 
HETATM   29  N6  UNL     1       0.995  53.121 -25.706  1.00  0.00    -0.369 N 
HETATM   30  C20 UNL     1      -0.182  53.420 -25.116  1.00  0.00     0.089 A 
ATOM     31  H6  UNL     1       1.725  53.825 -25.817  1.00  0.00     0.165 HD
HETATM   32  C19 UNL     1      -1.215  52.514 -24.953  1.00  0.00     0.031 A 
ENDBRANCH   1  25
TORSDOF 3
ENDMDL
