MODEL 1
REMARK minimizedAffinity -8.59939194
REMARK  8 active torsions:
REMARK  status: ('A' for Active; 'I' for Inactive)
REMARK    1  A    between atoms: O1_2  and  C2_3 
REMARK    2  A    between atoms: C2_3  and  C3_4 
REMARK    3  A    between atoms: C3_4  and  N1_5 
REMARK    4  A    between atoms: C3_4  and  C19_30 
REMARK       I    between atoms: N1_5  and  C4_6 
REMARK       I    between atoms: C4_6  and  N2_8 
REMARK    5  A    between atoms: N2_8  and  C5_9 
REMARK    6  A    between atoms: C8_15  and  O3_16 
REMARK    7  A    between atoms: O3_16  and  C9_17 
REMARK    8  A    between atoms: C12_20  and  O4_22 
ROOT
HETATM    1  C5  UNL     1      -2.837  50.925 -26.631  1.00  0.00     0.111 A 
HETATM    2  C6  UNL     1      -1.474  50.898 -26.902  1.00  0.00     0.080 A 
HETATM    3  C7  UNL     1      -0.664  51.482 -25.928  1.00  0.00     0.067 A 
HETATM    4  N3  UNL     1       0.692  51.643 -25.835  1.00  0.00    -0.298 N 
HETATM    5  N4  UNL     1       1.096  52.272 -24.715  1.00  0.00    -0.279 N 
ATOM      6  H4  UNL     1       2.047  52.501 -24.423  1.00  0.00     0.189 HD
HETATM    7  C8  UNL     1      -0.050  52.523 -24.077  1.00  0.00     0.171 A 
HETATM    8  C17 UNL     1      -1.181  52.057 -24.775  1.00  0.00     0.060 A 
HETATM    9  C18 UNL     1      -2.559  52.049 -24.584  1.00  0.00     0.108 A 
HETATM   10  N5  UNL     1      -3.371  51.484 -25.517  1.00  0.00    -0.351 N 
ATOM     11  H5  UNL     1      -4.382  51.480 -25.379  1.00  0.00     0.166 HD
HETATM   12  H10 UNL     1       1.396  51.345 -26.502  1.00  0.00     0.187 HD
ENDROOT
BRANCH   1  13
HETATM   13  N2  UNL     1      -3.803  50.393 -27.485  1.00  0.00    -0.295 N 
HETATM   14  C4  UNL     1      -3.919  49.109 -27.945  1.00  0.00     0.322 C 
HETATM   15  N1  UNL     1      -5.000  48.983 -28.790  1.00  0.00    -0.332 N 
HETATM   16  O2  UNL     1      -3.202  48.164 -27.641  1.00  0.00    -0.247 OA
HETATM   17  H7  UNL     1      -5.358  49.828 -29.204  1.00  0.00     0.165 HD
HETATM   18  H8  UNL     1      -4.547  51.044 -27.671  1.00  0.00     0.172 HD
BRANCH  15  19
HETATM   19  C3  UNL     1      -5.283  47.738 -29.496  1.00  0.00     0.143 C 
BRANCH  19  20
HETATM   20  C2  UNL     1      -5.670  47.989 -30.978  1.00  0.00     0.197 C 
BRANCH  20  21
HETATM   21  O1  UNL     1      -4.599  47.767 -31.902  1.00  0.00    -0.394 OA
HETATM   22  C1  UNL     1      -4.546  46.432 -32.388  1.00  0.00     0.201 C 
ENDBRANCH  20  21
ENDBRANCH  19  20
BRANCH  19  23
HETATM   23  C19 UNL     1      -6.354  46.976 -28.728  1.00  0.00    -0.033 A 
HETATM   24  C20 UNL     1      -6.846  45.770 -29.254  1.00  0.00     0.009 A 
HETATM   25  C21 UNL     1      -7.807  45.028 -28.565  1.00  0.00     0.001 A 
HETATM   26  C22 UNL     1      -8.285  45.476 -27.336  1.00  0.00     0.000 A 
HETATM   27  C23 UNL     1      -7.798  46.661 -26.793  1.00  0.00     0.001 A 
HETATM   28  C24 UNL     1      -6.835  47.406 -27.480  1.00  0.00     0.009 A 
ENDBRANCH  19  23
ENDBRANCH  15  19
ENDBRANCH   1  13
BRANCH   7  29
HETATM   29  O3  UNL     1      -0.077  53.159 -22.884  1.00  0.00    -0.329 OA
BRANCH  29  30
HETATM   30  C9  UNL     1       0.627  52.520 -21.810  1.00  0.00     0.131 C 
HETATM   31  C10 UNL     1       0.368  53.378 -20.558  1.00  0.00     0.035 C 
HETATM   32  C11 UNL     1       0.443  52.543 -19.284  1.00  0.00     0.040 C 
HETATM   33  C12 UNL     1      -0.685  51.480 -19.240  1.00  0.00     0.057 C 
HETATM   34  C13 UNL     1      -0.213  50.319 -18.351  1.00  0.00     0.046 C 
HETATM   35  C15 UNL     1      -1.045  50.994 -20.666  1.00  0.00     0.040 C 
HETATM   36  C16 UNL     1       0.139  51.070 -21.627  1.00  0.00     0.035 C 
BRANCH  33  37
HETATM   37  O4  UNL     1      -1.817  52.148 -18.653  1.00  0.00    -0.385 OA
HETATM   38  C14 UNL     1      -3.066  51.472 -18.722  1.00  0.00     0.202 C 
ENDBRANCH  33  37
ENDBRANCH  29  30
ENDBRANCH   7  29
TORSDOF 8
ENDMDL
MODEL 2
REMARK minimizedAffinity -8.51577377
REMARK  8 active torsions:
REMARK  status: ('A' for Active; 'I' for Inactive)
REMARK    1  A    between atoms: O1_2  and  C2_3 
REMARK    2  A    between atoms: C2_3  and  C3_4 
REMARK    3  A    between atoms: C3_4  and  N1_5 
REMARK    4  A    between atoms: C3_4  and  C19_30 
REMARK       I    between atoms: N1_5  and  C4_6 
REMARK       I    between atoms: C4_6  and  N2_8 
REMARK    5  A    between atoms: N2_8  and  C5_9 
REMARK    6  A    between atoms: C8_15  and  O3_16 
REMARK    7  A    between atoms: O3_16  and  C9_17 
REMARK    8  A    between atoms: C12_20  and  O4_22 
ROOT
HETATM    1  C5  UNL     1      -3.218  48.738 -24.312  1.00  0.00     0.111 A 
HETATM    2  C6  UNL     1      -4.591  48.554 -24.205  1.00  0.00     0.080 A 
HETATM    3  C7  UNL     1      -5.252  48.312 -25.409  1.00  0.00     0.067 A 
HETATM    4  N3  UNL     1      -6.569  48.085 -25.706  1.00  0.00    -0.298 N 
HETATM    5  N4  UNL     1      -6.813  47.891 -27.017  1.00  0.00    -0.279 N 
ATOM      6  H4  UNL     1      -7.704  47.702 -27.475  1.00  0.00     0.189 HD
HETATM    7  C8  UNL     1      -5.603  48.006 -27.571  1.00  0.00     0.171 A 
HETATM    8  C17 UNL     1      -4.589  48.265 -26.628  1.00  0.00     0.060 A 
HETATM    9  C18 UNL     1      -3.212  48.468 -26.648  1.00  0.00     0.108 A 
HETATM   10  N5  UNL     1      -2.543  48.703 -25.488  1.00  0.00    -0.351 N 
ATOM     11  H5  UNL     1      -1.534  48.854 -25.502  1.00  0.00     0.166 HD
HETATM   12  H10 UNL     1      -7.350  48.047 -25.060  1.00  0.00     0.187 HD
ENDROOT
BRANCH   1  13
HETATM   13  N2  UNL     1      -2.387  48.992 -23.221  1.00  0.00    -0.295 N 
HETATM   14  C4  UNL     1      -2.520  49.953 -22.254  1.00  0.00     0.322 C 
HETATM   15  N1  UNL     1      -1.480  49.894 -21.353  1.00  0.00    -0.332 N 
HETATM   16  O2  UNL     1      -3.445  50.749 -22.148  1.00  0.00    -0.247 OA
HETATM   17  H7  UNL     1      -0.641  49.423 -21.652  1.00  0.00     0.165 HD
HETATM   18  H8  UNL     1      -1.677  48.288 -23.109  1.00  0.00     0.172 HD
BRANCH  15  19
HETATM   19  C3  UNL     1      -1.333  50.876 -20.284  1.00  0.00     0.143 C 
BRANCH  19  20
HETATM   20  C2  UNL     1      -2.707  51.399 -19.787  1.00  0.00     0.197 C 
BRANCH  20  21
HETATM   21  O1  UNL     1      -2.685  51.907 -18.449  1.00  0.00    -0.394 OA
HETATM   22  C1  UNL     1      -2.684  50.886 -17.462  1.00  0.00     0.201 C 
ENDBRANCH  20  21
ENDBRANCH  19  20
BRANCH  19  23
HETATM   23  C19 UNL     1      -0.418  51.991 -20.771  1.00  0.00    -0.033 A 
HETATM   24  C20 UNL     1       0.203  52.828 -19.829  1.00  0.00     0.009 A 
HETATM   25  C21 UNL     1       1.071  53.843 -20.235  1.00  0.00     0.001 A 
HETATM   26  C22 UNL     1       1.338  54.032 -21.589  1.00  0.00     0.000 A 
HETATM   27  C23 UNL     1       0.743  53.202 -22.536  1.00  0.00     0.001 A 
HETATM   28  C24 UNL     1      -0.126  52.184 -22.131  1.00  0.00     0.009 A 
ENDBRANCH  19  23
ENDBRANCH  15  19
ENDBRANCH   1  13
BRANCH   7  29
HETATM   29  O3  UNL     1      -5.414  47.876 -28.903  1.00  0.00    -0.329 OA
BRANCH  29  30
HETATM   30  C9  UNL     1      -6.588  47.625 -29.687  1.00  0.00     0.131 C 
HETATM   31  C10 UNL     1      -6.490  48.551 -30.913  1.00  0.00     0.035 C 
HETATM   32  C11 UNL     1      -7.228  47.968 -32.114  1.00  0.00     0.040 C 
HETATM   33  C12 UNL     1      -6.568  46.651 -32.596  1.00  0.00     0.057 C 
HETATM   34  C13 UNL     1      -7.639  45.813 -33.311  1.00  0.00     0.046 C 
HETATM   35  C15 UNL     1      -5.940  45.879 -31.409  1.00  0.00     0.040 C 
HETATM   36  C16 UNL     1      -6.666  46.140 -30.091  1.00  0.00     0.035 C 
BRANCH  33  37
HETATM   37  O4  UNL     1      -5.535  47.055 -33.514  1.00  0.00    -0.385 OA
HETATM   38  C14 UNL     1      -5.931  47.884 -34.599  1.00  0.00     0.202 C 
ENDBRANCH  33  37
ENDBRANCH  29  30
ENDBRANCH   7  29
TORSDOF 8
ENDMDL
MODEL 3
REMARK minimizedAffinity -8.48606586
REMARK  8 active torsions:
REMARK  status: ('A' for Active; 'I' for Inactive)
REMARK    1  A    between atoms: O1_2  and  C2_3 
REMARK    2  A    between atoms: C2_3  and  C3_4 
REMARK    3  A    between atoms: C3_4  and  N1_5 
REMARK    4  A    between atoms: C3_4  and  C19_30 
REMARK       I    between atoms: N1_5  and  C4_6 
REMARK       I    between atoms: C4_6  and  N2_8 
REMARK    5  A    between atoms: N2_8  and  C5_9 
REMARK    6  A    between atoms: C8_15  and  O3_16 
REMARK    7  A    between atoms: O3_16  and  C9_17 
REMARK    8  A    between atoms: C12_20  and  O4_22 
ROOT
HETATM    1  C5  UNL     1       1.095  52.960 -19.678  1.00  0.00     0.111 A 
HETATM    2  C6  UNL     1       1.666  54.063 -20.302  1.00  0.00     0.080 A 
HETATM    3  C7  UNL     1       1.445  54.146 -21.676  1.00  0.00     0.067 A 
HETATM    4  N3  UNL     1       1.833  55.064 -22.616  1.00  0.00    -0.298 N 
HETATM    5  N4  UNL     1       1.410  54.785 -23.865  1.00  0.00    -0.279 N 
ATOM      6  H4  UNL     1       1.568  55.316 -24.721  1.00  0.00     0.189 HD
HETATM    7  C8  UNL     1       0.734  53.644 -23.709  1.00  0.00     0.171 A 
HETATM    8  C17 UNL     1       0.714  53.194 -22.374  1.00  0.00     0.060 A 
HETATM    9  C18 UNL     1       0.182  52.115 -21.674  1.00  0.00     0.108 A 
HETATM   10  N5  UNL     1       0.381  52.011 -20.333  1.00  0.00    -0.351 N 
ATOM     11  H5  UNL     1      -0.007  51.219 -19.819  1.00  0.00     0.166 HD
HETATM   12  H10 UNL     1       2.385  55.901 -22.470  1.00  0.00     0.187 HD
ENDROOT
BRANCH   1  13
HETATM   13  N2  UNL     1       1.208  52.704 -18.312  1.00  0.00    -0.295 N 
HETATM   14  C4  UNL     1       0.478  51.836 -17.544  1.00  0.00     0.322 C 
HETATM   15  N1  UNL     1       0.879  51.885 -16.227  1.00  0.00    -0.332 N 
HETATM   16  O2  UNL     1      -0.395  51.076 -17.944  1.00  0.00    -0.247 OA
HETATM   17  H7  UNL     1       1.383  52.705 -15.932  1.00  0.00     0.165 HD
HETATM   18  H8  UNL     1       2.010  53.154 -17.904  1.00  0.00     0.172 HD
BRANCH  15  19
HETATM   19  C3  UNL     1       0.190  51.131 -15.185  1.00  0.00     0.143 C 
BRANCH  19  20
HETATM   20  C2  UNL     1      -0.125  52.012 -13.946  1.00  0.00     0.197 C 
BRANCH  20  21
HETATM   21  O1  UNL     1      -1.474  51.898 -13.481  1.00  0.00    -0.394 OA
HETATM   22  C1  UNL     1      -2.324  51.213 -14.390  1.00  0.00     0.201 C 
ENDBRANCH  20  21
ENDBRANCH  19  20
BRANCH  19  23
HETATM   23  C19 UNL     1       1.023  49.905 -14.840  1.00  0.00    -0.033 A 
HETATM   24  C20 UNL     1       2.156  50.055 -14.024  1.00  0.00     0.009 A 
HETATM   25  C21 UNL     1       2.929  48.950 -13.662  1.00  0.00     0.001 A 
HETATM   26  C22 UNL     1       2.576  47.677 -14.103  1.00  0.00     0.000 A 
HETATM   27  C23 UNL     1       1.446  47.508 -14.900  1.00  0.00     0.001 A 
HETATM   28  C24 UNL     1       0.671  48.613 -15.263  1.00  0.00     0.009 A 
ENDBRANCH  19  23
ENDBRANCH  15  19
ENDBRANCH   1  13
BRANCH   7  29
HETATM   29  O3  UNL     1       0.139  53.020 -24.750  1.00  0.00    -0.329 OA
BRANCH  29  30
HETATM   30  C9  UNL     1      -0.100  51.614 -24.592  1.00  0.00     0.131 C 
HETATM   31  C10 UNL     1      -1.484  51.487 -23.931  1.00  0.00     0.035 C 
HETATM   32  C11 UNL     1      -2.160  50.170 -24.298  1.00  0.00     0.040 C 
HETATM   33  C12 UNL     1      -2.471  50.101 -25.814  1.00  0.00     0.057 C 
HETATM   34  C13 UNL     1      -2.528  48.620 -26.224  1.00  0.00     0.046 C 
HETATM   35  C15 UNL     1      -1.412  50.877 -26.635  1.00  0.00     0.040 C 
HETATM   36  C16 UNL     1      -0.044  50.896 -25.955  1.00  0.00     0.035 C 
BRANCH  33  37
HETATM   37  O4  UNL     1      -3.760  50.725 -25.970  1.00  0.00    -0.385 OA
HETATM   38  C14 UNL     1      -3.868  52.081 -25.556  1.00  0.00     0.202 C 
ENDBRANCH  33  37
ENDBRANCH  29  30
ENDBRANCH   7  29
TORSDOF 8
ENDMDL
MODEL 4
REMARK minimizedAffinity -8.48520184
REMARK  8 active torsions:
REMARK  status: ('A' for Active; 'I' for Inactive)
REMARK    1  A    between atoms: O1_2  and  C2_3 
REMARK    2  A    between atoms: C2_3  and  C3_4 
REMARK    3  A    between atoms: C3_4  and  N1_5 
REMARK    4  A    between atoms: C3_4  and  C19_30 
REMARK       I    between atoms: N1_5  and  C4_6 
REMARK       I    between atoms: C4_6  and  N2_8 
REMARK    5  A    between atoms: N2_8  and  C5_9 
REMARK    6  A    between atoms: C8_15  and  O3_16 
REMARK    7  A    between atoms: O3_16  and  C9_17 
REMARK    8  A    between atoms: C12_20  and  O4_22 
ROOT
HETATM    1  C5  UNL     1      -3.150  48.786 -24.557  1.00  0.00     0.111 A 
HETATM    2  C6  UNL     1      -4.509  48.495 -24.601  1.00  0.00     0.080 A 
HETATM    3  C7  UNL     1      -5.044  48.359 -25.882  1.00  0.00     0.067 A 
HETATM    4  N3  UNL     1      -6.309  48.079 -26.325  1.00  0.00    -0.298 N 
HETATM    5  N4  UNL     1      -6.425  48.033 -27.666  1.00  0.00    -0.279 N 
ATOM      6  H4  UNL     1      -7.256  47.841 -28.225  1.00  0.00     0.189 HD
HETATM    7  C8  UNL     1      -5.186  48.301 -28.087  1.00  0.00     0.171 A 
HETATM    8  C17 UNL     1      -4.279  48.511 -27.030  1.00  0.00     0.060 A 
HETATM    9  C18 UNL     1      -2.926  48.810 -26.898  1.00  0.00     0.108 A 
HETATM   10  N5  UNL     1      -2.379  48.945 -25.660  1.00  0.00    -0.351 N 
ATOM     11  H5  UNL     1      -1.387  49.166 -25.562  1.00  0.00     0.166 HD
HETATM   12  H10 UNL     1      -7.136  47.907 -25.763  1.00  0.00     0.187 HD
ENDROOT
BRANCH   1  13
HETATM   13  N2  UNL     1      -2.439  48.959 -23.370  1.00  0.00    -0.295 N 
HETATM   14  C4  UNL     1      -2.586  49.937 -22.422  1.00  0.00     0.322 C 
HETATM   15  N1  UNL     1      -1.677  49.775 -21.400  1.00  0.00    -0.332 N 
HETATM   16  O2  UNL     1      -3.427  50.828 -22.428  1.00  0.00    -0.247 OA
HETATM   17  H7  UNL     1      -0.863  49.216 -21.596  1.00  0.00     0.165 HD
HETATM   18  H8  UNL     1      -1.826  48.185 -23.175  1.00  0.00     0.172 HD
BRANCH  15  19
HETATM   19  C3  UNL     1      -1.558  50.745 -20.317  1.00  0.00     0.143 C 
BRANCH  19  20
HETATM   20  C2  UNL     1      -2.940  51.317 -19.899  1.00  0.00     0.197 C 
BRANCH  20  21
HETATM   21  O1  UNL     1      -2.992  51.778 -18.545  1.00  0.00    -0.394 OA
HETATM   22  C1  UNL     1      -2.849  50.734 -17.592  1.00  0.00     0.201 C 
ENDBRANCH  20  21
ENDBRANCH  19  20
BRANCH  19  23
HETATM   23  C19 UNL     1      -0.576  51.828 -20.739  1.00  0.00    -0.033 A 
HETATM   24  C20 UNL     1      -0.030  52.676 -19.761  1.00  0.00     0.009 A 
HETATM   25  C21 UNL     1       0.897  53.662 -20.105  1.00  0.00     0.001 A 
HETATM   26  C22 UNL     1       1.298  53.811 -21.430  1.00  0.00     0.000 A 
HETATM   27  C23 UNL     1       0.778  52.969 -22.411  1.00  0.00     0.001 A 
HETATM   28  C24 UNL     1      -0.149  51.980 -22.069  1.00  0.00     0.009 A 
ENDBRANCH  19  23
ENDBRANCH  15  19
ENDBRANCH   1  13
BRANCH   7  29
HETATM   29  O3  UNL     1      -4.875  48.351 -29.402  1.00  0.00    -0.329 OA
BRANCH  29  30
HETATM   30  C9  UNL     1      -5.550  47.410 -30.248  1.00  0.00     0.131 C 
HETATM   31  C10 UNL     1      -6.326  46.470 -29.308  1.00  0.00     0.035 C 
HETATM   32  C11 UNL     1      -7.562  45.892 -29.992  1.00  0.00     0.040 C 
HETATM   33  C12 UNL     1      -8.589  47.003 -30.329  1.00  0.00     0.057 C 
HETATM   34  C13 UNL     1      -9.439  46.524 -31.516  1.00  0.00     0.046 C 
HETATM   35  C15 UNL     1      -7.876  48.341 -30.644  1.00  0.00     0.040 C 
HETATM   36  C16 UNL     1      -6.483  48.136 -31.236  1.00  0.00     0.035 C 
BRANCH  33  37
HETATM   37  O4  UNL     1      -9.397  47.150 -29.146  1.00  0.00    -0.385 OA
HETATM   38  C14 UNL     1     -10.019  45.974 -28.646  1.00  0.00     0.202 C 
ENDBRANCH  33  37
ENDBRANCH  29  30
ENDBRANCH   7  29
TORSDOF 8
ENDMDL
MODEL 5
REMARK minimizedAffinity -8.35196686
REMARK  8 active torsions:
REMARK  status: ('A' for Active; 'I' for Inactive)
REMARK    1  A    between atoms: O1_2  and  C2_3 
REMARK    2  A    between atoms: C2_3  and  C3_4 
REMARK    3  A    between atoms: C3_4  and  N1_5 
REMARK    4  A    between atoms: C3_4  and  C19_30 
REMARK       I    between atoms: N1_5  and  C4_6 
REMARK       I    between atoms: C4_6  and  N2_8 
REMARK    5  A    between atoms: N2_8  and  C5_9 
REMARK    6  A    between atoms: C8_15  and  O3_16 
REMARK    7  A    between atoms: O3_16  and  C9_17 
REMARK    8  A    between atoms: C12_20  and  O4_22 
ROOT
HETATM    1  C5  UNL     1      -3.507  49.019 -25.793  1.00  0.00     0.111 A 
HETATM    2  C6  UNL     1      -4.620  48.583 -25.083  1.00  0.00     0.080 A 
HETATM    3  C7  UNL     1      -5.645  48.047 -25.861  1.00  0.00     0.067 A 
HETATM    4  N3  UNL     1      -6.868  47.522 -25.536  1.00  0.00    -0.298 N 
HETATM    5  N4  UNL     1      -7.584  47.100 -26.596  1.00  0.00    -0.279 N 
ATOM      6  H4  UNL     1      -8.512  46.674 -26.605  1.00  0.00     0.189 HD
HETATM    7  C8  UNL     1      -6.786  47.373 -27.631  1.00  0.00     0.171 A 
HETATM    8  C17 UNL     1      -5.565  47.959 -27.244  1.00  0.00     0.060 A 
HETATM    9  C18 UNL     1      -4.418  48.426 -27.878  1.00  0.00     0.108 A 
HETATM   10  N5  UNL     1      -3.401  48.952 -27.143  1.00  0.00    -0.351 N 
ATOM     11  H5  UNL     1      -2.561  49.296 -27.607  1.00  0.00     0.166 HD
HETATM   12  H10 UNL     1      -7.270  47.423 -24.611  1.00  0.00     0.187 HD
ENDROOT
BRANCH   1  13
HETATM   13  N2  UNL     1      -2.383  49.585 -25.191  1.00  0.00    -0.295 N 
HETATM   14  C4  UNL     1      -1.924  50.872 -25.283  1.00  0.00     0.322 C 
HETATM   15  N1  UNL     1      -0.766  51.037 -24.555  1.00  0.00    -0.332 N 
HETATM   16  O2  UNL     1      -2.463  51.790 -25.889  1.00  0.00    -0.247 OA
HETATM   17  H7  UNL     1      -0.246  50.205 -24.328  1.00  0.00     0.165 HD
HETATM   18  H8  UNL     1      -1.949  48.963 -24.530  1.00  0.00     0.172 HD
BRANCH  15  19
HETATM   19  C3  UNL     1      -0.020  52.290 -24.572  1.00  0.00     0.143 C 
BRANCH  19  20
HETATM   20  C2  UNL     1       1.230  52.207 -25.489  1.00  0.00     0.197 C 
BRANCH  20  21
HETATM   21  O1  UNL     1       1.059  52.837 -26.762  1.00  0.00    -0.394 OA
HETATM   22  C1  UNL     1       0.932  51.911 -27.833  1.00  0.00     0.201 C 
ENDBRANCH  20  21
ENDBRANCH  19  20
BRANCH  19  23
HETATM   23  C19 UNL     1       0.325  52.670 -23.139  1.00  0.00    -0.033 A 
HETATM   24  C20 UNL     1       1.121  53.803 -22.904  1.00  0.00     0.009 A 
HETATM   25  C21 UNL     1       1.434  54.201 -21.603  1.00  0.00     0.001 A 
HETATM   26  C22 UNL     1       0.949  53.477 -20.517  1.00  0.00     0.000 A 
HETATM   27  C23 UNL     1       0.146  52.360 -20.731  1.00  0.00     0.001 A 
HETATM   28  C24 UNL     1      -0.170  51.960 -22.033  1.00  0.00     0.009 A 
ENDBRANCH  19  23
ENDBRANCH  15  19
ENDBRANCH   1  13
BRANCH   7  29
HETATM   29  O3  UNL     1      -7.149  47.095 -28.903  1.00  0.00    -0.329 OA
BRANCH  29  30
HETATM   30  C9  UNL     1      -6.148  47.310 -29.908  1.00  0.00     0.131 C 
HETATM   31  C10 UNL     1      -6.047  45.994 -30.700  1.00  0.00     0.035 C 
HETATM   32  C11 UNL     1      -5.583  46.238 -32.132  1.00  0.00     0.040 C 
HETATM   33  C12 UNL     1      -6.626  47.065 -32.927  1.00  0.00     0.057 C 
HETATM   34  C13 UNL     1      -5.890  47.804 -34.056  1.00  0.00     0.046 C 
HETATM   35  C15 UNL     1      -7.378  48.050 -31.999  1.00  0.00     0.040 C 
HETATM   36  C16 UNL     1      -6.529  48.498 -30.811  1.00  0.00     0.035 C 
BRANCH  33  37
HETATM   37  O4  UNL     1      -7.550  46.100 -33.464  1.00  0.00    -0.385 OA
HETATM   38  C14 UNL     1      -8.417  46.550 -34.497  1.00  0.00     0.202 C 
ENDBRANCH  33  37
ENDBRANCH  29  30
ENDBRANCH   7  29
TORSDOF 8
ENDMDL
MODEL 6
REMARK minimizedAffinity -8.34075356
REMARK  8 active torsions:
REMARK  status: ('A' for Active; 'I' for Inactive)
REMARK    1  A    between atoms: O1_2  and  C2_3 
REMARK    2  A    between atoms: C2_3  and  C3_4 
REMARK    3  A    between atoms: C3_4  and  N1_5 
REMARK    4  A    between atoms: C3_4  and  C19_30 
REMARK       I    between atoms: N1_5  and  C4_6 
REMARK       I    between atoms: C4_6  and  N2_8 
REMARK    5  A    between atoms: N2_8  and  C5_9 
REMARK    6  A    between atoms: C8_15  and  O3_16 
REMARK    7  A    between atoms: O3_16  and  C9_17 
REMARK    8  A    between atoms: C12_20  and  O4_22 
ROOT
HETATM    1  C5  UNL     1      -3.443  49.101 -25.728  1.00  0.00     0.111 A 
HETATM    2  C6  UNL     1      -3.424  48.860 -27.097  1.00  0.00     0.080 A 
HETATM    3  C7  UNL     1      -4.568  48.244 -27.605  1.00  0.00     0.067 A 
HETATM    4  N3  UNL     1      -4.918  47.855 -28.871  1.00  0.00    -0.298 N 
HETATM    5  N4  UNL     1      -6.134  47.282 -28.954  1.00  0.00    -0.279 N 
ATOM      6  H4  UNL     1      -6.609  46.920 -29.781  1.00  0.00     0.189 HD
HETATM    7  C8  UNL     1      -6.567  47.304 -27.691  1.00  0.00     0.171 A 
HETATM    8  C17 UNL     1      -5.644  47.890 -26.803  1.00  0.00     0.060 A 
HETATM    9  C18 UNL     1      -5.579  48.161 -25.439  1.00  0.00     0.108 A 
HETATM   10  N5  UNL     1      -4.476  48.763 -24.918  1.00  0.00    -0.351 N 
ATOM     11  H5  UNL     1      -4.426  48.960 -23.918  1.00  0.00     0.166 HD
HETATM   12  H10 UNL     1      -4.372  47.955 -29.720  1.00  0.00     0.187 HD
ENDROOT
BRANCH   1  13
HETATM   13  N2  UNL     1      -2.392  49.706 -25.039  1.00  0.00    -0.295 N 
HETATM   14  C4  UNL     1      -2.074  51.036 -24.966  1.00  0.00     0.322 C 
HETATM   15  N1  UNL     1      -0.947  51.233 -24.198  1.00  0.00    -0.332 N 
HETATM   16  O2  UNL     1      -2.703  51.959 -25.469  1.00  0.00    -0.247 OA
HETATM   17  H7  UNL     1      -0.342  50.439 -24.061  1.00  0.00     0.165 HD
HETATM   18  H8  UNL     1      -1.900  49.057 -24.448  1.00  0.00     0.172 HD
BRANCH  15  19
HETATM   19  C3  UNL     1      -0.340  52.551 -24.049  1.00  0.00     0.143 C 
BRANCH  19  20
HETATM   20  C2  UNL     1       0.829  52.766 -25.048  1.00  0.00     0.197 C 
BRANCH  20  21
HETATM   21  O1  UNL     1       0.655  53.896 -25.909  1.00  0.00    -0.394 OA
HETATM   22  C1  UNL     1      -0.043  53.587 -27.107  1.00  0.00     0.201 C 
ENDBRANCH  20  21
ENDBRANCH  19  20
BRANCH  19  23
HETATM   23  C19 UNL     1       0.085  52.729 -22.598  1.00  0.00    -0.033 A 
HETATM   24  C20 UNL     1      -0.464  51.887 -21.616  1.00  0.00     0.009 A 
HETATM   25  C21 UNL     1      -0.077  52.001 -20.279  1.00  0.00     0.001 A 
HETATM   26  C22 UNL     1       0.870  52.951 -19.905  1.00  0.00     0.000 A 
HETATM   27  C23 UNL     1       1.435  53.783 -20.868  1.00  0.00     0.001 A 
HETATM   28  C24 UNL     1       1.050  53.671 -22.207  1.00  0.00     0.009 A 
ENDBRANCH  19  23
ENDBRANCH  15  19
ENDBRANCH   1  13
BRANCH   7  29
HETATM   29  O3  UNL     1      -7.776  46.808 -27.343  1.00  0.00    -0.329 OA
BRANCH  29  30
HETATM   30  C9  UNL     1      -8.916  47.447 -27.935  1.00  0.00     0.131 C 
HETATM   31  C10 UNL     1      -8.378  48.270 -29.119  1.00  0.00     0.035 C 
HETATM   32  C11 UNL     1      -9.434  48.439 -30.207  1.00  0.00     0.040 C 
HETATM   33  C12 UNL     1      -9.805  47.077 -30.847  1.00  0.00     0.057 C 
HETATM   34  C13 UNL     1     -11.230  47.187 -31.413  1.00  0.00     0.046 C 
HETATM   35  C15 UNL     1      -9.692  45.929 -29.814  1.00  0.00     0.040 C 
HETATM   36  C16 UNL     1      -9.953  46.400 -28.385  1.00  0.00     0.035 C 
BRANCH  33  37
HETATM   37  O4  UNL     1      -8.848  46.876 -31.904  1.00  0.00    -0.385 OA
HETATM   38  C14 UNL     1      -8.369  48.041 -32.563  1.00  0.00     0.202 C 
ENDBRANCH  33  37
ENDBRANCH  29  30
ENDBRANCH   7  29
TORSDOF 8
ENDMDL
MODEL 7
REMARK minimizedAffinity -8.30747318
REMARK  8 active torsions:
REMARK  status: ('A' for Active; 'I' for Inactive)
REMARK    1  A    between atoms: O1_2  and  C2_3 
REMARK    2  A    between atoms: C2_3  and  C3_4 
REMARK    3  A    between atoms: C3_4  and  N1_5 
REMARK    4  A    between atoms: C3_4  and  C19_30 
REMARK       I    between atoms: N1_5  and  C4_6 
REMARK       I    between atoms: C4_6  and  N2_8 
REMARK    5  A    between atoms: N2_8  and  C5_9 
REMARK    6  A    between atoms: C8_15  and  O3_16 
REMARK    7  A    between atoms: O3_16  and  C9_17 
REMARK    8  A    between atoms: C12_20  and  O4_22 
ROOT
HETATM    1  C5  UNL     1      -3.837  48.991 -27.504  1.00  0.00     0.111 A 
HETATM    2  C6  UNL     1      -3.405  50.165 -28.111  1.00  0.00     0.080 A 
HETATM    3  C7  UNL     1      -2.426  50.868 -27.409  1.00  0.00     0.067 A 
HETATM    4  N3  UNL     1      -1.765  52.037 -27.676  1.00  0.00    -0.298 N 
HETATM    5  N4  UNL     1      -0.873  52.392 -26.731  1.00  0.00    -0.279 N 
ATOM      6  H4  UNL     1      -0.264  53.211 -26.709  1.00  0.00     0.189 HD
HETATM    7  C8  UNL     1      -0.979  51.413 -25.829  1.00  0.00     0.171 A 
HETATM    8  C17 UNL     1      -1.924  50.433 -26.190  1.00  0.00     0.060 A 
HETATM    9  C18 UNL     1      -2.417  49.250 -25.648  1.00  0.00     0.108 A 
HETATM   10  N5  UNL     1      -3.371  48.544 -26.313  1.00  0.00    -0.351 N 
ATOM     11  H5  UNL     1      -3.734  47.677 -25.915  1.00  0.00     0.166 HD
HETATM   12  H10 UNL     1      -1.875  52.638 -28.485  1.00  0.00     0.187 HD
ENDROOT
BRANCH   1  13
HETATM   13  N2  UNL     1      -4.810  48.155 -28.052  1.00  0.00    -0.295 N 
HETATM   14  C4  UNL     1      -5.168  48.009 -29.366  1.00  0.00     0.322 C 
HETATM   15  N1  UNL     1      -6.190  47.095 -29.501  1.00  0.00    -0.332 N 
HETATM   16  O2  UNL     1      -4.648  48.569 -30.323  1.00  0.00    -0.247 OA
HETATM   17  H7  UNL     1      -6.739  46.897 -28.680  1.00  0.00     0.165 HD
HETATM   18  H8  UNL     1      -5.193  47.519 -27.372  1.00  0.00     0.172 HD
BRANCH  15  19
HETATM   19  C3  UNL     1      -6.823  46.836 -30.789  1.00  0.00     0.143 C 
BRANCH  19  20
HETATM   20  C2  UNL     1      -8.371  46.906 -30.698  1.00  0.00     0.197 C 
BRANCH  20  21
HETATM   21  O1  UNL     1      -8.865  48.136 -30.158  1.00  0.00    -0.394 OA
HETATM   22  C1  UNL     1      -8.567  49.264 -30.969  1.00  0.00     0.201 C 
ENDBRANCH  20  21
ENDBRANCH  19  20
BRANCH  19  23
HETATM   23  C19 UNL     1      -6.323  45.498 -31.316  1.00  0.00    -0.033 A 
HETATM   24  C20 UNL     1      -5.150  45.460 -32.087  1.00  0.00     0.009 A 
HETATM   25  C21 UNL     1      -4.644  44.249 -32.563  1.00  0.00     0.001 A 
HETATM   26  C22 UNL     1      -5.300  43.056 -32.269  1.00  0.00     0.000 A 
HETATM   27  C23 UNL     1      -6.456  43.073 -31.493  1.00  0.00     0.001 A 
HETATM   28  C24 UNL     1      -6.963  44.284 -31.015  1.00  0.00     0.009 A 
ENDBRANCH  19  23
ENDBRANCH  15  19
ENDBRANCH   1  13
BRANCH   7  29
HETATM   29  O3  UNL     1      -0.235  51.399 -24.700  1.00  0.00    -0.329 OA
BRANCH  29  30
HETATM   30  C9  UNL     1      -0.695  52.233 -23.628  1.00  0.00     0.131 C 
HETATM   31  C10 UNL     1      -1.514  51.321 -22.698  1.00  0.00     0.035 C 
HETATM   32  C11 UNL     1      -1.493  51.827 -21.259  1.00  0.00     0.040 C 
HETATM   33  C12 UNL     1      -0.063  51.769 -20.663  1.00  0.00     0.057 C 
HETATM   34  C13 UNL     1       0.033  52.823 -19.549  1.00  0.00     0.046 C 
HETATM   35  C15 UNL     1       1.005  52.001 -21.759  1.00  0.00     0.040 C 
HETATM   36  C16 UNL     1       0.494  52.884 -22.896  1.00  0.00     0.035 C 
BRANCH  33  37
HETATM   37  O4  UNL     1       0.073  50.440 -20.125  1.00  0.00    -0.385 OA
HETATM   38  C14 UNL     1      -0.731  50.120 -18.997  1.00  0.00     0.202 C 
ENDBRANCH  33  37
ENDBRANCH  29  30
ENDBRANCH   7  29
TORSDOF 8
ENDMDL
MODEL 8
REMARK minimizedAffinity -8.27368259
REMARK  8 active torsions:
REMARK  status: ('A' for Active; 'I' for Inactive)
REMARK    1  A    between atoms: O1_2  and  C2_3 
REMARK    2  A    between atoms: C2_3  and  C3_4 
REMARK    3  A    between atoms: C3_4  and  N1_5 
REMARK    4  A    between atoms: C3_4  and  C19_30 
REMARK       I    between atoms: N1_5  and  C4_6 
REMARK       I    between atoms: C4_6  and  N2_8 
REMARK    5  A    between atoms: N2_8  and  C5_9 
REMARK    6  A    between atoms: C8_15  and  O3_16 
REMARK    7  A    between atoms: O3_16  and  C9_17 
REMARK    8  A    between atoms: C12_20  and  O4_22 
ROOT
HETATM    1  C5  UNL     1       2.463  66.270 -37.539  1.00  0.00     0.111 A 
HETATM    2  C6  UNL     1       3.456  66.914 -38.268  1.00  0.00     0.080 A 
HETATM    3  C7  UNL     1       3.051  67.420 -39.503  1.00  0.00     0.067 A 
HETATM    4  N3  UNL     1       3.722  68.103 -40.482  1.00  0.00    -0.298 N 
HETATM    5  N4  UNL     1       2.963  68.423 -41.548  1.00  0.00    -0.279 N 
ATOM      6  H4  UNL     1       3.235  68.928 -42.391  1.00  0.00     0.189 HD
HETATM    7  C8  UNL     1       1.767  67.918 -41.233  1.00  0.00     0.171 A 
HETATM    8  C17 UNL     1       1.752  67.285 -39.975  1.00  0.00     0.060 A 
HETATM    9  C18 UNL     1       0.820  66.618 -39.185  1.00  0.00     0.108 A 
HETATM   10  N5  UNL     1       1.189  66.117 -37.975  1.00  0.00    -0.351 N 
ATOM     11  H5  UNL     1       0.507  65.626 -37.396  1.00  0.00     0.166 HD
HETATM   12  H10 UNL     1       4.696  68.382 -40.483  1.00  0.00     0.187 HD
ENDROOT
BRANCH   1  13
HETATM   13  N2  UNL     1       2.677  65.699 -36.285  1.00  0.00    -0.295 N 
HETATM   14  C4  UNL     1       3.824  65.688 -35.537  1.00  0.00     0.322 C 
HETATM   15  N1  UNL     1       3.638  65.002 -34.357  1.00  0.00    -0.332 N 
HETATM   16  O2  UNL     1       4.880  66.237 -35.826  1.00  0.00    -0.247 OA
HETATM   17  H7  UNL     1       2.864  64.359 -34.318  1.00  0.00     0.165 HD
HETATM   18  H8  UNL     1       1.825  65.360 -35.870  1.00  0.00     0.172 HD
BRANCH  15  19
HETATM   19  C3  UNL     1       4.737  64.758 -33.429  1.00  0.00     0.143 C 
BRANCH  19  20
HETATM   20  C2  UNL     1       5.632  66.014 -33.250  1.00  0.00     0.197 C 
BRANCH  20  21
HETATM   21  O1  UNL     1       6.239  66.114 -31.958  1.00  0.00    -0.394 OA
HETATM   22  C1  UNL     1       7.368  66.976 -31.934  1.00  0.00     0.201 C 
ENDBRANCH  20  21
ENDBRANCH  19  20
BRANCH  19  23
HETATM   23  C19 UNL     1       5.517  63.541 -33.907  1.00  0.00    -0.033 A 
HETATM   24  C20 UNL     1       4.839  62.326 -34.098  1.00  0.00     0.009 A 
HETATM   25  C21 UNL     1       5.514  61.195 -34.564  1.00  0.00     0.001 A 
HETATM   26  C22 UNL     1       6.874  61.265 -34.853  1.00  0.00     0.000 A 
HETATM   27  C23 UNL     1       7.559  62.466 -34.684  1.00  0.00     0.001 A 
HETATM   28  C24 UNL     1       6.885  63.599 -34.219  1.00  0.00     0.009 A 
ENDBRANCH  19  23
ENDBRANCH  15  19
ENDBRANCH   1  13
BRANCH   7  29
HETATM   29  O3  UNL     1       0.705  68.029 -42.062  1.00  0.00    -0.329 OA
BRANCH  29  30
HETATM   30  C9  UNL     1       0.099  69.327 -42.143  1.00  0.00     0.131 C 
HETATM   31  C10 UNL     1      -1.164  69.156 -43.006  1.00  0.00     0.035 C 
HETATM   32  C11 UNL     1      -2.229  70.188 -42.648  1.00  0.00     0.040 C 
HETATM   33  C12 UNL     1      -2.744  69.986 -41.200  1.00  0.00     0.057 C 
HETATM   34  C13 UNL     1      -3.273  71.335 -40.688  1.00  0.00     0.046 C 
HETATM   35  C15 UNL     1      -1.626  69.429 -40.285  1.00  0.00     0.040 C 
HETATM   36  C16 UNL     1      -0.232  69.862 -40.736  1.00  0.00     0.035 C 
BRANCH  33  37
HETATM   37  O4  UNL     1      -3.811  69.024 -41.305  1.00  0.00    -0.385 OA
HETATM   38  C14 UNL     1      -4.786  69.256 -42.312  1.00  0.00     0.202 C 
ENDBRANCH  33  37
ENDBRANCH  29  30
ENDBRANCH   7  29
TORSDOF 8
ENDMDL
MODEL 9
REMARK minimizedAffinity -8.15942097
REMARK  8 active torsions:
REMARK  status: ('A' for Active; 'I' for Inactive)
REMARK    1  A    between atoms: O1_2  and  C2_3 
REMARK    2  A    between atoms: C2_3  and  C3_4 
REMARK    3  A    between atoms: C3_4  and  N1_5 
REMARK    4  A    between atoms: C3_4  and  C19_30 
REMARK       I    between atoms: N1_5  and  C4_6 
REMARK       I    between atoms: C4_6  and  N2_8 
REMARK    5  A    between atoms: N2_8  and  C5_9 
REMARK    6  A    between atoms: C8_15  and  O3_16 
REMARK    7  A    between atoms: O3_16  and  C9_17 
REMARK    8  A    between atoms: C12_20  and  O4_22 
ROOT
HETATM    1  C5  UNL     1       0.546  52.545 -18.668  1.00  0.00     0.111 A 
HETATM    2  C6  UNL     1       1.262  53.177 -19.678  1.00  0.00     0.080 A 
HETATM    3  C7  UNL     1       0.880  52.840 -20.976  1.00  0.00     0.067 A 
HETATM    4  N3  UNL     1       1.333  53.245 -22.203  1.00  0.00    -0.298 N 
HETATM    5  N4  UNL     1       0.691  52.676 -23.242  1.00  0.00    -0.279 N 
ATOM      6  H4  UNL     1       0.846  52.821 -24.240  1.00  0.00     0.189 HD
HETATM    7  C8  UNL     1      -0.199  51.877 -22.648  1.00  0.00     0.171 A 
HETATM    8  C17 UNL     1      -0.137  51.933 -21.242  1.00  0.00     0.060 A 
HETATM    9  C18 UNL     1      -0.800  51.338 -20.172  1.00  0.00     0.108 A 
HETATM   10  N5  UNL     1      -0.447  51.652 -18.897  1.00  0.00    -0.351 N 
ATOM     11  H5  UNL     1      -0.931  51.214 -18.112  1.00  0.00     0.166 HD
HETATM   12  H10 UNL     1       2.076  53.906 -22.399  1.00  0.00     0.187 HD
ENDROOT
BRANCH   1  13
HETATM   13  N2  UNL     1       0.784  52.752 -17.310  1.00  0.00    -0.295 N 
HETATM   14  C4  UNL     1       0.915  51.820 -16.315  1.00  0.00     0.322 C 
HETATM   15  N1  UNL     1       1.124  52.426 -15.095  1.00  0.00    -0.332 N 
HETATM   16  O2  UNL     1       0.892  50.604 -16.457  1.00  0.00    -0.247 OA
HETATM   17  H7  UNL     1       0.855  53.392 -15.012  1.00  0.00     0.165 HD
HETATM   18  H8  UNL     1       0.988  53.715 -17.101  1.00  0.00     0.172 HD
BRANCH  15  19
HETATM   19  C3  UNL     1       1.193  51.656 -13.858  1.00  0.00     0.143 C 
BRANCH  19  20
HETATM   20  C2  UNL     1       2.163  50.450 -13.980  1.00  0.00     0.197 C 
BRANCH  20  21
HETATM   21  O1  UNL     1       3.545  50.820 -14.034  1.00  0.00    -0.394 OA
HETATM   22  C1  UNL     1       4.426  49.734 -13.782  1.00  0.00     0.201 C 
ENDBRANCH  20  21
ENDBRANCH  19  20
BRANCH  19  23
HETATM   23  C19 UNL     1      -0.217  51.241 -13.464  1.00  0.00    -0.033 A 
HETATM   24  C20 UNL     1      -1.168  52.234 -13.174  1.00  0.00     0.009 A 
HETATM   25  C21 UNL     1      -2.479  51.893 -12.838  1.00  0.00     0.001 A 
HETATM   26  C22 UNL     1      -2.863  50.555 -12.795  1.00  0.00     0.000 A 
HETATM   27  C23 UNL     1      -1.938  49.558 -13.094  1.00  0.00     0.001 A 
HETATM   28  C24 UNL     1      -0.624  49.897 -13.432  1.00  0.00     0.009 A 
ENDBRANCH  19  23
ENDBRANCH  15  19
ENDBRANCH   1  13
BRANCH   7  29
HETATM   29  O3  UNL     1      -1.057  51.112 -23.361  1.00  0.00    -0.329 OA
BRANCH  29  30
HETATM   30  C9  UNL     1      -1.481  51.645 -24.623  1.00  0.00     0.131 C 
HETATM   31  C10 UNL     1      -0.652  52.923 -24.848  1.00  0.00     0.035 C 
HETATM   32  C11 UNL     1      -0.470  53.216 -26.334  1.00  0.00     0.040 C 
HETATM   33  C12 UNL     1       0.367  52.111 -27.027  1.00  0.00     0.057 C 
HETATM   34  C13 UNL     1      -0.010  52.090 -28.517  1.00  0.00     0.046 C 
HETATM   35  C15 UNL     1       0.128  50.734 -26.360  1.00  0.00     0.040 C 
HETATM   36  C16 UNL     1      -1.266  50.614 -25.748  1.00  0.00     0.035 C 
BRANCH  33  37
HETATM   37  O4  UNL     1       1.741  52.504 -26.851  1.00  0.00    -0.385 OA
HETATM   38  C14 UNL     1       2.682  51.462 -26.630  1.00  0.00     0.202 C 
ENDBRANCH  33  37
ENDBRANCH  29  30
ENDBRANCH   7  29
TORSDOF 8
ENDMDL
