MODEL 1
REMARK minimizedAffinity -9.18200874
REMARK  6 active torsions:
REMARK  status: ('A' for Active; 'I' for Inactive)
REMARK    1  A    between atoms: N1_2  and  C2_3 
REMARK    2  A    between atoms: C2_3  and  C3_4 
REMARK    3  A    between atoms: C3_4  and  N2_5 
REMARK    4  A    between atoms: C3_4  and  C18_28 
REMARK       I    between atoms: N2_5  and  C4_6 
REMARK       I    between atoms: C4_6  and  N3_8 
REMARK    5  A    between atoms: C9_15  and  N5_16 
REMARK    6  A    between atoms: N5_16  and  C10_17 
ROOT
HETATM    1  N2  UNL     1      -0.542  51.311 -24.956  1.00  0.00    -0.333 N 
HETATM    2  C4  UNL     1      -0.012  52.559 -24.755  1.00  0.00     0.319 C 
HETATM    3  O1  UNL     1       0.154  53.356 -25.674  1.00  0.00    -0.247 OA
HETATM    4  N3  UNL     1       0.318  52.842 -23.436  1.00  0.00    -0.328 N 
HETATM    5  C5  UNL     1       0.795  54.194 -23.149  1.00  0.00     0.132 C 
HETATM    6  C6  UNL     1       1.745  54.210 -21.953  1.00  0.00     0.062 C 
HETATM    7  C7  UNL     1       1.172  53.470 -20.788  1.00  0.00    -0.016 A 
HETATM    8  C8  UNL     1       1.598  53.669 -19.497  1.00  0.00     0.115 A 
HETATM    9  N4  UNL     1       1.118  52.991 -18.440  1.00  0.00    -0.201 N 
ATOM     10  H4  UNL     1       1.454  53.176 -17.495  1.00  0.00     0.183 HD
HETATM   11  C9  UNL     1       0.182  52.062 -18.674  1.00  0.00     0.682 A 
HETATM   12  N6  UNL     1      -0.285  51.786 -19.904  1.00  0.00    -0.193 N 
ATOM     13  H6  UNL     1      -0.998  51.070 -20.046  1.00  0.00     0.184 HD
HETATM   14  C16 UNL     1       0.216  52.484 -20.948  1.00  0.00     0.052 A 
HETATM   15  C17 UNL     1      -0.335  52.150 -22.317  1.00  0.00     0.185 C 
HETATM   16  H8  UNL     1      -0.064  50.599 -24.424  1.00  0.00     0.165 HD
ENDROOT
BRANCH   1  17
HETATM   17  C3  UNL     1      -0.932  50.884 -26.301  1.00  0.00     0.147 C 
BRANCH  17  18
HETATM   18  C2  UNL     1      -1.136  52.094 -27.268  1.00  0.00     0.298 C 
BRANCH  18  19
HETATM   19  N1  UNL     1      -0.355  51.973 -28.514  1.00  0.00     0.081 N 
HETATM   20  C1  UNL     1       1.029  51.620 -28.225  1.00  0.00     0.306 C 
HETATM   21  H4  UNL     1      -0.769  51.239 -29.091  1.00  0.00     0.315 HD
ENDBRANCH  18  19
ENDBRANCH  17  18
BRANCH  17  22
HETATM   22  C18 UNL     1      -2.179  50.011 -26.191  1.00  0.00    -0.032 A 
HETATM   23  C19 UNL     1      -2.635  49.591 -24.930  1.00  0.00     0.012 A 
HETATM   24  C20 UNL     1      -3.781  48.802 -24.816  1.00  0.00     0.044 A 
HETATM   25  C21 UNL     1      -4.480  48.429 -25.960  1.00  0.00     0.138 A 
HETATM   26  F2  UNL     1      -5.580  47.673 -25.824  1.00  0.00    -0.204 F 
HETATM   27  C22 UNL     1      -4.047  48.837 -27.218  1.00  0.00     0.073 A 
HETATM   28 CL1  UNL     1      -4.913  48.388 -28.636  1.00  0.00    -0.081 Cl
HETATM   29  C23 UNL     1      -2.902  49.627 -27.336  1.00  0.00     0.036 A 
ENDBRANCH  17  22
ENDBRANCH   1  17
BRANCH  11  30
HETATM   30  N5  UNL     1      -0.384  51.304 -17.653  1.00  0.00    -0.192 N 
HETATM   31  H14 UNL     1      -1.389  51.361 -17.728  1.00  0.00     0.184 HD
BRANCH  30  32
HETATM   32  C10 UNL     1       0.134  50.495 -16.637  1.00  0.00     0.049 A 
HETATM   33  C11 UNL     1       0.876  51.106 -15.609  1.00  0.00     0.033 A 
HETATM   34  C12 UNL     1       1.431  50.356 -14.568  1.00  0.00     0.044 A 
HETATM   35  C13 UNL     1       1.250  48.981 -14.549  1.00  0.00     0.116 A 
HETATM   36  F1  UNL     1       1.782  48.258 -13.555  1.00  0.00    -0.206 F 
HETATM   37  C14 UNL     1       0.526  48.349 -15.548  1.00  0.00     0.044 A 
HETATM   38  C15 UNL     1      -0.027  49.105 -16.587  1.00  0.00     0.033 A 
ENDBRANCH  30  32
ENDBRANCH  11  30
TORSDOF 6
ENDMDL
MODEL 2
REMARK minimizedAffinity -9.09963512
REMARK  6 active torsions:
REMARK  status: ('A' for Active; 'I' for Inactive)
REMARK    1  A    between atoms: N1_2  and  C2_3 
REMARK    2  A    between atoms: C2_3  and  C3_4 
REMARK    3  A    between atoms: C3_4  and  N2_5 
REMARK    4  A    between atoms: C3_4  and  C18_28 
REMARK       I    between atoms: N2_5  and  C4_6 
REMARK       I    between atoms: C4_6  and  N3_8 
REMARK    5  A    between atoms: C9_15  and  N5_16 
REMARK    6  A    between atoms: N5_16  and  C10_17 
ROOT
HETATM    1  N2  UNL     1      -2.202  49.510 -23.822  1.00  0.00    -0.333 N 
HETATM    2  C4  UNL     1      -1.760  50.664 -24.418  1.00  0.00     0.319 C 
HETATM    3  O1  UNL     1      -2.017  50.937 -25.587  1.00  0.00    -0.247 OA
HETATM    4  N3  UNL     1      -1.006  51.488 -23.593  1.00  0.00    -0.328 N 
HETATM    5  C5  UNL     1      -0.592  52.776 -24.146  1.00  0.00     0.132 C 
HETATM    6  C6  UNL     1       0.719  53.256 -23.527  1.00  0.00     0.062 C 
HETATM    7  C7  UNL     1       0.681  53.179 -22.035  1.00  0.00    -0.016 A 
HETATM    8  C8  UNL     1       1.524  53.908 -21.231  1.00  0.00     0.115 A 
HETATM    9  N4  UNL     1       1.527  53.829 -19.888  1.00  0.00    -0.201 N 
ATOM     10  H4  UNL     1       2.163  54.396 -19.326  1.00  0.00     0.183 HD
HETATM   11  C9  UNL     1       0.666  52.978 -19.317  1.00  0.00     0.682 A 
HETATM   12  N6  UNL     1      -0.185  52.212 -20.022  1.00  0.00    -0.193 N 
ATOM     13  H6  UNL     1      -0.827  51.572 -19.553  1.00  0.00     0.184 HD
HETATM   14  C16 UNL     1      -0.166  52.313 -21.370  1.00  0.00     0.052 A 
HETATM   15  C17 UNL     1      -1.139  51.439 -22.131  1.00  0.00     0.185 C 
HETATM   16  H8  UNL     1      -1.497  49.082 -23.242  1.00  0.00     0.165 HD
ENDROOT
BRANCH   1  17
HETATM   17  C3  UNL     1      -3.008  48.552 -24.580  1.00  0.00     0.147 C 
BRANCH  17  18
HETATM   18  C2  UNL     1      -2.904  48.783 -26.123  1.00  0.00     0.298 C 
BRANCH  18  19
HETATM   19  N1  UNL     1      -4.153  49.303 -26.712  1.00  0.00     0.081 N 
HETATM   20  C1  UNL     1      -4.385  48.721 -28.028  1.00  0.00     0.306 C 
HETATM   21  H4  UNL     1      -4.932  49.058 -26.101  1.00  0.00     0.315 HD
ENDBRANCH  18  19
ENDBRANCH  17  18
BRANCH  17  22
HETATM   22  C18 UNL     1      -4.447  48.622 -24.078  1.00  0.00    -0.032 A 
HETATM   23  C19 UNL     1      -5.465  47.935 -24.761  1.00  0.00     0.012 A 
HETATM   24  C20 UNL     1      -6.784  47.983 -24.304  1.00  0.00     0.044 A 
HETATM   25  C21 UNL     1      -7.094  48.714 -23.162  1.00  0.00     0.138 A 
HETATM   26  F2  UNL     1      -8.367  48.741 -22.741  1.00  0.00    -0.204 F 
HETATM   27  C22 UNL     1      -6.100  49.399 -22.469  1.00  0.00     0.073 A 
HETATM   28 CL1  UNL     1      -6.475  50.297 -21.050  1.00  0.00    -0.081 Cl
HETATM   29  C23 UNL     1      -4.780  49.353 -22.922  1.00  0.00     0.036 A 
ENDBRANCH  17  22
ENDBRANCH   1  17
BRANCH  11  30
HETATM   30  N5  UNL     1       0.584  52.819 -17.937  1.00  0.00    -0.192 N 
HETATM   31  H14 UNL     1      -0.345  53.071 -17.637  1.00  0.00     0.184 HD
BRANCH  30  32
HETATM   32  C10 UNL     1       1.469  52.364 -16.953  1.00  0.00     0.049 A 
HETATM   33  C11 UNL     1       1.000  51.426 -16.014  1.00  0.00     0.033 A 
HETATM   34  C12 UNL     1       1.827  50.937 -15.000  1.00  0.00     0.044 A 
HETATM   35  C13 UNL     1       3.136  51.386 -14.914  1.00  0.00     0.116 A 
HETATM   36  F1  UNL     1       3.932  50.922 -13.942  1.00  0.00    -0.206 F 
HETATM   37  C14 UNL     1       3.628  52.311 -15.822  1.00  0.00     0.044 A 
HETATM   38  C15 UNL     1       2.795  52.797 -16.835  1.00  0.00     0.033 A 
ENDBRANCH  30  32
ENDBRANCH  11  30
TORSDOF 6
ENDMDL
MODEL 3
REMARK minimizedAffinity -9.01818085
REMARK  6 active torsions:
REMARK  status: ('A' for Active; 'I' for Inactive)
REMARK    1  A    between atoms: N1_2  and  C2_3 
REMARK    2  A    between atoms: C2_3  and  C3_4 
REMARK    3  A    between atoms: C3_4  and  N2_5 
REMARK    4  A    between atoms: C3_4  and  C18_28 
REMARK       I    between atoms: N2_5  and  C4_6 
REMARK       I    between atoms: C4_6  and  N3_8 
REMARK    5  A    between atoms: C9_15  and  N5_16 
REMARK    6  A    between atoms: N5_16  and  C10_17 
ROOT
HETATM    1  N2  UNL     1      -3.488  49.935 -22.389  1.00  0.00    -0.333 N 
HETATM    2  C4  UNL     1      -2.946  50.948 -23.137  1.00  0.00     0.319 C 
HETATM    3  O1  UNL     1      -3.358  51.225 -24.260  1.00  0.00    -0.247 OA
HETATM    4  N3  UNL     1      -1.903  51.626 -22.521  1.00  0.00    -0.328 N 
HETATM    5  C5  UNL     1      -1.353  52.779 -23.233  1.00  0.00     0.132 C 
HETATM    6  C6  UNL     1       0.119  52.998 -22.891  1.00  0.00     0.062 C 
HETATM    7  C7  UNL     1       0.347  52.986 -21.415  1.00  0.00    -0.016 A 
HETATM    8  C8  UNL     1       1.452  53.553 -20.828  1.00  0.00     0.115 A 
HETATM    9  N4  UNL     1       1.692  53.524 -19.505  1.00  0.00    -0.201 N 
ATOM     10  H4  UNL     1       2.520  53.967 -19.107  1.00  0.00     0.183 HD
HETATM   11  C9  UNL     1       0.802  52.893 -18.729  1.00  0.00     0.682 A 
HETATM   12  N6  UNL     1      -0.301  52.295 -19.214  1.00  0.00    -0.193 N 
ATOM     13  H6  UNL     1      -0.957  51.821 -18.593  1.00  0.00     0.184 HD
HETATM   14  C16 UNL     1      -0.515  52.340 -20.549  1.00  0.00     0.052 A 
HETATM   15  C17 UNL     1      -1.766  51.661 -21.060  1.00  0.00     0.185 C 
HETATM   16  H8  UNL     1      -2.786  49.391 -21.911  1.00  0.00     0.165 HD
ENDROOT
BRANCH   1  17
HETATM   17  C3  UNL     1      -4.596  49.138 -22.920  1.00  0.00     0.147 C 
BRANCH  17  18
HETATM   18  C2  UNL     1      -4.872  47.863 -22.059  1.00  0.00     0.298 C 
BRANCH  18  19
HETATM   19  N1  UNL     1      -3.651  47.306 -21.447  1.00  0.00     0.081 N 
HETATM   20  C1  UNL     1      -3.925  46.014 -20.829  1.00  0.00     0.306 C 
HETATM   21  H4  UNL     1      -2.947  47.180 -22.176  1.00  0.00     0.315 HD
ENDBRANCH  18  19
ENDBRANCH  17  18
BRANCH  17  22
HETATM   22  C18 UNL     1      -4.297  48.800 -24.377  1.00  0.00    -0.032 A 
HETATM   23  C19 UNL     1      -2.967  48.748 -24.829  1.00  0.00     0.012 A 
HETATM   24  C20 UNL     1      -2.680  48.429 -26.158  1.00  0.00     0.044 A 
HETATM   25  C21 UNL     1      -3.719  48.158 -27.043  1.00  0.00     0.138 A 
HETATM   26  F2  UNL     1      -3.418  47.851 -28.314  1.00  0.00    -0.204 F 
HETATM   27  C22 UNL     1      -5.043  48.202 -26.615  1.00  0.00     0.073 A 
HETATM   28 CL1  UNL     1      -6.331  47.858 -27.703  1.00  0.00    -0.081 Cl
HETATM   29  C23 UNL     1      -5.333  48.519 -25.287  1.00  0.00     0.036 A 
ENDBRANCH  17  22
ENDBRANCH   1  17
BRANCH  11  30
HETATM   30  N5  UNL     1       0.950  52.805 -17.348  1.00  0.00    -0.192 N 
HETATM   31  H14 UNL     1       0.146  53.228 -16.909  1.00  0.00     0.184 HD
BRANCH  30  32
HETATM   32  C10 UNL     1       1.913  52.242 -16.504  1.00  0.00     0.049 A 
HETATM   33  C11 UNL     1       1.506  51.246 -15.596  1.00  0.00     0.033 A 
HETATM   34  C12 UNL     1       2.413  50.649 -14.717  1.00  0.00     0.044 A 
HETATM   35  C13 UNL     1       3.742  51.045 -14.739  1.00  0.00     0.116 A 
HETATM   36  F1  UNL     1       4.616  50.477 -13.897  1.00  0.00    -0.206 F 
HETATM   37  C14 UNL     1       4.175  52.024 -15.620  1.00  0.00     0.044 A 
HETATM   38  C15 UNL     1       3.261  52.619 -16.497  1.00  0.00     0.033 A 
ENDBRANCH  30  32
ENDBRANCH  11  30
TORSDOF 6
ENDMDL
MODEL 4
REMARK minimizedAffinity -8.822299
REMARK  6 active torsions:
REMARK  status: ('A' for Active; 'I' for Inactive)
REMARK    1  A    between atoms: N1_2  and  C2_3 
REMARK    2  A    between atoms: C2_3  and  C3_4 
REMARK    3  A    between atoms: C3_4  and  N2_5 
REMARK    4  A    between atoms: C3_4  and  C18_28 
REMARK       I    between atoms: N2_5  and  C4_6 
REMARK       I    between atoms: C4_6  and  N3_8 
REMARK    5  A    between atoms: C9_15  and  N5_16 
REMARK    6  A    between atoms: N5_16  and  C10_17 
ROOT
HETATM    1  N2  UNL     1      -1.716  50.278 -18.544  1.00  0.00    -0.333 N 
HETATM    2  C4  UNL     1      -3.068  50.201 -18.759  1.00  0.00     0.319 C 
HETATM    3  O1  UNL     1      -3.857  49.906 -17.867  1.00  0.00    -0.247 OA
HETATM    4  N3  UNL     1      -3.463  50.483 -20.060  1.00  0.00    -0.328 N 
HETATM    5  C5  UNL     1      -4.901  50.512 -20.323  1.00  0.00     0.132 C 
HETATM    6  C6  UNL     1      -5.214  50.129 -21.768  1.00  0.00     0.062 C 
HETATM    7  C7  UNL     1      -4.368  50.894 -22.733  1.00  0.00    -0.016 A 
HETATM    8  C8  UNL     1      -4.711  51.058 -24.054  1.00  0.00     0.115 A 
HETATM    9  N4  UNL     1      -3.948  51.715 -24.946  1.00  0.00    -0.201 N 
ATOM     10  H4  UNL     1      -4.244  51.824 -25.916  1.00  0.00     0.183 HD
HETATM   11  C9  UNL     1      -2.787  52.221 -24.513  1.00  0.00     0.682 A 
HETATM   12  N6  UNL     1      -2.361  52.098 -23.243  1.00  0.00    -0.193 N 
ATOM     13  H6  UNL     1      -1.469  52.495 -22.948  1.00  0.00     0.184 HD
HETATM   14  C16 UNL     1      -3.149  51.431 -22.369  1.00  0.00     0.052 A 
HETATM   15  C17 UNL     1      -2.640  51.314 -20.949  1.00  0.00     0.185 C 
HETATM   16  H8  UNL     1      -1.182  49.875 -19.299  1.00  0.00     0.165 HD
ENDROOT
BRANCH   1  17
HETATM   17  C3  UNL     1      -1.165  50.004 -17.216  1.00  0.00     0.147 C 
BRANCH  17  18
HETATM   18  C2  UNL     1      -2.226  50.193 -16.085  1.00  0.00     0.298 C 
BRANCH  18  19
HETATM   19  N1  UNL     1      -2.493  48.953 -15.332  1.00  0.00     0.081 N 
HETATM   20  C1  UNL     1      -2.688  49.239 -13.916  1.00  0.00     0.306 C 
HETATM   21  H4  UNL     1      -3.341  48.521 -15.701  1.00  0.00     0.315 HD
ENDBRANCH  18  19
ENDBRANCH  17  18
BRANCH  17  22
HETATM   22  C18 UNL     1       0.067  50.881 -17.009  1.00  0.00    -0.032 A 
HETATM   23  C19 UNL     1       0.388  51.875 -17.949  1.00  0.00     0.012 A 
HETATM   24  C20 UNL     1       1.505  52.692 -17.765  1.00  0.00     0.044 A 
HETATM   25  C21 UNL     1       2.308  52.522 -16.642  1.00  0.00     0.138 A 
HETATM   26  F2  UNL     1       3.374  53.321 -16.486  1.00  0.00    -0.204 F 
HETATM   27  C22 UNL     1       2.006  51.545 -15.698  1.00  0.00     0.073 A 
HETATM   28 CL1  UNL     1       2.989  51.337 -14.300  1.00  0.00    -0.081 Cl
HETATM   29  C23 UNL     1       0.889  50.728 -15.877  1.00  0.00     0.036 A 
ENDBRANCH  17  22
ENDBRANCH   1  17
BRANCH  11  30
HETATM   30  N5  UNL     1      -1.923  52.921 -25.350  1.00  0.00    -0.192 N 
HETATM   31  H14 UNL     1      -2.237  53.878 -25.411  1.00  0.00     0.184 HD
BRANCH  30  32
HETATM   32  C10 UNL     1      -0.754  52.589 -26.042  1.00  0.00     0.049 A 
HETATM   33  C11 UNL     1      -0.777  52.627 -27.449  1.00  0.00     0.033 A 
HETATM   34  C12 UNL     1       0.352  52.297 -28.204  1.00  0.00     0.044 A 
HETATM   35  C13 UNL     1       1.519  51.922 -27.554  1.00  0.00     0.116 A 
HETATM   36  F1  UNL     1       2.603  51.603 -28.273  1.00  0.00    -0.206 F 
HETATM   37  C14 UNL     1       1.573  51.872 -26.170  1.00  0.00     0.044 A 
HETATM   38  C15 UNL     1       0.439  52.203 -25.420  1.00  0.00     0.033 A 
ENDBRANCH  30  32
ENDBRANCH  11  30
TORSDOF 6
ENDMDL
MODEL 5
REMARK minimizedAffinity -8.75335884
REMARK  6 active torsions:
REMARK  status: ('A' for Active; 'I' for Inactive)
REMARK    1  A    between atoms: N1_2  and  C2_3 
REMARK    2  A    between atoms: C2_3  and  C3_4 
REMARK    3  A    between atoms: C3_4  and  N2_5 
REMARK    4  A    between atoms: C3_4  and  C18_28 
REMARK       I    between atoms: N2_5  and  C4_6 
REMARK       I    between atoms: C4_6  and  N3_8 
REMARK    5  A    between atoms: C9_15  and  N5_16 
REMARK    6  A    between atoms: N5_16  and  C10_17 
ROOT
HETATM    1  N2  UNL     1      -2.788  49.577 -22.999  1.00  0.00    -0.333 N 
HETATM    2  C4  UNL     1      -2.271  50.620 -23.724  1.00  0.00     0.319 C 
HETATM    3  O1  UNL     1      -2.592  50.828 -24.891  1.00  0.00    -0.247 OA
HETATM    4  N3  UNL     1      -1.364  51.412 -23.032  1.00  0.00    -0.328 N 
HETATM    5  C5  UNL     1      -0.857  52.595 -23.725  1.00  0.00     0.132 C 
HETATM    6  C6  UNL     1       0.546  52.965 -23.248  1.00  0.00     0.062 C 
HETATM    7  C7  UNL     1       0.623  53.011 -21.757  1.00  0.00    -0.016 A 
HETATM    8  C8  UNL     1       1.605  53.697 -21.084  1.00  0.00     0.115 A 
HETATM    9  N4  UNL     1       1.711  53.724 -19.743  1.00  0.00    -0.201 N 
ATOM     10  H4  UNL     1       2.449  54.256 -19.281  1.00  0.00     0.183 HD
HETATM   11  C9  UNL     1       0.811  53.028 -19.038  1.00  0.00     0.682 A 
HETATM   12  N6  UNL     1      -0.176  52.314 -19.608  1.00  0.00    -0.193 N 
ATOM     13  H6  UNL     1      -0.844  51.794 -19.039  1.00  0.00     0.184 HD
HETATM   14  C16 UNL     1      -0.257  52.305 -20.958  1.00  0.00     0.052 A 
HETATM   15  C17 UNL     1      -1.380  51.495 -21.566  1.00  0.00     0.185 C 
HETATM   16  H8  UNL     1      -2.089  49.116 -22.436  1.00  0.00     0.165 HD
ENDROOT
BRANCH   1  17
HETATM   17  C3  UNL     1      -3.755  48.663 -23.609  1.00  0.00     0.147 C 
BRANCH  17  18
HETATM   18  C2  UNL     1      -4.847  49.421 -24.430  1.00  0.00     0.298 C 
BRANCH  18  19
HETATM   19  N1  UNL     1      -5.117  48.799 -25.741  1.00  0.00     0.081 N 
HETATM   20  C1  UNL     1      -3.880  48.337 -26.359  1.00  0.00     0.306 C 
HETATM   21  H4  UNL     1      -5.736  47.999 -25.603  1.00  0.00     0.315 HD
ENDBRANCH  18  19
ENDBRANCH  17  18
BRANCH  17  22
HETATM   22  C18 UNL     1      -4.356  47.789 -22.512  1.00  0.00    -0.032 A 
HETATM   23  C19 UNL     1      -5.669  47.305 -22.639  1.00  0.00     0.012 A 
HETATM   24  C20 UNL     1      -6.226  46.494 -21.648  1.00  0.00     0.044 A 
HETATM   25  C21 UNL     1      -5.475  46.160 -20.525  1.00  0.00     0.138 A 
HETATM   26  F2  UNL     1      -6.031  45.377 -19.589  1.00  0.00    -0.204 F 
HETATM   27  C22 UNL     1      -4.171  46.626 -20.382  1.00  0.00     0.073 A 
HETATM   28 CL1  UNL     1      -3.233  46.207 -19.001  1.00  0.00    -0.081 Cl
HETATM   29  C23 UNL     1      -3.611  47.436 -21.371  1.00  0.00     0.036 A 
ENDBRANCH  17  22
ENDBRANCH   1  17
BRANCH  11  30
HETATM   30  N5  UNL     1       0.826  52.990 -17.647  1.00  0.00    -0.192 N 
HETATM   31  H14 UNL     1      -0.005  53.446 -17.301  1.00  0.00     0.184 HD
BRANCH  30  32
HETATM   32  C10 UNL     1       1.690  52.437 -16.696  1.00  0.00     0.049 A 
HETATM   33  C11 UNL     1       1.171  51.495 -15.787  1.00  0.00     0.033 A 
HETATM   34  C12 UNL     1       1.976  50.911 -14.806  1.00  0.00     0.044 A 
HETATM   35  C13 UNL     1       3.314  51.267 -14.723  1.00  0.00     0.116 A 
HETATM   36  F1  UNL     1       4.089  50.712 -13.783  1.00  0.00    -0.206 F 
HETATM   37  C14 UNL     1       3.856  52.193 -15.602  1.00  0.00     0.044 A 
HETATM   38  C15 UNL     1       3.044  52.774 -16.582  1.00  0.00     0.033 A 
ENDBRANCH  30  32
ENDBRANCH  11  30
TORSDOF 6
ENDMDL
MODEL 6
REMARK minimizedAffinity -8.68103313
REMARK  6 active torsions:
REMARK  status: ('A' for Active; 'I' for Inactive)
REMARK    1  A    between atoms: N1_2  and  C2_3 
REMARK    2  A    between atoms: C2_3  and  C3_4 
REMARK    3  A    between atoms: C3_4  and  N2_5 
REMARK    4  A    between atoms: C3_4  and  C18_28 
REMARK       I    between atoms: N2_5  and  C4_6 
REMARK       I    between atoms: C4_6  and  N3_8 
REMARK    5  A    between atoms: C9_15  and  N5_16 
REMARK    6  A    between atoms: N5_16  and  C10_17 
ROOT
HETATM    1  N2  UNL     1      -2.199  49.798 -18.912  1.00  0.00    -0.333 N 
HETATM    2  C4  UNL     1      -3.336  49.122 -19.276  1.00  0.00     0.319 C 
HETATM    3  O1  UNL     1      -4.097  48.627 -18.450  1.00  0.00    -0.247 OA
HETATM    4  N3  UNL     1      -3.549  49.047 -20.646  1.00  0.00    -0.328 N 
HETATM    5  C5  UNL     1      -4.796  48.424 -21.088  1.00  0.00     0.132 C 
HETATM    6  C6  UNL     1      -4.640  47.771 -22.460  1.00  0.00     0.062 C 
HETATM    7  C7  UNL     1      -4.004  48.701 -23.440  1.00  0.00    -0.016 A 
HETATM    8  C8  UNL     1      -4.119  48.541 -24.800  1.00  0.00     0.115 A 
HETATM    9  N4  UNL     1      -3.527  49.348 -25.699  1.00  0.00    -0.201 N 
ATOM     10  H4  UNL     1      -3.647  49.200 -26.702  1.00  0.00     0.183 HD
HETATM   11  C9  UNL     1      -2.777  50.352 -25.229  1.00  0.00     0.682 A 
HETATM   12  N6  UNL     1      -2.593  50.578 -23.916  1.00  0.00    -0.193 N 
ATOM     13  H6  UNL     1      -2.013  51.352 -23.593  1.00  0.00     0.184 HD
HETATM   14  C16 UNL     1      -3.200  49.750 -23.036  1.00  0.00     0.052 A 
HETATM   15  C17 UNL     1      -2.975  50.036 -21.568  1.00  0.00     0.185 C 
HETATM   16  H8  UNL     1      -1.413  49.574 -19.502  1.00  0.00     0.165 HD
ENDROOT
BRANCH   1  17
HETATM   17  C3  UNL     1      -1.854  49.950 -17.497  1.00  0.00     0.147 C 
BRANCH  17  18
HETATM   18  C2  UNL     1      -3.045  50.513 -16.657  1.00  0.00     0.298 C 
BRANCH  18  19
HETATM   19  N1  UNL     1      -3.283  49.754 -15.414  1.00  0.00     0.081 N 
HETATM   20  C1  UNL     1      -2.660  48.438 -15.485  1.00  0.00     0.306 C 
HETATM   21  H4  UNL     1      -2.878  50.269 -14.631  1.00  0.00     0.315 HD
ENDBRANCH  18  19
ENDBRANCH  17  18
BRANCH  17  22
HETATM   22  C18 UNL     1      -0.606  50.820 -17.392  1.00  0.00    -0.032 A 
HETATM   23  C19 UNL     1       0.217  50.736 -16.257  1.00  0.00     0.012 A 
HETATM   24  C20 UNL     1       1.369  51.519 -16.154  1.00  0.00     0.044 A 
HETATM   25  C21 UNL     1       1.707  52.389 -17.185  1.00  0.00     0.138 A 
HETATM   26  F2  UNL     1       2.819  53.128 -17.065  1.00  0.00    -0.204 F 
HETATM   27  C22 UNL     1       0.906  52.486 -18.320  1.00  0.00     0.073 A 
HETATM   28 CL1  UNL     1       1.325  53.553 -19.604  1.00  0.00    -0.081 Cl
HETATM   29  C23 UNL     1      -0.245  51.704 -18.427  1.00  0.00     0.036 A 
ENDBRANCH  17  22
ENDBRANCH   1  17
BRANCH  11  30
HETATM   30  N5  UNL     1      -2.123  51.247 -26.070  1.00  0.00    -0.192 N 
HETATM   31  H14 UNL     1      -2.799  51.900 -26.436  1.00  0.00     0.184 HD
BRANCH  30  32
HETATM   32  C10 UNL     1      -0.789  51.434 -26.447  1.00  0.00     0.049 A 
HETATM   33  C11 UNL     1      -0.502  51.645 -27.809  1.00  0.00     0.033 A 
HETATM   34  C12 UNL     1       0.809  51.828 -28.257  1.00  0.00     0.044 A 
HETATM   35  C13 UNL     1       1.850  51.800 -27.341  1.00  0.00     0.116 A 
HETATM   36  F1  UNL     1       3.109  51.973 -27.765  1.00  0.00    -0.206 F 
HETATM   37  C14 UNL     1       1.602  51.593 -25.993  1.00  0.00     0.044 A 
HETATM   38  C15 UNL     1       0.287  51.409 -25.551  1.00  0.00     0.033 A 
ENDBRANCH  30  32
ENDBRANCH  11  30
TORSDOF 6
ENDMDL
MODEL 7
REMARK minimizedAffinity -8.66824055
REMARK  6 active torsions:
REMARK  status: ('A' for Active; 'I' for Inactive)
REMARK    1  A    between atoms: N1_2  and  C2_3 
REMARK    2  A    between atoms: C2_3  and  C3_4 
REMARK    3  A    between atoms: C3_4  and  N2_5 
REMARK    4  A    between atoms: C3_4  and  C18_28 
REMARK       I    between atoms: N2_5  and  C4_6 
REMARK       I    between atoms: C4_6  and  N3_8 
REMARK    5  A    between atoms: C9_15  and  N5_16 
REMARK    6  A    between atoms: N5_16  and  C10_17 
ROOT
HETATM    1  N2  UNL     1      -2.400  51.939 -24.560  1.00  0.00    -0.333 N 
HETATM    2  C4  UNL     1      -3.264  51.159 -23.836  1.00  0.00     0.319 C 
HETATM    3  O1  UNL     1      -4.170  50.521 -24.365  1.00  0.00    -0.247 OA
HETATM    4  N3  UNL     1      -3.029  51.152 -22.467  1.00  0.00    -0.328 N 
HETATM    5  C5  UNL     1      -3.858  50.260 -21.659  1.00  0.00     0.132 C 
HETATM    6  C6  UNL     1      -4.038  50.796 -20.240  1.00  0.00     0.062 C 
HETATM    7  C7  UNL     1      -2.731  51.186 -19.631  1.00  0.00    -0.016 A 
HETATM    8  C8  UNL     1      -2.546  51.299 -18.274  1.00  0.00     0.115 A 
HETATM    9  N4  UNL     1      -1.387  51.680 -17.708  1.00  0.00    -0.201 N 
ATOM     10  H4  UNL     1      -1.287  51.741 -16.695  1.00  0.00     0.183 HD
HETATM   11  C9  UNL     1      -0.367  51.975 -18.525  1.00  0.00     0.682 A 
HETATM   12  N6  UNL     1      -0.458  51.909 -19.865  1.00  0.00    -0.193 N 
ATOM     13  H6  UNL     1       0.339  52.143 -20.457  1.00  0.00     0.184 HD
HETATM   14  C16 UNL     1      -1.637  51.523 -20.405  1.00  0.00     0.052 A 
HETATM   15  C17 UNL     1      -1.702  51.457 -21.915  1.00  0.00     0.185 C 
HETATM   16  H8  UNL     1      -2.205  52.820 -24.108  1.00  0.00     0.165 HD
ENDROOT
BRANCH   1  17
HETATM   17  C3  UNL     1      -2.537  52.036 -26.014  1.00  0.00     0.147 C 
BRANCH  17  18
HETATM   18  C2  UNL     1      -3.452  50.912 -26.597  1.00  0.00     0.298 C 
BRANCH  18  19
HETATM   19  N1  UNL     1      -2.689  49.822 -27.235  1.00  0.00     0.081 N 
HETATM   20  C1  UNL     1      -3.121  48.524 -26.731  1.00  0.00     0.306 C 
HETATM   21  H4  UNL     1      -2.850  49.855 -28.243  1.00  0.00     0.315 HD
ENDBRANCH  18  19
ENDBRANCH  17  18
BRANCH  17  22
HETATM   22  C18 UNL     1      -1.143  52.032 -26.635  1.00  0.00    -0.032 A 
HETATM   23  C19 UNL     1      -0.917  52.680 -27.861  1.00  0.00     0.012 A 
HETATM   24  C20 UNL     1       0.356  52.693 -28.434  1.00  0.00     0.044 A 
HETATM   25  C21 UNL     1       1.412  52.060 -27.785  1.00  0.00     0.138 A 
HETATM   26  F2  UNL     1       2.627  52.090 -28.353  1.00  0.00    -0.204 F 
HETATM   27  C22 UNL     1       1.210  51.416 -26.568  1.00  0.00     0.073 A 
HETATM   28 CL1  UNL     1       2.515  50.641 -25.755  1.00  0.00    -0.081 Cl
HETATM   29  C23 UNL     1      -0.061  51.402 -25.992  1.00  0.00     0.036 A 
ENDBRANCH  17  22
ENDBRANCH   1  17
BRANCH  11  30
HETATM   30  N5  UNL     1       0.876  52.376 -18.046  1.00  0.00    -0.192 N 
HETATM   31  H14 UNL     1       1.251  53.078 -18.666  1.00  0.00     0.184 HD
BRANCH  30  32
HETATM   32  C10 UNL     1       1.639  52.049 -16.920  1.00  0.00     0.049 A 
HETATM   33  C11 UNL     1       1.123  51.104 -16.014  1.00  0.00     0.033 A 
HETATM   34  C12 UNL     1       1.827  50.739 -14.864  1.00  0.00     0.044 A 
HETATM   35  C13 UNL     1       3.060  51.321 -14.607  1.00  0.00     0.116 A 
HETATM   36  F1  UNL     1       3.738  50.977 -13.505  1.00  0.00    -0.206 F 
HETATM   37  C14 UNL     1       3.595  52.258 -15.478  1.00  0.00     0.044 A 
HETATM   38  C15 UNL     1       2.884  52.620 -16.628  1.00  0.00     0.033 A 
ENDBRANCH  30  32
ENDBRANCH  11  30
TORSDOF 6
ENDMDL
MODEL 8
REMARK minimizedAffinity -8.66111374
REMARK  6 active torsions:
REMARK  status: ('A' for Active; 'I' for Inactive)
REMARK    1  A    between atoms: N1_2  and  C2_3 
REMARK    2  A    between atoms: C2_3  and  C3_4 
REMARK    3  A    between atoms: C3_4  and  N2_5 
REMARK    4  A    between atoms: C3_4  and  C18_28 
REMARK       I    between atoms: N2_5  and  C4_6 
REMARK       I    between atoms: C4_6  and  N3_8 
REMARK    5  A    between atoms: C9_15  and  N5_16 
REMARK    6  A    between atoms: N5_16  and  C10_17 
ROOT
HETATM    1  N2  UNL     1      -0.531  51.610 -24.984  1.00  0.00    -0.333 N 
HETATM    2  C4  UNL     1       0.131  52.775 -24.691  1.00  0.00     0.319 C 
HETATM    3  O1  UNL     1       0.457  53.579 -25.560  1.00  0.00    -0.247 OA
HETATM    4  N3  UNL     1       0.396  52.966 -23.342  1.00  0.00    -0.328 N 
HETATM    5  C5  UNL     1       1.011  54.237 -22.963  1.00  0.00     0.132 C 
HETATM    6  C6  UNL     1       1.867  54.092 -21.706  1.00  0.00     0.062 C 
HETATM    7  C7  UNL     1       1.126  53.386 -20.617  1.00  0.00    -0.016 A 
HETATM    8  C8  UNL     1       1.480  53.484 -19.293  1.00  0.00     0.115 A 
HETATM    9  N4  UNL     1       0.846  52.831 -18.302  1.00  0.00    -0.201 N 
ATOM     10  H4  UNL     1       1.133  52.939 -17.329  1.00  0.00     0.183 HD
HETATM   11  C9  UNL     1      -0.176  52.035 -18.640  1.00  0.00     0.682 A 
HETATM   12  N6  UNL     1      -0.584  51.864 -19.910  1.00  0.00    -0.193 N 
ATOM     13  H6  UNL     1      -1.365  51.247 -20.132  1.00  0.00     0.184 HD
HETATM   14  C16 UNL     1       0.073  52.533 -20.885  1.00  0.00     0.052 A 
HETATM   15  C17 UNL     1      -0.414  52.320 -22.302  1.00  0.00     0.185 C 
HETATM   16  H8  UNL     1      -0.182  50.826 -24.454  1.00  0.00     0.165 HD
ENDROOT
BRANCH   1  17
HETATM   17  C3  UNL     1      -0.872  51.284 -26.370  1.00  0.00     0.147 C 
BRANCH  17  18
HETATM   18  C2  UNL     1      -1.190  52.560 -27.215  1.00  0.00     0.298 C 
BRANCH  18  19
HETATM   19  N1  UNL     1      -0.297  52.716 -28.379  1.00  0.00     0.081 N 
HETATM   20  C1  UNL     1       0.775  51.728 -28.346  1.00  0.00     0.306 C 
HETATM   21  H4  UNL     1      -0.842  52.583 -29.232  1.00  0.00     0.315 HD
ENDBRANCH  18  19
ENDBRANCH  17  18
BRANCH  17  22
HETATM   22  C18 UNL     1      -2.027  50.288 -26.365  1.00  0.00    -0.032 A 
HETATM   23  C19 UNL     1      -2.373  49.617 -25.179  1.00  0.00     0.012 A 
HETATM   24  C20 UNL     1      -3.436  48.712 -25.160  1.00  0.00     0.044 A 
HETATM   25  C21 UNL     1      -4.161  48.472 -26.322  1.00  0.00     0.138 A 
HETATM   26  F2  UNL     1      -5.180  47.601 -26.277  1.00  0.00    -0.204 F 
HETATM   27  C22 UNL     1      -3.838  49.129 -27.506  1.00  0.00     0.073 A 
HETATM   28 CL1  UNL     1      -4.739  48.845 -28.945  1.00  0.00    -0.081 Cl
HETATM   29  C23 UNL     1      -2.777  50.036 -27.529  1.00  0.00     0.036 A 
ENDBRANCH  17  22
ENDBRANCH   1  17
BRANCH  11  30
HETATM   30  N5  UNL     1      -0.902  51.316 -17.695  1.00  0.00    -0.192 N 
HETATM   31  H14 UNL     1      -0.508  51.491 -16.783  1.00  0.00     0.184 HD
BRANCH  30  32
HETATM   32  C10 UNL     1      -2.027  50.487 -17.754  1.00  0.00     0.049 A 
HETATM   33  C11 UNL     1      -2.952  50.689 -18.796  1.00  0.00     0.033 A 
HETATM   34  C12 UNL     1      -4.102  49.904 -18.909  1.00  0.00     0.044 A 
HETATM   35  C13 UNL     1      -4.340  48.906 -17.975  1.00  0.00     0.116 A 
HETATM   36  F1  UNL     1      -5.442  48.152 -18.078  1.00  0.00    -0.206 F 
HETATM   37  C14 UNL     1      -3.449  48.683 -16.937  1.00  0.00     0.044 A 
HETATM   38  C15 UNL     1      -2.299  49.473 -16.828  1.00  0.00     0.033 A 
ENDBRANCH  30  32
ENDBRANCH  11  30
TORSDOF 6
ENDMDL
MODEL 9
REMARK minimizedAffinity -8.52312756
REMARK  6 active torsions:
REMARK  status: ('A' for Active; 'I' for Inactive)
REMARK    1  A    between atoms: N1_2  and  C2_3 
REMARK    2  A    between atoms: C2_3  and  C3_4 
REMARK    3  A    between atoms: C3_4  and  N2_5 
REMARK    4  A    between atoms: C3_4  and  C18_28 
REMARK       I    between atoms: N2_5  and  C4_6 
REMARK       I    between atoms: C4_6  and  N3_8 
REMARK    5  A    between atoms: C9_15  and  N5_16 
REMARK    6  A    between atoms: N5_16  and  C10_17 
ROOT
HETATM    1  N2  UNL     1      -1.645  51.195 -23.119  1.00  0.00    -0.333 N 
HETATM    2  C4  UNL     1      -2.201  51.193 -21.865  1.00  0.00     0.319 C 
HETATM    3  O1  UNL     1      -1.587  51.582 -20.876  1.00  0.00    -0.247 OA
HETATM    4  N3  UNL     1      -3.504  50.717 -21.812  1.00  0.00    -0.328 N 
HETATM    5  C5  UNL     1      -4.180  50.784 -20.517  1.00  0.00     0.132 C 
HETATM    6  C6  UNL     1      -5.225  49.680 -20.373  1.00  0.00     0.062 C 
HETATM    7  C7  UNL     1      -6.124  49.618 -21.565  1.00  0.00    -0.016 A 
HETATM    8  C8  UNL     1      -7.365  49.029 -21.531  1.00  0.00     0.115 A 
HETATM    9  N4  UNL     1      -8.176  48.934 -22.600  1.00  0.00    -0.201 N 
ATOM     10  H4  UNL     1      -9.096  48.498 -22.530  1.00  0.00     0.183 HD
HETATM   11  C9  UNL     1      -7.731  49.433 -23.759  1.00  0.00     0.682 A 
HETATM   12  N6  UNL     1      -6.525  50.013 -23.894  1.00  0.00    -0.193 N 
ATOM     13  H6  UNL     1      -6.217  50.382 -24.794  1.00  0.00     0.184 HD
HETATM   14  C16 UNL     1      -5.732  50.094 -22.802  1.00  0.00     0.052 A 
HETATM   15  C17 UNL     1      -4.384  50.755 -22.988  1.00  0.00     0.185 C 
HETATM   16  H8  UNL     1      -1.867  50.360 -23.640  1.00  0.00     0.165 HD
ENDROOT
BRANCH   1  17
HETATM   17  C3  UNL     1      -0.275  51.671 -23.316  1.00  0.00     0.147 C 
BRANCH  17  18
HETATM   18  C2  UNL     1       0.086  52.848 -22.353  1.00  0.00     0.298 C 
BRANCH  18  19
HETATM   19  N1  UNL     1       1.293  52.583 -21.548  1.00  0.00     0.081 N 
HETATM   20  C1  UNL     1       1.353  53.475 -20.397  1.00  0.00     0.306 C 
HETATM   21  H4  UNL     1       1.261  51.618 -21.216  1.00  0.00     0.315 HD
ENDBRANCH  18  19
ENDBRANCH  17  18
BRANCH  17  22
HETATM   22  C18 UNL     1      -0.097  52.047 -24.784  1.00  0.00    -0.032 A 
HETATM   23  C19 UNL     1       0.058  51.042 -25.754  1.00  0.00     0.012 A 
HETATM   24  C20 UNL     1       0.210  51.372 -27.102  1.00  0.00     0.044 A 
HETATM   25  C21 UNL     1       0.205  52.708 -27.491  1.00  0.00     0.138 A 
HETATM   26  F2  UNL     1       0.349  53.000 -28.792  1.00  0.00    -0.204 F 
HETATM   27  C22 UNL     1       0.050  53.719 -26.546  1.00  0.00     0.073 A 
HETATM   28 CL1  UNL     1       0.032  55.373 -27.022  1.00  0.00    -0.081 Cl
HETATM   29  C23 UNL     1      -0.104  53.392 -25.198  1.00  0.00     0.036 A 
ENDBRANCH  17  22
ENDBRANCH   1  17
BRANCH  11  30
HETATM   30  N5  UNL     1      -8.488  49.391 -24.926  1.00  0.00    -0.192 N 
HETATM   31  H14 UNL     1      -8.917  50.293 -25.067  1.00  0.00     0.184 HD
BRANCH  30  32
HETATM   32  C10 UNL     1      -8.719  48.417 -25.904  1.00  0.00     0.049 A 
HETATM   33  C11 UNL     1      -7.715  47.460 -26.145  1.00  0.00     0.033 A 
HETATM   34  C12 UNL     1      -7.875  46.466 -27.113  1.00  0.00     0.044 A 
HETATM   35  C13 UNL     1      -9.047  46.421 -27.855  1.00  0.00     0.116 A 
HETATM   36  F1  UNL     1      -9.205  45.472 -28.786  1.00  0.00    -0.206 F 
HETATM   37  C14 UNL     1     -10.054  47.350 -27.643  1.00  0.00     0.044 A 
HETATM   38  C15 UNL     1      -9.887  48.343 -26.672  1.00  0.00     0.033 A 
ENDBRANCH  30  32
ENDBRANCH  11  30
TORSDOF 6
ENDMDL
