MODEL 1
REMARK minimizedAffinity -8.35195065
REMARK  5 active torsions:
REMARK  status: ('A' for Active; 'I' for Inactive)
REMARK    1  A    between atoms: C2_2  and  C3_3 
REMARK    2  A    between atoms: C2_2  and  N2_7 
REMARK    3  A    between atoms: C3_3  and  N1_4 
REMARK       I    between atoms: N2_7  and  C6_8 
REMARK       I    between atoms: C6_8  and  N3_10 
REMARK    4  A    between atoms: N3_10  and  C7_11 
REMARK    5  A    between atoms: C10_17  and  C11_18 
ROOT
HETATM    1  C7  UNL     1      -2.359  51.100 -26.734  1.00  0.00     0.111 A 
HETATM    2  C8  UNL     1      -1.274  51.864 -27.145  1.00  0.00     0.080 A 
HETATM    3  C9  UNL     1      -0.474  52.361 -26.117  1.00  0.00     0.065 A 
HETATM    4  N4  UNL     1       0.649  53.138 -26.132  1.00  0.00    -0.299 N 
HETATM    5  N5  UNL     1       1.132  53.427 -24.913  1.00  0.00    -0.299 N 
ATOM      6  H5  UNL     1       1.940  54.005 -24.683  1.00  0.00     0.187 HD
HETATM    7  C10 UNL     1       0.311  52.785 -24.066  1.00  0.00     0.072 A 
HETATM    8  C17 UNL     1      -0.732  52.114 -24.776  1.00  0.00     0.036 A 
HETATM    9  C18 UNL     1      -1.857  51.352 -24.454  1.00  0.00     0.105 A 
HETATM   10  N6  UNL     1      -2.652  50.854 -25.436  1.00  0.00    -0.351 N 
ATOM     11  H6  UNL     1      -3.470  50.293 -25.196  1.00  0.00     0.166 HD
HETATM   12  H16 UNL     1       1.132  53.511 -26.941  1.00  0.00     0.187 HD
ENDROOT
BRANCH   1  13
HETATM   13  N3  UNL     1      -3.274  50.524 -27.616  1.00  0.00    -0.295 N 
HETATM   14  C6  UNL     1      -3.773  49.250 -27.610  1.00  0.00     0.322 C 
HETATM   15  N2  UNL     1      -4.626  49.047 -28.677  1.00  0.00    -0.337 N 
HETATM   16  O1  UNL     1      -3.531  48.378 -26.784  1.00  0.00    -0.247 OA
HETATM   17  H13 UNL     1      -4.457  49.627 -29.486  1.00  0.00     0.164 HD
HETATM   18  H14 UNL     1      -3.685  51.200 -28.239  1.00  0.00     0.172 HD
BRANCH  15  19
HETATM   19  C2  UNL     1      -5.233  47.733 -28.928  1.00  0.00     0.110 C 
HETATM   20  C1  UNL     1      -5.281  47.474 -30.433  1.00  0.00     0.034 C 
BRANCH  19  21
HETATM   21  C3  UNL     1      -6.625  47.674 -28.238  1.00  0.00     0.296 C 
BRANCH  21  22
HETATM   22  N1  UNL     1      -7.849  47.459 -29.020  1.00  0.00     0.081 N 
HETATM   23  C4  UNL     1      -8.659  46.335 -28.572  1.00  0.00     0.309 C 
HETATM   24  C5  UNL     1      -8.646  48.666 -29.204  1.00  0.00     0.309 C 
ENDBRANCH  21  22
ENDBRANCH  19  21
ENDBRANCH  15  19
ENDBRANCH   1  13
BRANCH   7  25
HETATM   25  C11 UNL     1       0.536  52.843 -22.620  1.00  0.00    -0.007 A 
HETATM   26  C12 UNL     1       1.215  53.924 -22.038  1.00  0.00     0.017 A 
HETATM   27  C13 UNL     1       1.424  53.964 -20.656  1.00  0.00     0.043 A 
HETATM   28  C14 UNL     1       0.950  52.928 -19.859  1.00  0.00     0.116 A 
HETATM   29  F1  UNL     1       1.152  52.970 -18.536  1.00  0.00    -0.206 F 
HETATM   30  C15 UNL     1       0.265  51.855 -20.414  1.00  0.00     0.043 A 
HETATM   31  C16 UNL     1       0.055  51.814 -21.794  1.00  0.00     0.017 A 
ENDBRANCH   7  25
TORSDOF 5
ENDMDL
MODEL 2
REMARK minimizedAffinity -8.33371449
REMARK  5 active torsions:
REMARK  status: ('A' for Active; 'I' for Inactive)
REMARK    1  A    between atoms: C2_2  and  C3_3 
REMARK    2  A    between atoms: C2_2  and  N2_7 
REMARK    3  A    between atoms: C3_3  and  N1_4 
REMARK       I    between atoms: N2_7  and  C6_8 
REMARK       I    between atoms: C6_8  and  N3_10 
REMARK    4  A    between atoms: N3_10  and  C7_11 
REMARK    5  A    between atoms: C10_17  and  C11_18 
ROOT
HETATM    1  C7  UNL     1       0.978  53.112 -19.673  1.00  0.00     0.111 A 
HETATM    2  C8  UNL     1       1.528  54.108 -20.468  1.00  0.00     0.080 A 
HETATM    3  C9  UNL     1       1.263  53.996 -21.832  1.00  0.00     0.065 A 
HETATM    4  N4  UNL     1       1.631  54.765 -22.898  1.00  0.00    -0.299 N 
HETATM    5  N5  UNL     1       1.185  54.313 -24.081  1.00  0.00    -0.299 N 
ATOM      6  H5  UNL     1       1.354  54.709 -25.005  1.00  0.00     0.187 HD
HETATM    7  C10 UNL     1       0.464  53.222 -23.773  1.00  0.00     0.072 A 
HETATM    8  C17 UNL     1       0.501  52.966 -22.368  1.00  0.00     0.036 A 
HETATM    9  C18 UNL     1       0.003  51.997 -21.495  1.00  0.00     0.105 A 
HETATM   10  N6  UNL     1       0.245  52.084 -20.161  1.00  0.00    -0.351 N 
ATOM     11  H6  UNL     1      -0.125  51.376 -19.527  1.00  0.00     0.166 HD
HETATM   12  H16 UNL     1       2.194  55.607 -22.887  1.00  0.00     0.187 HD
ENDROOT
BRANCH   1  13
HETATM   13  N3  UNL     1       1.139  53.054 -18.288  1.00  0.00    -0.295 N 
HETATM   14  C6  UNL     1       0.792  52.042 -17.434  1.00  0.00     0.322 C 
HETATM   15  N2  UNL     1       1.076  52.380 -16.125  1.00  0.00    -0.337 N 
HETATM   16  O1  UNL     1       0.302  50.964 -17.745  1.00  0.00    -0.247 OA
HETATM   17  H13 UNL     1       1.081  53.369 -15.922  1.00  0.00     0.164 HD
HETATM   18  H14 UNL     1       1.697  53.814 -17.934  1.00  0.00     0.172 HD
BRANCH  15  19
HETATM   19  C2  UNL     1       0.726  51.485 -15.014  1.00  0.00     0.110 C 
HETATM   20  C1  UNL     1       0.319  52.317 -13.799  1.00  0.00     0.034 C 
BRANCH  19  21
HETATM   21  C3  UNL     1       1.915  50.521 -14.742  1.00  0.00     0.296 C 
BRANCH  21  22
HETATM   22  N1  UNL     1       3.196  51.024 -14.228  1.00  0.00     0.081 N 
HETATM   23  C4  UNL     1       4.001  50.024 -13.541  1.00  0.00     0.309 C 
HETATM   24  C5  UNL     1       3.971  51.767 -15.213  1.00  0.00     0.309 C 
ENDBRANCH  21  22
ENDBRANCH  19  21
ENDBRANCH  15  19
ENDBRANCH   1  13
BRANCH   7  25
HETATM   25  C11 UNL     1      -0.214  52.455 -24.820  1.00  0.00    -0.007 A 
HETATM   26  C12 UNL     1       0.498  51.578 -25.650  1.00  0.00     0.017 A 
HETATM   27  C13 UNL     1      -0.164  50.856 -26.647  1.00  0.00     0.043 A 
HETATM   28  C14 UNL     1      -1.537  51.007 -26.808  1.00  0.00     0.116 A 
HETATM   29  F1  UNL     1      -2.168  50.313 -27.765  1.00  0.00    -0.206 F 
HETATM   30  C15 UNL     1      -2.263  51.861 -25.989  1.00  0.00     0.043 A 
HETATM   31  C16 UNL     1      -1.602  52.583 -24.992  1.00  0.00     0.017 A 
ENDBRANCH   7  25
TORSDOF 5
ENDMDL
MODEL 3
REMARK minimizedAffinity -8.28245068
REMARK  5 active torsions:
REMARK  status: ('A' for Active; 'I' for Inactive)
REMARK    1  A    between atoms: C2_2  and  C3_3 
REMARK    2  A    between atoms: C2_2  and  N2_7 
REMARK    3  A    between atoms: C3_3  and  N1_4 
REMARK       I    between atoms: N2_7  and  C6_8 
REMARK       I    between atoms: C6_8  and  N3_10 
REMARK    4  A    between atoms: N3_10  and  C7_11 
REMARK    5  A    between atoms: C10_17  and  C11_18 
ROOT
HETATM    1  C7  UNL     1       0.616  52.596 -19.691  1.00  0.00     0.111 A 
HETATM    2  C8  UNL     1      -0.287  51.572 -19.946  1.00  0.00     0.080 A 
HETATM    3  C9  UNL     1      -0.568  51.350 -21.293  1.00  0.00     0.065 A 
HETATM    4  N4  UNL     1      -1.391  50.456 -21.917  1.00  0.00    -0.299 N 
HETATM    5  N5  UNL     1      -1.406  50.564 -23.254  1.00  0.00    -0.299 N 
ATOM      6  H5  UNL     1      -1.958  50.022 -23.919  1.00  0.00     0.187 HD
HETATM    7  C10 UNL     1      -0.531  51.548 -23.521  1.00  0.00     0.072 A 
HETATM    8  C17 UNL     1       0.009  52.091 -22.315  1.00  0.00     0.036 A 
HETATM    9  C18 UNL     1       0.892  53.114 -21.965  1.00  0.00     0.105 A 
HETATM   10  N6  UNL     1       1.185  53.351 -20.659  1.00  0.00    -0.351 N 
ATOM     11  H6  UNL     1       1.835  54.097 -20.408  1.00  0.00     0.166 HD
HETATM   12  H16 UNL     1      -1.976  49.750 -21.485  1.00  0.00     0.187 HD
ENDROOT
BRANCH   1  13
HETATM   13  N3  UNL     1       1.016  52.968 -18.407  1.00  0.00    -0.295 N 
HETATM   14  C6  UNL     1       1.072  52.197 -17.277  1.00  0.00     0.322 C 
HETATM   15  N2  UNL     1       1.480  52.943 -16.189  1.00  0.00    -0.337 N 
HETATM   16  O1  UNL     1       0.814  51.003 -17.199  1.00  0.00    -0.247 OA
HETATM   17  H13 UNL     1       1.279  53.932 -16.238  1.00  0.00     0.164 HD
HETATM   18  H14 UNL     1       1.423  53.889 -18.384  1.00  0.00     0.172 HD
BRANCH  15  19
HETATM   19  C2  UNL     1       1.549  52.355 -14.845  1.00  0.00     0.110 C 
HETATM   20  C1  UNL     1       2.686  51.336 -14.792  1.00  0.00     0.034 C 
BRANCH  19  21
HETATM   21  C3  UNL     1       0.160  51.761 -14.476  1.00  0.00     0.296 C 
BRANCH  21  22
HETATM   22  N1  UNL     1      -0.521  52.142 -13.232  1.00  0.00     0.081 N 
HETATM   23  C4  UNL     1      -1.161  51.036 -12.535  1.00  0.00     0.309 C 
HETATM   24  C5  UNL     1       0.301  52.949 -12.339  1.00  0.00     0.309 C 
ENDBRANCH  21  22
ENDBRANCH  19  21
ENDBRANCH  15  19
ENDBRANCH   1  13
BRANCH   7  25
HETATM   25  C11 UNL     1      -0.252  51.945 -24.903  1.00  0.00    -0.007 A 
HETATM   26  C12 UNL     1      -0.005  50.984 -25.895  1.00  0.00     0.017 A 
HETATM   27  C13 UNL     1       0.262  51.379 -27.209  1.00  0.00     0.043 A 
HETATM   28  C14 UNL     1       0.276  52.732 -27.530  1.00  0.00     0.116 A 
HETATM   29  F1  UNL     1       0.532  53.107 -28.790  1.00  0.00    -0.206 F 
HETATM   30  C15 UNL     1       0.022  53.699 -26.566  1.00  0.00     0.043 A 
HETATM   31  C16 UNL     1      -0.246  53.305 -25.252  1.00  0.00     0.017 A 
ENDBRANCH   7  25
TORSDOF 5
ENDMDL
MODEL 4
REMARK minimizedAffinity -8.21139717
REMARK  5 active torsions:
REMARK  status: ('A' for Active; 'I' for Inactive)
REMARK    1  A    between atoms: C2_2  and  C3_3 
REMARK    2  A    between atoms: C2_2  and  N2_7 
REMARK    3  A    between atoms: C3_3  and  N1_4 
REMARK       I    between atoms: N2_7  and  C6_8 
REMARK       I    between atoms: C6_8  and  N3_10 
REMARK    4  A    between atoms: N3_10  and  C7_11 
REMARK    5  A    between atoms: C10_17  and  C11_18 
ROOT
HETATM    1  C7  UNL     1       0.436  52.524 -19.675  1.00  0.00     0.111 A 
HETATM    2  C8  UNL     1       1.015  53.735 -20.030  1.00  0.00     0.080 A 
HETATM    3  C9  UNL     1       1.146  53.952 -21.401  1.00  0.00     0.065 A 
HETATM    4  N4  UNL     1       1.661  54.997 -22.113  1.00  0.00    -0.299 N 
HETATM    5  N5  UNL     1       1.625  54.826 -23.444  1.00  0.00    -0.299 N 
ATOM      6  H5  UNL     1       1.971  55.459 -24.164  1.00  0.00     0.187 HD
HETATM    7  C10 UNL     1       1.029  53.633 -23.612  1.00  0.00     0.072 A 
HETATM    8  C17 UNL     1       0.727  53.032 -22.352  1.00  0.00     0.036 A 
HETATM    9  C18 UNL     1       0.173  51.831 -21.903  1.00  0.00     0.105 A 
HETATM   10  N6  UNL     1       0.032  51.595 -20.573  1.00  0.00    -0.351 N 
ATOM     11  H6  UNL     1      -0.378  50.719 -20.250  1.00  0.00     0.166 HD
HETATM   12  H16 UNL     1       2.061  55.855 -21.749  1.00  0.00     0.187 HD
ENDROOT
BRANCH   1  13
HETATM   13  N3  UNL     1       0.228  52.128 -18.353  1.00  0.00    -0.295 N 
HETATM   14  C6  UNL     1       1.099  52.191 -17.300  1.00  0.00     0.322 C 
HETATM   15  N2  UNL     1       0.534  51.660 -16.157  1.00  0.00    -0.337 N 
HETATM   16  O1  UNL     1       2.231  52.656 -17.320  1.00  0.00    -0.247 OA
HETATM   17  H13 UNL     1      -0.184  50.965 -16.308  1.00  0.00     0.164 HD
HETATM   18  H14 UNL     1      -0.734  51.891 -18.171  1.00  0.00     0.172 HD
BRANCH  15  19
HETATM   19  C2  UNL     1       1.299  51.548 -14.909  1.00  0.00     0.110 C 
HETATM   20  C1  UNL     1       1.876  50.138 -14.790  1.00  0.00     0.034 C 
BRANCH  19  21
HETATM   21  C3  UNL     1       0.390  51.955 -13.715  1.00  0.00     0.296 C 
BRANCH  21  22
HETATM   22  N1  UNL     1      -0.981  51.444 -13.598  1.00  0.00     0.081 N 
HETATM   23  C4  UNL     1      -1.071  50.005 -13.396  1.00  0.00     0.309 C 
HETATM   24  C5  UNL     1      -1.802  52.181 -12.647  1.00  0.00     0.309 C 
ENDBRANCH  21  22
ENDBRANCH  19  21
ENDBRANCH  15  19
ENDBRANCH   1  13
BRANCH   7  25
HETATM   25  C11 UNL     1       0.785  53.104 -24.955  1.00  0.00    -0.007 A 
HETATM   26  C12 UNL     1       0.114  53.868 -25.922  1.00  0.00     0.017 A 
HETATM   27  C13 UNL     1      -0.115  53.347 -27.199  1.00  0.00     0.043 A 
HETATM   28  C14 UNL     1       0.334  52.068 -27.509  1.00  0.00     0.116 A 
HETATM   29  F1  UNL     1       0.114  51.573 -28.735  1.00  0.00    -0.206 F 
HETATM   30  C15 UNL     1       1.012  51.301 -26.572  1.00  0.00     0.043 A 
HETATM   31  C16 UNL     1       1.241  51.820 -25.295  1.00  0.00     0.017 A 
ENDBRANCH   7  25
TORSDOF 5
ENDMDL
MODEL 5
REMARK minimizedAffinity -8.20304298
REMARK  5 active torsions:
REMARK  status: ('A' for Active; 'I' for Inactive)
REMARK    1  A    between atoms: C2_2  and  C3_3 
REMARK    2  A    between atoms: C2_2  and  N2_7 
REMARK    3  A    between atoms: C3_3  and  N1_4 
REMARK       I    between atoms: N2_7  and  C6_8 
REMARK       I    between atoms: C6_8  and  N3_10 
REMARK    4  A    between atoms: N3_10  and  C7_11 
REMARK    5  A    between atoms: C10_17  and  C11_18 
ROOT
HETATM    1  C7  UNL     1       1.163  53.451 -20.607  1.00  0.00     0.111 A 
HETATM    2  C8  UNL     1       1.597  54.372 -21.551  1.00  0.00     0.080 A 
HETATM    3  C9  UNL     1       1.147  54.148 -22.851  1.00  0.00     0.065 A 
HETATM    4  N4  UNL     1       1.364  54.821 -24.019  1.00  0.00    -0.299 N 
HETATM    5  N5  UNL     1       0.761  54.276 -25.087  1.00  0.00    -0.299 N 
ATOM      6  H5  UNL     1       0.801  54.591 -26.056  1.00  0.00     0.187 HD
HETATM    7  C10 UNL     1       0.092  53.221 -24.592  1.00  0.00     0.072 A 
HETATM    8  C17 UNL     1       0.321  53.084 -23.188  1.00  0.00     0.036 A 
HETATM    9  C18 UNL     1      -0.051  52.196 -22.177  1.00  0.00     0.105 A 
HETATM   10  N6  UNL     1       0.372  52.393 -20.901  1.00  0.00    -0.351 N 
ATOM     11  H6  UNL     1       0.094  51.744 -20.165  1.00  0.00     0.166 HD
HETATM   12  H16 UNL     1       1.922  55.656 -24.157  1.00  0.00     0.187 HD
ENDROOT
BRANCH   1  13
HETATM   13  N3  UNL     1       1.513  53.508 -19.257  1.00  0.00    -0.295 N 
HETATM   14  C6  UNL     1       1.140  52.664 -18.246  1.00  0.00     0.322 C 
HETATM   15  N2  UNL     1       1.660  53.080 -17.036  1.00  0.00    -0.337 N 
HETATM   16  O1  UNL     1       0.447  51.661 -18.356  1.00  0.00    -0.247 OA
HETATM   17  H13 UNL     1       1.850  54.069 -16.960  1.00  0.00     0.164 HD
HETATM   18  H14 UNL     1       2.228  54.193 -19.074  1.00  0.00     0.172 HD
BRANCH  15  19
HETATM   19  C2  UNL     1       1.340  52.378 -15.787  1.00  0.00     0.110 C 
HETATM   20  C1  UNL     1       2.622  51.813 -15.177  1.00  0.00     0.034 C 
BRANCH  19  21
HETATM   21  C3  UNL     1       0.256  51.300 -16.071  1.00  0.00     0.296 C 
BRANCH  21  22
HETATM   22  N1  UNL     1       0.200  50.057 -15.292  1.00  0.00     0.081 N 
HETATM   23  C4  UNL     1      -0.809  50.050 -14.242  1.00  0.00     0.309 C 
HETATM   24  C5  UNL     1       0.143  48.853 -16.111  1.00  0.00     0.309 C 
ENDBRANCH  21  22
ENDBRANCH  19  21
ENDBRANCH  15  19
ENDBRANCH   1  13
BRANCH   7  25
HETATM   25  C11 UNL     1      -0.723  52.376 -25.467  1.00  0.00    -0.007 A 
HETATM   26  C12 UNL     1      -1.674  52.937 -26.332  1.00  0.00     0.017 A 
HETATM   27  C13 UNL     1      -2.447  52.117 -27.160  1.00  0.00     0.043 A 
HETATM   28  C14 UNL     1      -2.262  50.739 -27.126  1.00  0.00     0.116 A 
HETATM   29  F1  UNL     1      -3.004  49.956 -27.921  1.00  0.00    -0.206 F 
HETATM   30  C15 UNL     1      -1.318  50.164 -26.286  1.00  0.00     0.043 A 
HETATM   31  C16 UNL     1      -0.545  50.983 -25.459  1.00  0.00     0.017 A 
ENDBRANCH   7  25
TORSDOF 5
ENDMDL
MODEL 6
REMARK minimizedAffinity -8.03265572
REMARK  5 active torsions:
REMARK  status: ('A' for Active; 'I' for Inactive)
REMARK    1  A    between atoms: C2_2  and  C3_3 
REMARK    2  A    between atoms: C2_2  and  N2_7 
REMARK    3  A    between atoms: C3_3  and  N1_4 
REMARK       I    between atoms: N2_7  and  C6_8 
REMARK       I    between atoms: C6_8  and  N3_10 
REMARK    4  A    between atoms: N3_10  and  C7_11 
REMARK    5  A    between atoms: C10_17  and  C11_18 
ROOT
HETATM    1  C7  UNL     1      -3.410  49.543 -26.070  1.00  0.00     0.111 A 
HETATM    2  C8  UNL     1      -2.257  49.739 -26.818  1.00  0.00     0.080 A 
HETATM    3  C9  UNL     1      -1.255  50.472 -26.185  1.00  0.00     0.065 A 
HETATM    4  N4  UNL     1      -0.013  50.863 -26.597  1.00  0.00    -0.299 N 
HETATM    5  N5  UNL     1       0.664  51.586 -25.692  1.00  0.00    -0.299 N 
ATOM      6  H5  UNL     1       1.591  51.999 -25.789  1.00  0.00     0.187 HD
HETATM    7  C10 UNL     1      -0.154  51.642 -24.628  1.00  0.00     0.072 A 
HETATM    8  C17 UNL     1      -1.387  50.973 -24.897  1.00  0.00     0.036 A 
HETATM    9  C18 UNL     1      -2.590  50.744 -24.225  1.00  0.00     0.105 A 
HETATM   10  N6  UNL     1      -3.582  50.030 -24.819  1.00  0.00    -0.351 N 
ATOM     11  H6  UNL     1      -4.457  49.861 -24.322  1.00  0.00     0.166 HD
HETATM   12  H16 UNL     1       0.429  50.675 -27.490  1.00  0.00     0.187 HD
ENDROOT
BRANCH   1  13
HETATM   13  N3  UNL     1      -4.521  48.840 -26.536  1.00  0.00    -0.295 N 
HETATM   14  C6  UNL     1      -4.821  48.480 -27.822  1.00  0.00     0.322 C 
HETATM   15  N2  UNL     1      -6.037  47.828 -27.883  1.00  0.00    -0.337 N 
HETATM   16  O1  UNL     1      -4.131  48.682 -28.813  1.00  0.00    -0.247 OA
HETATM   17  H13 UNL     1      -6.692  48.058 -27.150  1.00  0.00     0.164 HD
HETATM   18  H14 UNL     1      -5.078  48.461 -25.787  1.00  0.00     0.172 HD
BRANCH  15  19
HETATM   19  C2  UNL     1      -6.612  47.407 -29.167  1.00  0.00     0.110 C 
HETATM   20  C1  UNL     1      -7.195  46.001 -29.028  1.00  0.00     0.034 C 
BRANCH  19  21
HETATM   21  C3  UNL     1      -5.528  47.528 -30.276  1.00  0.00     0.296 C 
BRANCH  21  22
HETATM   22  N1  UNL     1      -5.638  46.769 -31.528  1.00  0.00     0.081 N 
HETATM   23  C4  UNL     1      -6.249  47.507 -32.625  1.00  0.00     0.309 C 
HETATM   24  C5  UNL     1      -4.397  46.120 -31.931  1.00  0.00     0.309 C 
ENDBRANCH  21  22
ENDBRANCH  19  21
ENDBRANCH  15  19
ENDBRANCH   1  13
BRANCH   7  25
HETATM   25  C11 UNL     1       0.255  52.340 -23.407  1.00  0.00    -0.007 A 
HETATM   26  C12 UNL     1       0.881  53.594 -23.467  1.00  0.00     0.017 A 
HETATM   27  C13 UNL     1       1.269  54.246 -22.293  1.00  0.00     0.043 A 
HETATM   28  C14 UNL     1       1.024  53.647 -21.062  1.00  0.00     0.116 A 
HETATM   29  F1  UNL     1       1.397  54.275 -19.939  1.00  0.00    -0.206 F 
HETATM   30  C15 UNL     1       0.395  52.412 -20.980  1.00  0.00     0.043 A 
HETATM   31  C16 UNL     1       0.007  51.760 -22.153  1.00  0.00     0.017 A 
ENDBRANCH   7  25
TORSDOF 5
ENDMDL
MODEL 7
REMARK minimizedAffinity -7.852005
REMARK  5 active torsions:
REMARK  status: ('A' for Active; 'I' for Inactive)
REMARK    1  A    between atoms: C2_2  and  C3_3 
REMARK    2  A    between atoms: C2_2  and  N2_7 
REMARK    3  A    between atoms: C3_3  and  N1_4 
REMARK       I    between atoms: N2_7  and  C6_8 
REMARK       I    between atoms: C6_8  and  N3_10 
REMARK    4  A    between atoms: N3_10  and  C7_11 
REMARK    5  A    between atoms: C10_17  and  C11_18 
ROOT
HETATM    1  C7  UNL     1      -3.472  49.561 -26.825  1.00  0.00     0.111 A 
HETATM    2  C8  UNL     1      -3.622  48.678 -25.764  1.00  0.00     0.080 A 
HETATM    3  C9  UNL     1      -2.950  49.034 -24.596  1.00  0.00     0.065 A 
HETATM    4  N4  UNL     1      -2.859  48.426 -23.377  1.00  0.00    -0.299 N 
HETATM    5  N5  UNL     1      -2.088  49.080 -22.493  1.00  0.00    -0.299 N 
ATOM      6  H5  UNL     1      -1.860  48.804 -21.539  1.00  0.00     0.187 HD
HETATM    7  C10 UNL     1      -1.685  50.181 -23.150  1.00  0.00     0.072 A 
HETATM    8  C17 UNL     1      -2.185  50.188 -24.489  1.00  0.00     0.036 A 
HETATM    9  C18 UNL     1      -2.074  51.007 -25.613  1.00  0.00     0.105 A 
HETATM   10  N6  UNL     1      -2.721  50.685 -26.764  1.00  0.00    -0.351 N 
ATOM     11  H6  UNL     1      -2.641  51.290 -27.582  1.00  0.00     0.166 HD
HETATM   12  H16 UNL     1      -3.292  47.558 -23.085  1.00  0.00     0.187 HD
ENDROOT
BRANCH   1  13
HETATM   13  N3  UNL     1      -4.064  49.371 -28.075  1.00  0.00    -0.295 N 
HETATM   14  C6  UNL     1      -5.044  48.482 -28.425  1.00  0.00     0.322 C 
HETATM   15  N2  UNL     1      -5.334  48.570 -29.773  1.00  0.00    -0.337 N 
HETATM   16  O1  UNL     1      -5.619  47.703 -27.677  1.00  0.00    -0.247 OA
HETATM   17  H13 UNL     1      -4.583  48.906 -30.359  1.00  0.00     0.164 HD
HETATM   18  H14 UNL     1      -3.797  50.081 -28.738  1.00  0.00     0.172 HD
BRANCH  15  19
HETATM   19  C2  UNL     1      -6.303  47.666 -30.404  1.00  0.00     0.110 C 
HETATM   20  C1  UNL     1      -5.575  46.735 -31.373  1.00  0.00     0.034 C 
BRANCH  19  21
HETATM   21  C3  UNL     1      -7.427  48.508 -31.072  1.00  0.00     0.296 C 
BRANCH  21  22
HETATM   22  N1  UNL     1      -8.784  48.540 -30.511  1.00  0.00     0.081 N 
HETATM   23  C4  UNL     1      -9.727  47.646 -31.167  1.00  0.00     0.309 C 
HETATM   24  C5  UNL     1      -8.821  48.404 -29.060  1.00  0.00     0.309 C 
ENDBRANCH  21  22
ENDBRANCH  19  21
ENDBRANCH  15  19
ENDBRANCH   1  13
BRANCH   7  25
HETATM   25  C11 UNL     1      -0.832  51.173 -22.493  1.00  0.00    -0.007 A 
HETATM   26  C12 UNL     1      -0.140  52.138 -23.238  1.00  0.00     0.017 A 
HETATM   27  C13 UNL     1       0.673  53.076 -22.596  1.00  0.00     0.043 A 
HETATM   28  C14 UNL     1       0.788  53.052 -21.210  1.00  0.00     0.116 A 
HETATM   29  F1  UNL     1       1.568  53.953 -20.598  1.00  0.00    -0.206 F 
HETATM   30  C15 UNL     1       0.102  52.112 -20.452  1.00  0.00     0.043 A 
HETATM   31  C16 UNL     1      -0.712  51.174 -21.093  1.00  0.00     0.017 A 
ENDBRANCH   7  25
TORSDOF 5
ENDMDL
MODEL 8
REMARK minimizedAffinity -7.78176975
REMARK  5 active torsions:
REMARK  status: ('A' for Active; 'I' for Inactive)
REMARK    1  A    between atoms: C2_2  and  C3_3 
REMARK    2  A    between atoms: C2_2  and  N2_7 
REMARK    3  A    between atoms: C3_3  and  N1_4 
REMARK       I    between atoms: N2_7  and  C6_8 
REMARK       I    between atoms: C6_8  and  N3_10 
REMARK    4  A    between atoms: N3_10  and  C7_11 
REMARK    5  A    between atoms: C10_17  and  C11_18 
ROOT
HETATM    1  C7  UNL     1      -3.427  49.302 -26.809  1.00  0.00     0.111 A 
HETATM    2  C8  UNL     1      -3.609  48.494 -25.694  1.00  0.00     0.080 A 
HETATM    3  C9  UNL     1      -2.950  48.916 -24.541  1.00  0.00     0.065 A 
HETATM    4  N4  UNL     1      -2.889  48.390 -23.282  1.00  0.00    -0.299 N 
HETATM    5  N5  UNL     1      -2.121  49.089 -22.431  1.00  0.00    -0.299 N 
ATOM      6  H5  UNL     1      -1.913  48.874 -21.457  1.00  0.00     0.187 HD
HETATM    7  C10 UNL     1      -1.689  50.136 -23.153  1.00  0.00     0.072 A 
HETATM    8  C17 UNL     1      -2.167  50.062 -24.497  1.00  0.00     0.036 A 
HETATM    9  C18 UNL     1      -2.023  50.803 -25.672  1.00  0.00     0.105 A 
HETATM   10  N6  UNL     1      -2.657  50.415 -26.810  1.00  0.00    -0.351 N 
ATOM     11  H6  UNL     1      -2.553  50.963 -27.664  1.00  0.00     0.166 HD
HETATM   12  H16 UNL     1      -3.342  47.550 -22.941  1.00  0.00     0.187 HD
ENDROOT
BRANCH   1  13
HETATM   13  N3  UNL     1      -4.002  49.039 -28.053  1.00  0.00    -0.295 N 
HETATM   14  C6  UNL     1      -5.156  48.358 -28.329  1.00  0.00     0.322 C 
HETATM   15  N2  UNL     1      -5.367  48.272 -29.691  1.00  0.00    -0.337 N 
HETATM   16  O1  UNL     1      -5.932  47.880 -27.511  1.00  0.00    -0.247 OA
HETATM   17  H13 UNL     1      -4.536  48.312 -30.264  1.00  0.00     0.164 HD
HETATM   18  H14 UNL     1      -3.545  49.537 -28.800  1.00  0.00     0.172 HD
BRANCH  15  19
HETATM   19  C2  UNL     1      -6.505  47.524 -30.241  1.00  0.00     0.110 C 
HETATM   20  C1  UNL     1      -6.653  46.199 -29.493  1.00  0.00     0.034 C 
BRANCH  19  21
HETATM   21  C3  UNL     1      -6.314  47.358 -31.775  1.00  0.00     0.296 C 
BRANCH  21  22
HETATM   22  N1  UNL     1      -4.980  47.155 -32.354  1.00  0.00     0.081 N 
HETATM   23  C4  UNL     1      -4.587  45.759 -32.486  1.00  0.00     0.309 C 
HETATM   24  C5  UNL     1      -4.756  47.904 -33.585  1.00  0.00     0.309 C 
ENDBRANCH  21  22
ENDBRANCH  19  21
ENDBRANCH  15  19
ENDBRANCH   1  13
BRANCH   7  25
HETATM   25  C11 UNL     1      -0.829  51.156 -22.548  1.00  0.00    -0.007 A 
HETATM   26  C12 UNL     1      -0.158  52.098 -23.341  1.00  0.00     0.017 A 
HETATM   27  C13 UNL     1       0.662  53.063 -22.749  1.00  0.00     0.043 A 
HETATM   28  C14 UNL     1       0.804  53.088 -21.366  1.00  0.00     0.116 A 
HETATM   29  F1  UNL     1       1.591  54.015 -20.802  1.00  0.00    -0.206 F 
HETATM   30  C15 UNL     1       0.139  52.172 -20.562  1.00  0.00     0.043 A 
HETATM   31  C16 UNL     1      -0.681  51.208 -21.153  1.00  0.00     0.017 A 
ENDBRANCH   7  25
TORSDOF 5
ENDMDL
MODEL 9
REMARK minimizedAffinity -7.7383709
REMARK  5 active torsions:
REMARK  status: ('A' for Active; 'I' for Inactive)
REMARK    1  A    between atoms: C2_2  and  C3_3 
REMARK    2  A    between atoms: C2_2  and  N2_7 
REMARK    3  A    between atoms: C3_3  and  N1_4 
REMARK       I    between atoms: N2_7  and  C6_8 
REMARK       I    between atoms: C6_8  and  N3_10 
REMARK    4  A    between atoms: N3_10  and  C7_11 
REMARK    5  A    between atoms: C10_17  and  C11_18 
ROOT
HETATM    1  C7  UNL     1      -3.970  49.007 -26.317  1.00  0.00     0.111 A 
HETATM    2  C8  UNL     1      -2.859  49.418 -27.041  1.00  0.00     0.080 A 
HETATM    3  C9  UNL     1      -1.893  50.106 -26.307  1.00  0.00     0.065 A 
HETATM    4  N4  UNL     1      -0.696  50.657 -26.668  1.00  0.00    -0.299 N 
HETATM    5  N5  UNL     1      -0.045  51.262 -25.662  1.00  0.00    -0.299 N 
ATOM      6  H5  UNL     1       0.846  51.756 -25.702  1.00  0.00     0.187 HD
HETATM    7  C10 UNL     1      -0.831  51.069 -24.590  1.00  0.00     0.072 A 
HETATM    8  C17 UNL     1      -2.020  50.364 -24.949  1.00  0.00     0.036 A 
HETATM    9  C18 UNL     1      -3.181  49.929 -24.306  1.00  0.00     0.105 A 
HETATM   10  N6  UNL     1      -4.137  49.255 -24.997  1.00  0.00    -0.351 N 
ATOM     11  H6  UNL     1      -4.982  48.936 -24.521  1.00  0.00     0.166 HD
HETATM   12  H16 UNL     1      -0.270  50.661 -27.588  1.00  0.00     0.187 HD
ENDROOT
BRANCH   1  13
HETATM   13  N3  UNL     1      -5.041  48.312 -26.878  1.00  0.00    -0.295 N 
HETATM   14  C6  UNL     1      -5.318  48.103 -28.202  1.00  0.00     0.322 C 
HETATM   15  N2  UNL     1      -6.498  47.401 -28.357  1.00  0.00    -0.337 N 
HETATM   16  O1  UNL     1      -4.636  48.463 -29.153  1.00  0.00    -0.247 OA
HETATM   17  H13 UNL     1      -7.167  47.503 -27.607  1.00  0.00     0.164 HD
HETATM   18  H14 UNL     1      -5.580  47.814 -26.188  1.00  0.00     0.172 HD
BRANCH  15  19
HETATM   19  C2  UNL     1      -7.046  47.116 -29.689  1.00  0.00     0.110 C 
HETATM   20  C1  UNL     1      -6.096  46.187 -30.443  1.00  0.00     0.034 C 
BRANCH  19  21
HETATM   21  C3  UNL     1      -7.323  48.459 -30.424  1.00  0.00     0.296 C 
BRANCH  21  22
HETATM   22  N1  UNL     1      -8.525  48.637 -31.248  1.00  0.00     0.081 N 
HETATM   23  C4  UNL     1      -8.419  48.089 -32.593  1.00  0.00     0.309 C 
HETATM   24  C5  UNL     1      -9.756  48.224 -30.585  1.00  0.00     0.309 C 
ENDBRANCH  21  22
ENDBRANCH  19  21
ENDBRANCH  15  19
ENDBRANCH   1  13
BRANCH   7  25
HETATM   25  C11 UNL     1      -0.435  51.574 -23.274  1.00  0.00    -0.007 A 
HETATM   26  C12 UNL     1       0.353  52.728 -23.149  1.00  0.00     0.017 A 
HETATM   27  C13 UNL     1       0.725  53.195 -21.886  1.00  0.00     0.043 A 
HETATM   28  C14 UNL     1       0.304  52.514 -20.749  1.00  0.00     0.116 A 
HETATM   29  F1  UNL     1       0.663  52.965 -19.540  1.00  0.00    -0.206 F 
HETATM   30  C15 UNL     1      -0.487  51.377 -20.850  1.00  0.00     0.043 A 
HETATM   31  C16 UNL     1      -0.860  50.909 -22.112  1.00  0.00     0.017 A 
ENDBRANCH   7  25
TORSDOF 5
ENDMDL
