MODEL 1
REMARK minimizedAffinity -9.74740791
REMARK CNNscore 0.565703988
REMARK CNNaffinity 7.2951808
REMARK  8 active torsions:
REMARK  status: ('A' for Active; 'I' for Inactive)
REMARK       I    between atoms: C2_2  and  N1_4 
REMARK    1  A    between atoms: N1_4  and  C3_5 
REMARK    2  A    between atoms: N1_4  and  C24_34 
REMARK    3  A    between atoms: C3_5  and  C4_6 
REMARK    4  A    between atoms: N2_9  and  C7_10 
REMARK    5  A    between atoms: C7_10  and  C8_11 
REMARK       I    between atoms: C8_11  and  N3_13 
REMARK    6  A    between atoms: N4_16  and  C11_17 
REMARK    7  A    between atoms: C14_20  and  C15_21 
REMARK    8  A    between atoms: C28_41  and  C29_42 
ROOT
HETATM    1  C4  UNL     1      -4.308  48.369 -26.191  1.00  0.00     0.034 C 
HETATM    2  C5  UNL     1      -3.938  48.526 -27.675  1.00  0.00     0.038 C 
HETATM    3  C6  UNL     1      -5.257  48.418 -28.417  1.00  0.00     0.273 C 
HETATM    4  N2  UNL     1      -6.004  47.485 -27.576  1.00  0.00     0.097 N 
HETATM    5  C23 UNL     1      -5.793  47.993 -26.212  1.00  0.00     0.279 C 
ENDROOT
BRANCH   1   6
HETATM    6  C3  UNL     1      -3.980  49.652 -25.415  1.00  0.00     0.138 C 
BRANCH   6   7
HETATM    7  N1  UNL     1      -2.970  49.507 -24.357  1.00  0.00    -0.318 N 
HETATM    8  C2  UNL     1      -3.297  48.722 -23.245  1.00  0.00     0.220 C 
HETATM    9  C1  UNL     1      -2.204  48.456 -22.238  1.00  0.00     0.117 C 
HETATM   10  O1  UNL     1      -4.409  48.211 -23.085  1.00  0.00    -0.273 OA
BRANCH   7  11
HETATM   11  C24 UNL     1      -1.955  50.511 -24.323  1.00  0.00     0.038 A 
HETATM   12  C25 UNL     1      -1.598  51.189 -25.495  1.00  0.00     0.032 A 
HETATM   13  C26 UNL     1      -0.616  52.189 -25.496  1.00  0.00     0.034 A 
HETATM   14  C27 UNL     1      -0.028  52.503 -24.267  1.00  0.00     0.060 A 
HETATM   15  N7  UNL     1       0.948  53.398 -23.928  1.00  0.00    -0.299 N 
HETATM   16  C35 UNL     1      -0.385  51.888 -23.075  1.00  0.00     0.023 A 
HETATM   17  N8  UNL     1       1.241  53.426 -22.619  1.00  0.00    -0.299 N 
HETATM   18  H32 UNL     1       1.453  54.024 -24.545  1.00  0.00     0.187 HD
HETATM   19  C28 UNL     1       0.409  52.527 -22.071  1.00  0.00     0.070 A 
ATOM     20  H8  UNL     1       1.939  54.001 -22.147  1.00  0.00     0.187 HD
HETATM   21  C36 UNL     1      -1.358  50.870 -23.103  1.00  0.00     0.046 A 
BRANCH  19  22
HETATM   22  C29 UNL     1       0.393  52.293 -20.626  1.00  0.00    -0.007 A 
HETATM   23  C30 UNL     1       0.731  53.320 -19.728  1.00  0.00     0.017 A 
HETATM   24  C31 UNL     1       0.698  53.097 -18.350  1.00  0.00     0.043 A 
HETATM   25  C32 UNL     1       0.335  51.845 -17.867  1.00  0.00     0.116 A 
HETATM   26  F1  UNL     1       0.298  51.634 -16.545  1.00  0.00    -0.206 F 
HETATM   27  C33 UNL     1       0.011  50.810 -18.739  1.00  0.00     0.043 A 
HETATM   28  C34 UNL     1       0.043  51.033 -20.118  1.00  0.00     0.017 A 
ENDBRANCH  19  22
ENDBRANCH   7  11
ENDBRANCH   6   7
ENDBRANCH   1   6
BRANCH   4  29
HETATM   29  C7  UNL     1      -7.434  47.452 -27.930  1.00  0.00     0.374 C 
BRANCH  29  30
HETATM   30  C8  UNL     1      -7.735  46.274 -28.873  1.00  0.00     0.248 C 
HETATM   31  O2  UNL     1      -6.838  45.485 -29.190  1.00  0.00    -0.271 OA
HETATM   32  N3  UNL     1      -9.050  46.115 -29.300  1.00  0.00    -0.348 N 
HETATM   33  C9  UNL     1      -9.437  44.923 -30.059  1.00  0.00     0.145 C 
HETATM   34  C22 UNL     1     -10.155  46.966 -28.855  1.00  0.00     0.145 C 
HETATM   35  C10 UNL     1     -10.699  44.273 -29.459  1.00  0.00     0.143 C 
HETATM   36  N4  UNL     1     -11.839  45.216 -29.426  1.00  0.00    -0.378 N 
HETATM   37  C21 UNL     1     -11.506  46.652 -29.525  1.00  0.00     0.143 C 
BRANCH  36  38
HETATM   38  C11 UNL     1     -13.077  44.821 -28.931  1.00  0.00     0.030 A 
HETATM   39  C12 UNL     1     -13.316  43.502 -28.518  1.00  0.00     0.030 A 
HETATM   40  C13 UNL     1     -14.582  43.071 -28.084  1.00  0.00     0.017 A 
HETATM   41  C14 UNL     1     -15.676  43.946 -28.017  1.00  0.00     0.008 A 
HETATM   42  C19 UNL     1     -15.422  45.284 -28.354  1.00  0.00     0.017 A 
HETATM   43  C20 UNL     1     -14.155  45.709 -28.795  1.00  0.00     0.030 A 
BRANCH  41  44
HETATM   44  C15 UNL     1     -17.021  43.482 -27.625  1.00  0.00     0.115 A 
HETATM   45  N5  UNL     1     -17.520  42.396 -28.255  1.00  0.00    -0.352 N 
HETATM   46  C16 UNL     1     -18.768  42.023 -27.919  1.00  0.00     0.091 A 
ATOM     47  H5  UNL     1     -16.977  41.885 -28.950  1.00  0.00     0.166 HD
HETATM   48  C17 UNL     1     -19.532  42.679 -26.986  1.00  0.00     0.034 A 
HETATM   49  C18 UNL     1     -18.937  43.767 -26.397  1.00  0.00     0.091 A 
HETATM   50  N6  UNL     1     -17.694  44.189 -26.695  1.00  0.00    -0.352 N 
ATOM     51  H6  UNL     1     -17.281  45.003 -26.240  1.00  0.00     0.166 HD
ENDBRANCH  41  44
ENDBRANCH  36  38
ENDBRANCH  29  30
ENDBRANCH   4  29
TORSDOF 8
ENDMDL
MODEL 2
REMARK minimizedAffinity -9.92184544
REMARK CNNscore 0.524799347
REMARK CNNaffinity 6.99450541
REMARK  8 active torsions:
REMARK  status: ('A' for Active; 'I' for Inactive)
REMARK       I    between atoms: C2_2  and  N1_4 
REMARK    1  A    between atoms: N1_4  and  C3_5 
REMARK    2  A    between atoms: N1_4  and  C24_34 
REMARK    3  A    between atoms: C3_5  and  C4_6 
REMARK    4  A    between atoms: N2_9  and  C7_10 
REMARK    5  A    between atoms: C7_10  and  C8_11 
REMARK       I    between atoms: C8_11  and  N3_13 
REMARK    6  A    between atoms: N4_16  and  C11_17 
REMARK    7  A    between atoms: C14_20  and  C15_21 
REMARK    8  A    between atoms: C28_41  and  C29_42 
ROOT
HETATM    1  C4  UNL     1      -4.051  48.420 -23.801  1.00  0.00     0.034 C 
HETATM    2  C5  UNL     1      -3.649  48.612 -25.273  1.00  0.00     0.038 C 
HETATM    3  C6  UNL     1      -4.962  48.783 -26.015  1.00  0.00     0.273 C 
HETATM    4  N2  UNL     1      -5.864  47.936 -25.236  1.00  0.00     0.097 N 
HETATM    5  C23 UNL     1      -5.578  48.306 -23.841  1.00  0.00     0.279 C 
ENDROOT
BRANCH   1   6
HETATM    6  C3  UNL     1      -3.513  49.571 -22.941  1.00  0.00     0.138 C 
BRANCH   6   7
HETATM    7  N1  UNL     1      -2.213  49.324 -22.300  1.00  0.00    -0.318 N 
HETATM    8  C2  UNL     1      -2.061  48.141 -21.567  1.00  0.00     0.220 C 
HETATM    9  C1  UNL     1      -0.682  47.824 -21.040  1.00  0.00     0.117 C 
HETATM   10  O1  UNL     1      -2.982  47.341 -21.381  1.00  0.00    -0.273 OA
BRANCH   7  11
HETATM   11  C24 UNL     1      -1.394  50.474 -22.089  1.00  0.00     0.038 A 
HETATM   12  C25 UNL     1      -1.161  51.372 -23.138  1.00  0.00     0.032 A 
HETATM   13  C26 UNL     1      -0.373  52.518 -22.964  1.00  0.00     0.034 A 
HETATM   14  C27 UNL     1       0.147  52.743 -21.686  1.00  0.00     0.060 A 
HETATM   15  N7  UNL     1       0.947  53.735 -21.191  1.00  0.00    -0.299 N 
HETATM   16  C35 UNL     1      -0.097  51.903 -20.607  1.00  0.00     0.023 A 
HETATM   17  N8  UNL     1       1.228  53.618 -19.884  1.00  0.00    -0.299 N 
HETATM   18  H32 UNL     1       1.333  54.525 -21.695  1.00  0.00     0.187 HD
HETATM   19  C28 UNL     1       0.568  52.514 -19.498  1.00  0.00     0.070 A 
ATOM     20  H8  UNL     1       1.811  54.230 -19.313  1.00  0.00     0.187 HD
HETATM   21  C36 UNL     1      -0.874  50.746 -20.813  1.00  0.00     0.046 A 
BRANCH  19  22
HETATM   22  C29 UNL     1       0.591  52.068 -18.105  1.00  0.00    -0.007 A 
HETATM   23  C30 UNL     1      -0.281  51.062 -17.657  1.00  0.00     0.017 A 
HETATM   24  C31 UNL     1      -0.244  50.628 -16.330  1.00  0.00     0.043 A 
HETATM   25  C32 UNL     1       0.662  51.203 -15.447  1.00  0.00     0.116 A 
HETATM   26  F1  UNL     1       0.700  50.782 -14.176  1.00  0.00    -0.206 F 
HETATM   27  C33 UNL     1       1.524  52.211 -15.865  1.00  0.00     0.043 A 
HETATM   28  C34 UNL     1       1.488  52.646 -17.193  1.00  0.00     0.017 A 
ENDBRANCH  19  22
ENDBRANCH   7  11
ENDBRANCH   6   7
ENDBRANCH   1   6
BRANCH   4  29
HETATM   29  C7  UNL     1      -7.276  48.173 -25.584  1.00  0.00     0.374 C 
BRANCH  29  30
HETATM   30  C8  UNL     1      -7.622  47.514 -26.930  1.00  0.00     0.248 C 
HETATM   31  O2  UNL     1      -6.754  46.910 -27.570  1.00  0.00    -0.271 OA
HETATM   32  N3  UNL     1      -8.946  47.584 -27.356  1.00  0.00    -0.348 N 
HETATM   33  C9  UNL     1      -9.378  46.836 -28.539  1.00  0.00     0.145 C 
HETATM   34  C22 UNL     1     -10.018  48.195 -26.569  1.00  0.00     0.145 C 
HETATM   35  C10 UNL     1     -10.655  46.026 -28.243  1.00  0.00     0.143 C 
HETATM   36  N4  UNL     1     -11.763  46.895 -27.790  1.00  0.00    -0.378 N 
HETATM   37  C21 UNL     1     -11.385  48.229 -27.279  1.00  0.00     0.143 C 
BRANCH  36  38
HETATM   38  C11 UNL     1     -13.009  46.360 -27.481  1.00  0.00     0.030 A 
HETATM   39  C12 UNL     1     -13.834  45.803 -28.469  1.00  0.00     0.030 A 
HETATM   40  C13 UNL     1     -15.126  45.325 -28.185  1.00  0.00     0.017 A 
HETATM   41  C14 UNL     1     -15.654  45.358 -26.886  1.00  0.00     0.008 A 
HETATM   42  C19 UNL     1     -14.803  45.842 -25.881  1.00  0.00     0.017 A 
HETATM   43  C20 UNL     1     -13.515  46.326 -26.173  1.00  0.00     0.030 A 
BRANCH  41  44
HETATM   44  C15 UNL     1     -17.034  44.919 -26.596  1.00  0.00     0.115 A 
HETATM   45  N5  UNL     1     -17.929  44.948 -27.606  1.00  0.00    -0.352 N 
HETATM   46  C16 UNL     1     -19.191  44.594 -27.306  1.00  0.00     0.091 A 
ATOM     47  H5  UNL     1     -17.661  45.226 -28.550  1.00  0.00     0.166 HD
HETATM   48  C17 UNL     1     -19.595  44.209 -26.051  1.00  0.00     0.034 A 
HETATM   49  C18 UNL     1     -18.611  44.206 -25.092  1.00  0.00     0.091 A 
HETATM   50  N6  UNL     1     -17.334  44.554 -25.333  1.00  0.00    -0.352 N 
ATOM     51  H6  UNL     1     -16.628  44.542 -24.597  1.00  0.00     0.166 HD
ENDBRANCH  41  44
ENDBRANCH  36  38
ENDBRANCH  29  30
ENDBRANCH   4  29
TORSDOF 8
ENDMDL
MODEL 3
REMARK minimizedAffinity -10.8425951
REMARK CNNscore 0.4253456
REMARK CNNaffinity 7.58431673
REMARK  8 active torsions:
REMARK  status: ('A' for Active; 'I' for Inactive)
REMARK       I    between atoms: C2_2  and  N1_4 
REMARK    1  A    between atoms: N1_4  and  C3_5 
REMARK    2  A    between atoms: N1_4  and  C24_34 
REMARK    3  A    between atoms: C3_5  and  C4_6 
REMARK    4  A    between atoms: N2_9  and  C7_10 
REMARK    5  A    between atoms: C7_10  and  C8_11 
REMARK       I    between atoms: C8_11  and  N3_13 
REMARK    6  A    between atoms: N4_16  and  C11_17 
REMARK    7  A    between atoms: C14_20  and  C15_21 
REMARK    8  A    between atoms: C28_41  and  C29_42 
ROOT
HETATM    1  C4  UNL     1      -2.377  50.035 -22.258  1.00  0.00     0.034 C 
HETATM    2  C5  UNL     1      -3.070  51.199 -21.532  1.00  0.00     0.038 C 
HETATM    3  C6  UNL     1      -4.478  50.704 -21.261  1.00  0.00     0.273 C 
HETATM    4  N2  UNL     1      -4.725  49.841 -22.414  1.00  0.00     0.097 N 
HETATM    5  C23 UNL     1      -3.503  49.029 -22.516  1.00  0.00     0.279 C 
ENDROOT
BRANCH   1   6
HETATM    6  C3  UNL     1      -1.210  49.495 -21.420  1.00  0.00     0.138 C 
BRANCH   6   7
HETATM    7  N1  UNL     1      -0.731  50.390 -20.358  1.00  0.00    -0.318 N 
HETATM    8  C2  UNL     1      -1.285  50.244 -19.081  1.00  0.00     0.220 C 
HETATM    9  C1  UNL     1      -0.682  51.063 -17.964  1.00  0.00     0.117 C 
HETATM   10  O1  UNL     1      -2.197  49.451 -18.829  1.00  0.00    -0.273 OA
BRANCH   7  11
HETATM   11  C24 UNL     1      -0.107  51.598 -20.795  1.00  0.00     0.038 A 
HETATM   12  C25 UNL     1       0.432  52.489 -19.859  1.00  0.00     0.032 A 
HETATM   13  C26 UNL     1       1.062  53.677 -20.253  1.00  0.00     0.034 A 
HETATM   14  C27 UNL     1       1.158  53.921 -21.626  1.00  0.00     0.060 A 
HETATM   15  N7  UNL     1       1.688  54.965 -22.330  1.00  0.00    -0.299 N 
HETATM   16  C35 UNL     1       0.678  53.042 -22.589  1.00  0.00     0.023 A 
HETATM   17  N8  UNL     1       1.606  54.832 -23.663  1.00  0.00    -0.299 N 
HETATM   18  H32 UNL     1       2.125  55.802 -21.959  1.00  0.00     0.187 HD
HETATM   19  C28 UNL     1       1.017  53.639 -23.844  1.00  0.00     0.070 A 
ATOM     20  H8  UNL     1       1.921  55.488 -24.378  1.00  0.00     0.187 HD
HETATM   21  C36 UNL     1       0.028  51.865 -22.167  1.00  0.00     0.046 A 
BRANCH  19  22
HETATM   22  C29 UNL     1       0.786  53.106 -25.187  1.00  0.00    -0.007 A 
HETATM   23  C30 UNL     1       1.344  51.878 -25.578  1.00  0.00     0.017 A 
HETATM   24  C31 UNL     1       1.108  51.365 -26.856  1.00  0.00     0.043 A 
HETATM   25  C32 UNL     1       0.317  52.082 -27.746  1.00  0.00     0.116 A 
HETATM   26  F1  UNL     1       0.085  51.586 -28.968  1.00  0.00    -0.206 F 
HETATM   27  C33 UNL     1      -0.234  53.307 -27.383  1.00  0.00     0.043 A 
HETATM   28  C34 UNL     1       0.002  53.821 -26.105  1.00  0.00     0.017 A 
ENDBRANCH  19  22
ENDBRANCH   7  11
ENDBRANCH   6   7
ENDBRANCH   1   6
BRANCH   4  29
HETATM   29  C7  UNL     1      -5.922  49.003 -22.226  1.00  0.00     0.374 C 
BRANCH  29  30
HETATM   30  C8  UNL     1      -6.323  48.951 -20.742  1.00  0.00     0.248 C 
HETATM   31  O2  UNL     1      -5.716  49.632 -19.908  1.00  0.00    -0.271 OA
HETATM   32  N3  UNL     1      -7.413  48.156 -20.400  1.00  0.00    -0.348 N 
HETATM   33  C9  UNL     1      -7.951  48.192 -19.038  1.00  0.00     0.145 C 
HETATM   34  C22 UNL     1      -8.220  47.424 -21.378  1.00  0.00     0.145 C 
HETATM   35  C10 UNL     1      -9.480  48.386 -19.053  1.00  0.00     0.143 C 
HETATM   36  N4  UNL     1     -10.161  47.314 -19.812  1.00  0.00    -0.378 N 
HETATM   37  C21 UNL     1      -9.324  46.546 -20.758  1.00  0.00     0.143 C 
BRANCH  36  38
HETATM   38  C11 UNL     1     -11.545  47.298 -19.938  1.00  0.00     0.030 A 
HETATM   39  C12 UNL     1     -12.383  47.701 -18.887  1.00  0.00     0.030 A 
HETATM   40  C13 UNL     1     -13.784  47.621 -18.972  1.00  0.00     0.017 A 
HETATM   41  C14 UNL     1     -14.426  47.154 -20.128  1.00  0.00     0.008 A 
HETATM   42  C19 UNL     1     -13.596  46.824 -21.210  1.00  0.00     0.017 A 
HETATM   43  C20 UNL     1     -12.194  46.899 -21.116  1.00  0.00     0.030 A 
BRANCH  41  44
HETATM   44  C15 UNL     1     -15.894  47.006 -20.197  1.00  0.00     0.115 A 
HETATM   45  N5  UNL     1     -16.424  46.525 -21.342  1.00  0.00    -0.352 N 
HETATM   46  C16 UNL     1     -17.766  46.448 -21.401  1.00  0.00     0.091 A 
ATOM     47  H5  UNL     1     -15.837  46.234 -22.123  1.00  0.00     0.166 HD
HETATM   48  C17 UNL     1     -18.594  46.824 -20.372  1.00  0.00     0.034 A 
HETATM   49  C18 UNL     1     -17.961  47.296 -19.249  1.00  0.00     0.091 A 
HETATM   50  N6  UNL     1     -16.624  47.399 -19.134  1.00  0.00    -0.352 N 
ATOM     51  H6  UNL     1     -16.185  47.755 -18.285  1.00  0.00     0.166 HD
ENDBRANCH  41  44
ENDBRANCH  36  38
ENDBRANCH  29  30
ENDBRANCH   4  29
TORSDOF 8
ENDMDL
MODEL 4
REMARK minimizedAffinity -10.6363573
REMARK CNNscore 0.414973915
REMARK CNNaffinity 7.41006613
REMARK  8 active torsions:
REMARK  status: ('A' for Active; 'I' for Inactive)
REMARK       I    between atoms: C2_2  and  N1_4 
REMARK    1  A    between atoms: N1_4  and  C3_5 
REMARK    2  A    between atoms: N1_4  and  C24_34 
REMARK    3  A    between atoms: C3_5  and  C4_6 
REMARK    4  A    between atoms: N2_9  and  C7_10 
REMARK    5  A    between atoms: C7_10  and  C8_11 
REMARK       I    between atoms: C8_11  and  N3_13 
REMARK    6  A    between atoms: N4_16  and  C11_17 
REMARK    7  A    between atoms: C14_20  and  C15_21 
REMARK    8  A    between atoms: C28_41  and  C29_42 
ROOT
HETATM    1  C4  UNL     1       0.411  50.526 -17.242  1.00  0.00     0.034 C 
HETATM    2  C5  UNL     1      -0.217  49.626 -16.164  1.00  0.00     0.038 C 
HETATM    3  C6  UNL     1       0.301  50.178 -14.848  1.00  0.00     0.273 C 
HETATM    4  N2  UNL     1       1.628  50.663 -15.222  1.00  0.00     0.097 N 
HETATM    5  C23 UNL     1       1.393  51.410 -16.468  1.00  0.00     0.279 C 
ENDROOT
BRANCH   1   6
HETATM    6  C3  UNL     1      -0.679  51.290 -18.006  1.00  0.00     0.138 C 
BRANCH   6   7
HETATM    7  N1  UNL     1      -0.666  51.113 -19.465  1.00  0.00    -0.318 N 
HETATM    8  C2  UNL     1      -0.878  49.824 -19.969  1.00  0.00     0.220 C 
HETATM    9  C1  UNL     1      -1.013  49.677 -21.466  1.00  0.00     0.117 C 
HETATM   10  O1  UNL     1      -1.005  48.831 -19.247  1.00  0.00    -0.273 OA
BRANCH   7  11
HETATM   11  C24 UNL     1      -0.002  52.134 -20.210  1.00  0.00     0.038 A 
HETATM   12  C25 UNL     1       0.842  53.042 -19.559  1.00  0.00     0.032 A 
HETATM   13  C26 UNL     1       1.520  54.049 -20.260  1.00  0.00     0.034 A 
HETATM   14  C27 UNL     1       1.342  54.088 -21.646  1.00  0.00     0.060 A 
HETATM   15  N7  UNL     1       1.836  54.930 -22.603  1.00  0.00    -0.299 N 
HETATM   16  C35 UNL     1       0.551  53.179 -22.337  1.00  0.00     0.023 A 
HETATM   17  N8  UNL     1       1.447  54.634 -23.853  1.00  0.00    -0.299 N 
HETATM   18  H32 UNL     1       2.449  55.726 -22.469  1.00  0.00     0.187 HD
HETATM   19  C28 UNL     1       0.681  53.540 -23.715  1.00  0.00     0.070 A 
ATOM     20  H8  UNL     1       1.679  55.130 -24.714  1.00  0.00     0.187 HD
HETATM   21  C36 UNL     1      -0.138  52.190 -21.607  1.00  0.00     0.046 A 
BRANCH  19  22
HETATM   22  C29 UNL     1       0.093  52.877 -24.879  1.00  0.00    -0.007 A 
HETATM   23  C30 UNL     1       0.073  53.509 -26.133  1.00  0.00     0.017 A 
HETATM   24  C31 UNL     1      -0.474  52.866 -27.245  1.00  0.00     0.043 A 
HETATM   25  C32 UNL     1      -1.009  51.591 -27.103  1.00  0.00     0.116 A 
HETATM   26  F1  UNL     1      -1.528  50.972 -28.172  1.00  0.00    -0.206 F 
HETATM   27  C33 UNL     1      -1.012  50.952 -25.868  1.00  0.00     0.043 A 
HETATM   28  C34 UNL     1      -0.465  51.595 -24.755  1.00  0.00     0.017 A 
ENDBRANCH  19  22
ENDBRANCH   7  11
ENDBRANCH   6   7
ENDBRANCH   1   6
BRANCH   4  29
HETATM   29  C7  UNL     1       2.215  51.518 -14.176  1.00  0.00     0.374 C 
BRANCH  29  30
HETATM   30  C8  UNL     1       2.923  50.665 -13.109  1.00  0.00     0.248 C 
HETATM   31  O2  UNL     1       3.428  49.579 -13.414  1.00  0.00    -0.271 OA
HETATM   32  N3  UNL     1       3.010  51.190 -11.823  1.00  0.00    -0.348 N 
HETATM   33  C9  UNL     1       3.814  50.510 -10.805  1.00  0.00     0.145 C 
HETATM   34  C22 UNL     1       2.519  52.519 -11.456  1.00  0.00     0.145 C 
HETATM   35  C10 UNL     1       4.763  51.499 -10.100  1.00  0.00     0.143 C 
HETATM   36  N4  UNL     1       4.023  52.613  -9.467  1.00  0.00    -0.378 N 
HETATM   37  C21 UNL     1       2.650  52.852  -9.957  1.00  0.00     0.143 C 
BRANCH  36  38
HETATM   38  C11 UNL     1       4.695  53.611  -8.770  1.00  0.00     0.030 A 
HETATM   39  C12 UNL     1       6.070  53.829  -8.943  1.00  0.00     0.030 A 
HETATM   40  C13 UNL     1       6.778  54.784  -8.192  1.00  0.00     0.017 A 
HETATM   41  C14 UNL     1       6.141  55.592  -7.239  1.00  0.00     0.008 A 
HETATM   42  C19 UNL     1       4.752  55.431  -7.118  1.00  0.00     0.017 A 
HETATM   43  C20 UNL     1       4.050  54.469  -7.867  1.00  0.00     0.030 A 
BRANCH  41  44
HETATM   44  C15 UNL     1       6.892  56.548  -6.402  1.00  0.00     0.115 A 
HETATM   45  N5  UNL     1       8.151  56.218  -6.046  1.00  0.00    -0.352 N 
HETATM   46  C16 UNL     1       8.798  57.080  -5.240  1.00  0.00     0.091 A 
ATOM     47  H5  UNL     1       8.591  55.358  -6.371  1.00  0.00     0.166 HD
HETATM   48  C17 UNL     1       8.246  58.251  -4.782  1.00  0.00     0.034 A 
HETATM   49  C18 UNL     1       6.963  58.501  -5.203  1.00  0.00     0.091 A 
HETATM   50  N6  UNL     1       6.266  57.675  -6.005  1.00  0.00    -0.352 N 
ATOM     51  H6  UNL     1       5.314  57.891  -6.298  1.00  0.00     0.166 HD
ENDBRANCH  41  44
ENDBRANCH  36  38
ENDBRANCH  29  30
ENDBRANCH   4  29
TORSDOF 8
ENDMDL
MODEL 5
REMARK minimizedAffinity -10.5210075
REMARK CNNscore 0.391139269
REMARK CNNaffinity 7.13670397
REMARK  8 active torsions:
REMARK  status: ('A' for Active; 'I' for Inactive)
REMARK       I    between atoms: C2_2  and  N1_4 
REMARK    1  A    between atoms: N1_4  and  C3_5 
REMARK    2  A    between atoms: N1_4  and  C24_34 
REMARK    3  A    between atoms: C3_5  and  C4_6 
REMARK    4  A    between atoms: N2_9  and  C7_10 
REMARK    5  A    between atoms: C7_10  and  C8_11 
REMARK       I    between atoms: C8_11  and  N3_13 
REMARK    6  A    between atoms: N4_16  and  C11_17 
REMARK    7  A    between atoms: C14_20  and  C15_21 
REMARK    8  A    between atoms: C28_41  and  C29_42 
ROOT
HETATM    1  C4  UNL     1       0.267  50.476 -17.125  1.00  0.00     0.034 C 
HETATM    2  C5  UNL     1      -0.266  49.293 -16.300  1.00  0.00     0.038 C 
HETATM    3  C6  UNL     1      -0.076  49.713 -14.854  1.00  0.00     0.273 C 
HETATM    4  N2  UNL     1       1.136  50.527 -14.930  1.00  0.00     0.097 N 
HETATM    5  C23 UNL     1       0.898  51.406 -16.085  1.00  0.00     0.279 C 
ENDROOT
BRANCH   1   6
HETATM    6  C3  UNL     1      -0.860  51.106 -17.954  1.00  0.00     0.138 C 
BRANCH   6   7
HETATM    7  N1  UNL     1      -0.750  50.927 -19.408  1.00  0.00    -0.318 N 
HETATM    8  C2  UNL     1      -0.885  49.630 -19.918  1.00  0.00     0.220 C 
HETATM    9  C1  UNL     1      -0.920  49.475 -21.420  1.00  0.00     0.117 C 
HETATM   10  O1  UNL     1      -1.023  48.635 -19.201  1.00  0.00    -0.273 OA
BRANCH   7  11
HETATM   11  C24 UNL     1      -0.076  51.968 -20.115  1.00  0.00     0.038 A 
HETATM   12  C25 UNL     1       0.730  52.879 -19.422  1.00  0.00     0.032 A 
HETATM   13  C26 UNL     1       1.416  53.906 -20.084  1.00  0.00     0.034 A 
HETATM   14  C27 UNL     1       1.286  53.964 -21.475  1.00  0.00     0.060 A 
HETATM   15  N7  UNL     1       1.800  54.827 -22.402  1.00  0.00    -0.299 N 
HETATM   16  C35 UNL     1       0.534  53.053 -22.206  1.00  0.00     0.023 A 
HETATM   17  N8  UNL     1       1.458  54.544 -23.669  1.00  0.00    -0.299 N 
HETATM   18  H32 UNL     1       2.395  55.630 -22.235  1.00  0.00     0.187 HD
HETATM   19  C28 UNL     1       0.705  53.437 -23.573  1.00  0.00     0.070 A 
ATOM     20  H8  UNL     1       1.712  55.056 -24.514  1.00  0.00     0.187 HD
HETATM   21  C36 UNL     1      -0.165  52.043 -21.515  1.00  0.00     0.046 A 
BRANCH  19  22
HETATM   22  C29 UNL     1       0.168  52.782 -24.766  1.00  0.00    -0.007 A 
HETATM   23  C30 UNL     1      -1.195  52.889 -25.093  1.00  0.00     0.017 A 
HETATM   24  C31 UNL     1      -1.700  52.276 -26.242  1.00  0.00     0.043 A 
HETATM   25  C32 UNL     1      -0.845  51.551 -27.063  1.00  0.00     0.116 A 
HETATM   26  F1  UNL     1      -1.329  50.969 -28.168  1.00  0.00    -0.206 F 
HETATM   27  C33 UNL     1       0.505  51.420 -26.751  1.00  0.00     0.043 A 
HETATM   28  C34 UNL     1       1.011  52.033 -25.601  1.00  0.00     0.017 A 
ENDBRANCH  19  22
ENDBRANCH   7  11
ENDBRANCH   6   7
ENDBRANCH   1   6
BRANCH   4  29
HETATM   29  C7  UNL     1       1.357  51.298 -13.694  1.00  0.00     0.374 C 
BRANCH  29  30
HETATM   30  C8  UNL     1       0.519  50.725 -12.538  1.00  0.00     0.248 C 
HETATM   31  O2  UNL     1       0.443  49.504 -12.368  1.00  0.00    -0.271 OA
HETATM   32  N3  UNL     1      -0.094  51.634 -11.680  1.00  0.00    -0.348 N 
HETATM   33  C9  UNL     1      -0.764  51.161 -10.466  1.00  0.00     0.145 C 
HETATM   34  C22 UNL     1       0.066  53.085 -11.788  1.00  0.00     0.145 C 
HETATM   35  C10 UNL     1      -0.306  51.967  -9.234  1.00  0.00     0.143 C 
HETATM   36  N4  UNL     1      -0.566  53.414  -9.397  1.00  0.00    -0.378 N 
HETATM   37  C21 UNL     1      -0.773  53.892 -10.780  1.00  0.00     0.143 C 
BRANCH  36  38
HETATM   38  C11 UNL     1      -0.236  54.316  -8.392  1.00  0.00     0.030 A 
HETATM   39  C12 UNL     1       0.148  53.883  -7.113  1.00  0.00     0.030 A 
HETATM   40  C13 UNL     1       0.414  54.782  -6.066  1.00  0.00     0.017 A 
HETATM   41  C14 UNL     1       0.334  56.170  -6.248  1.00  0.00     0.008 A 
HETATM   42  C19 UNL     1       0.026  56.610  -7.545  1.00  0.00     0.017 A 
HETATM   43  C20 UNL     1      -0.246  55.705  -8.587  1.00  0.00     0.030 A 
BRANCH  41  44
HETATM   44  C15 UNL     1       0.547  57.115  -5.134  1.00  0.00     0.115 A 
HETATM   45  N5  UNL     1       1.767  57.680  -5.013  1.00  0.00    -0.352 N 
HETATM   46  C16 UNL     1       1.954  58.497  -3.961  1.00  0.00     0.091 A 
ATOM     47  H5  UNL     1       2.511  57.496  -5.687  1.00  0.00     0.166 HD
HETATM   48  C17 UNL     1       0.981  58.776  -3.034  1.00  0.00     0.034 A 
HETATM   49  C18 UNL     1      -0.227  58.158  -3.245  1.00  0.00     0.091 A 
HETATM   50  N6  UNL     1      -0.471  57.329  -4.277  1.00  0.00    -0.352 N 
ATOM     51  H6  UNL     1      -1.381  56.886  -4.404  1.00  0.00     0.166 HD
ENDBRANCH  41  44
ENDBRANCH  36  38
ENDBRANCH  29  30
ENDBRANCH   4  29
TORSDOF 8
ENDMDL
MODEL 6
REMARK minimizedAffinity -10.2201872
REMARK CNNscore 0.389228791
REMARK CNNaffinity 7.20868635
REMARK  8 active torsions:
REMARK  status: ('A' for Active; 'I' for Inactive)
REMARK       I    between atoms: C2_2  and  N1_4 
REMARK    1  A    between atoms: N1_4  and  C3_5 
REMARK    2  A    between atoms: N1_4  and  C24_34 
REMARK    3  A    between atoms: C3_5  and  C4_6 
REMARK    4  A    between atoms: N2_9  and  C7_10 
REMARK    5  A    between atoms: C7_10  and  C8_11 
REMARK       I    between atoms: C8_11  and  N3_13 
REMARK    6  A    between atoms: N4_16  and  C11_17 
REMARK    7  A    between atoms: C14_20  and  C15_21 
REMARK    8  A    between atoms: C28_41  and  C29_42 
ROOT
HETATM    1  C4  UNL     1      -4.279  48.617 -22.672  1.00  0.00     0.034 C 
HETATM    2  C5  UNL     1      -3.775  48.954 -24.085  1.00  0.00     0.038 C 
HETATM    3  C6  UNL     1      -5.031  49.073 -24.928  1.00  0.00     0.273 C 
HETATM    4  N2  UNL     1      -5.917  48.099 -24.293  1.00  0.00     0.097 N 
HETATM    5  C23 UNL     1      -5.781  48.382 -22.856  1.00  0.00     0.279 C 
ENDROOT
BRANCH   1   6
HETATM    6  C3  UNL     1      -3.918  49.740 -21.690  1.00  0.00     0.138 C 
BRANCH   6   7
HETATM    7  N1  UNL     1      -2.640  49.571 -20.983  1.00  0.00    -0.318 N 
HETATM    8  C2  UNL     1      -2.579  48.612 -19.965  1.00  0.00     0.220 C 
HETATM    9  C1  UNL     1      -1.227  48.340 -19.348  1.00  0.00     0.117 C 
HETATM   10  O1  UNL     1      -3.559  47.960 -19.594  1.00  0.00    -0.273 OA
BRANCH   7  11
HETATM   11  C24 UNL     1      -1.734  50.670 -21.064  1.00  0.00     0.038 A 
HETATM   12  C25 UNL     1      -1.270  51.286 -19.895  1.00  0.00     0.032 A 
HETATM   13  C26 UNL     1      -0.370  52.359 -19.937  1.00  0.00     0.034 A 
HETATM   14  C27 UNL     1       0.071  52.771 -21.198  1.00  0.00     0.060 A 
HETATM   15  N7  UNL     1       0.920  53.771 -21.583  1.00  0.00    -0.299 N 
HETATM   16  C35 UNL     1      -0.327  52.158 -22.379  1.00  0.00     0.023 A 
HETATM   17  N8  UNL     1       1.116  53.848 -22.909  1.00  0.00    -0.299 N 
HETATM   18  H32 UNL     1       1.402  54.435 -20.989  1.00  0.00     0.187 HD
HETATM   19  C28 UNL     1       0.383  52.844 -23.414  1.00  0.00     0.070 A 
ATOM     20  H8  UNL     1       1.693  54.519 -23.418  1.00  0.00     0.187 HD
HETATM   21  C36 UNL     1      -1.251  51.096 -22.313  1.00  0.00     0.046 A 
BRANCH  19  22
HETATM   22  C29 UNL     1       0.369  52.567 -24.851  1.00  0.00    -0.007 A 
HETATM   23  C30 UNL     1       0.617  51.273 -25.337  1.00  0.00     0.017 A 
HETATM   24  C31 UNL     1       0.586  51.010 -26.708  1.00  0.00     0.043 A 
HETATM   25  C32 UNL     1       0.312  52.043 -27.597  1.00  0.00     0.116 A 
HETATM   26  F1  UNL     1       0.277  51.789 -28.912  1.00  0.00    -0.206 F 
HETATM   27  C33 UNL     1       0.077  53.335 -27.139  1.00  0.00     0.043 A 
HETATM   28  C34 UNL     1       0.108  53.599 -25.767  1.00  0.00     0.017 A 
ENDBRANCH  19  22
ENDBRANCH   7  11
ENDBRANCH   6   7
ENDBRANCH   1   6
BRANCH   4  29
HETATM   29  C7  UNL     1      -7.310  48.245 -24.749  1.00  0.00     0.374 C 
BRANCH  29  30
HETATM   30  C8  UNL     1      -7.466  47.742 -26.194  1.00  0.00     0.248 C 
HETATM   31  O2  UNL     1      -6.507  47.231 -26.783  1.00  0.00    -0.271 OA
HETATM   32  N3  UNL     1      -8.728  47.841 -26.774  1.00  0.00    -0.348 N 
HETATM   33  C9  UNL     1      -8.986  47.229 -28.080  1.00  0.00     0.145 C 
HETATM   34  C22 UNL     1      -9.908  48.339 -26.066  1.00  0.00     0.145 C 
HETATM   35  C10 UNL     1     -10.265  46.370 -28.044  1.00  0.00     0.143 C 
HETATM   36  N4  UNL     1     -11.447  47.163 -27.640  1.00  0.00    -0.378 N 
HETATM   37  C21 UNL     1     -11.175  48.434 -26.936  1.00  0.00     0.143 C 
BRANCH  36  38
HETATM   38  C11 UNL     1     -12.705  46.577 -27.555  1.00  0.00     0.030 A 
HETATM   39  C12 UNL     1     -13.336  46.027 -28.681  1.00  0.00     0.030 A 
HETATM   40  C13 UNL     1     -14.637  45.496 -28.627  1.00  0.00     0.017 A 
HETATM   41  C14 UNL     1     -15.371  45.466 -27.432  1.00  0.00     0.008 A 
HETATM   42  C19 UNL     1     -14.714  45.943 -26.287  1.00  0.00     0.017 A 
HETATM   43  C20 UNL     1     -13.415  46.479 -26.349  1.00  0.00     0.030 A 
BRANCH  41  44
HETATM   44  C15 UNL     1     -16.761  44.971 -27.384  1.00  0.00     0.115 A 
HETATM   45  N5  UNL     1     -17.205  44.242 -28.430  1.00  0.00    -0.352 N 
HETATM   46  C16 UNL     1     -18.490  43.846 -28.390  1.00  0.00     0.091 A 
ATOM     47  H5  UNL     1     -16.596  44.002 -29.212  1.00  0.00     0.166 HD
HETATM   48  C17 UNL     1     -19.343  44.141 -27.355  1.00  0.00     0.034 A 
HETATM   49  C18 UNL     1     -18.798  44.883 -26.337  1.00  0.00     0.091 A 
HETATM   50  N6  UNL     1     -17.522  45.310 -26.324  1.00  0.00    -0.352 N 
ATOM     51  H6  UNL     1     -17.149  45.861 -25.551  1.00  0.00     0.166 HD
ENDBRANCH  41  44
ENDBRANCH  36  38
ENDBRANCH  29  30
ENDBRANCH   4  29
TORSDOF 8
ENDMDL
MODEL 7
REMARK minimizedAffinity -10.427639
REMARK CNNscore 0.385333389
REMARK CNNaffinity 7.49280405
REMARK  8 active torsions:
REMARK  status: ('A' for Active; 'I' for Inactive)
REMARK       I    between atoms: C2_2  and  N1_4 
REMARK    1  A    between atoms: N1_4  and  C3_5 
REMARK    2  A    between atoms: N1_4  and  C24_34 
REMARK    3  A    between atoms: C3_5  and  C4_6 
REMARK    4  A    between atoms: N2_9  and  C7_10 
REMARK    5  A    between atoms: C7_10  and  C8_11 
REMARK       I    between atoms: C8_11  and  N3_13 
REMARK    6  A    between atoms: N4_16  and  C11_17 
REMARK    7  A    between atoms: C14_20  and  C15_21 
REMARK    8  A    between atoms: C28_41  and  C29_42 
ROOT
HETATM    1  C4  UNL     1      -2.523  50.618 -22.076  1.00  0.00     0.034 C 
HETATM    2  C5  UNL     1      -3.682  51.049 -21.162  1.00  0.00     0.038 C 
HETATM    3  C6  UNL     1      -4.918  50.422 -21.782  1.00  0.00     0.273 C 
HETATM    4  N2  UNL     1      -4.589  50.446 -23.206  1.00  0.00     0.097 N 
HETATM    5  C23 UNL     1      -3.212  49.932 -23.259  1.00  0.00     0.279 C 
ENDROOT
BRANCH   1   6
HETATM    6  C3  UNL     1      -1.531  49.734 -21.307  1.00  0.00     0.138 C 
BRANCH   6   7
HETATM    7  N1  UNL     1      -0.683  50.438 -20.335  1.00  0.00    -0.318 N 
HETATM    8  C2  UNL     1      -0.874  50.155 -18.977  1.00  0.00     0.220 C 
HETATM    9  C1  UNL     1       0.100  50.766 -17.997  1.00  0.00     0.117 C 
HETATM   10  O1  UNL     1      -1.759  49.401 -18.564  1.00  0.00    -0.273 OA
BRANCH   7  11
HETATM   11  C24 UNL     1      -0.080  51.647 -20.794  1.00  0.00     0.038 A 
HETATM   12  C25 UNL     1       0.442  52.565 -19.874  1.00  0.00     0.032 A 
HETATM   13  C26 UNL     1       1.052  53.756 -20.290  1.00  0.00     0.034 A 
HETATM   14  C27 UNL     1       1.145  53.976 -21.668  1.00  0.00     0.060 A 
HETATM   15  N7  UNL     1       1.657  55.017 -22.390  1.00  0.00    -0.299 N 
HETATM   16  C35 UNL     1       0.681  53.072 -22.614  1.00  0.00     0.023 A 
HETATM   17  N8  UNL     1       1.579  54.858 -23.720  1.00  0.00    -0.299 N 
HETATM   18  H32 UNL     1       2.079  55.868 -22.034  1.00  0.00     0.187 HD
HETATM   19  C28 UNL     1       1.010  53.652 -23.879  1.00  0.00     0.070 A 
ATOM     20  H8  UNL     1       1.883  55.506 -24.447  1.00  0.00     0.187 HD
HETATM   21  C36 UNL     1       0.051  51.892 -22.171  1.00  0.00     0.046 A 
BRANCH  19  22
HETATM   22  C29 UNL     1       0.790  53.090 -25.212  1.00  0.00    -0.007 A 
HETATM   23  C30 UNL     1      -0.042  53.741 -26.139  1.00  0.00     0.017 A 
HETATM   24  C31 UNL     1      -0.236  53.210 -27.415  1.00  0.00     0.043 A 
HETATM   25  C32 UNL     1       0.396  52.022 -27.766  1.00  0.00     0.116 A 
HETATM   26  F1  UNL     1       0.214  51.517 -28.993  1.00  0.00    -0.206 F 
HETATM   27  C33 UNL     1       1.212  51.353 -26.859  1.00  0.00     0.043 A 
HETATM   28  C34 UNL     1       1.407  51.885 -25.582  1.00  0.00     0.017 A 
ENDBRANCH  19  22
ENDBRANCH   7  11
ENDBRANCH   6   7
ENDBRANCH   1   6
BRANCH   4  29
HETATM   29  C7  UNL     1      -5.513  49.612 -23.996  1.00  0.00     0.374 C 
BRANCH  29  30
HETATM   30  C8  UNL     1      -5.829  48.300 -23.257  1.00  0.00     0.248 C 
HETATM   31  O2  UNL     1      -5.279  48.043 -22.181  1.00  0.00    -0.271 OA
HETATM   32  N3  UNL     1      -6.782  47.459 -23.824  1.00  0.00    -0.348 N 
HETATM   33  C9  UNL     1      -7.252  46.281 -23.091  1.00  0.00     0.145 C 
HETATM   34  C22 UNL     1      -7.530  47.786 -25.039  1.00  0.00     0.145 C 
HETATM   35  C10 UNL     1      -8.791  46.221 -23.071  1.00  0.00     0.143 C 
HETATM   36  N4  UNL     1      -9.358  46.197 -24.438  1.00  0.00    -0.378 N 
HETATM   37  C21 UNL     1      -8.472  46.668 -25.524  1.00  0.00     0.143 C 
BRANCH  36  38
HETATM   38  C11 UNL     1     -10.732  46.133 -24.641  1.00  0.00     0.030 A 
HETATM   39  C12 UNL     1     -11.376  46.961 -25.572  1.00  0.00     0.030 A 
HETATM   40  C13 UNL     1     -12.772  46.959 -25.736  1.00  0.00     0.017 A 
HETATM   41  C14 UNL     1     -13.601  46.108 -24.990  1.00  0.00     0.008 A 
HETATM   42  C19 UNL     1     -12.955  45.223 -24.113  1.00  0.00     0.017 A 
HETATM   43  C20 UNL     1     -11.558  45.234 -23.948  1.00  0.00     0.030 A 
BRANCH  41  44
HETATM   44  C15 UNL     1     -15.072  46.151 -25.111  1.00  0.00     0.115 A 
HETATM   45  N5  UNL     1     -15.748  46.972 -24.279  1.00  0.00    -0.352 N 
HETATM   46  C16 UNL     1     -17.090  46.956 -24.372  1.00  0.00     0.091 A 
ATOM     47  H5  UNL     1     -15.265  47.575 -23.613  1.00  0.00     0.166 HD
HETATM   48  C17 UNL     1     -17.781  46.164 -25.257  1.00  0.00     0.034 A 
HETATM   49  C18 UNL     1     -17.005  45.368 -26.063  1.00  0.00     0.091 A 
HETATM   50  N6  UNL     1     -15.660  45.339 -26.012  1.00  0.00    -0.352 N 
ATOM     51  H6  UNL     1     -15.114  44.735 -26.626  1.00  0.00     0.166 HD
ENDBRANCH  41  44
ENDBRANCH  36  38
ENDBRANCH  29  30
ENDBRANCH   4  29
TORSDOF 8
ENDMDL
MODEL 8
REMARK minimizedAffinity -10.9388323
REMARK CNNscore 0.33616665
REMARK CNNaffinity 7.60136747
REMARK  8 active torsions:
REMARK  status: ('A' for Active; 'I' for Inactive)
REMARK       I    between atoms: C2_2  and  N1_4 
REMARK    1  A    between atoms: N1_4  and  C3_5 
REMARK    2  A    between atoms: N1_4  and  C24_34 
REMARK    3  A    between atoms: C3_5  and  C4_6 
REMARK    4  A    between atoms: N2_9  and  C7_10 
REMARK    5  A    between atoms: C7_10  and  C8_11 
REMARK       I    between atoms: C8_11  and  N3_13 
REMARK    6  A    between atoms: N4_16  and  C11_17 
REMARK    7  A    between atoms: C14_20  and  C15_21 
REMARK    8  A    between atoms: C28_41  and  C29_42 
ROOT
HETATM    1  C4  UNL     1      -2.480  50.130 -21.859  1.00  0.00     0.034 C 
HETATM    2  C5  UNL     1      -3.219  50.909 -20.759  1.00  0.00     0.038 C 
HETATM    3  C6  UNL     1      -4.528  50.164 -20.568  1.00  0.00     0.273 C 
HETATM    4  N2  UNL     1      -4.796  49.670 -21.917  1.00  0.00     0.097 N 
HETATM    5  C23 UNL     1      -3.508  49.105 -22.348  1.00  0.00     0.279 C 
ENDROOT
BRANCH   1   6
HETATM    6  C3  UNL     1      -1.180  49.526 -21.311  1.00  0.00     0.138 C 
BRANCH   6   7
HETATM    7  N1  UNL     1      -0.482  50.341 -20.306  1.00  0.00    -0.318 N 
HETATM    8  C2  UNL     1      -0.758  50.090 -18.957  1.00  0.00     0.220 C 
HETATM    9  C1  UNL     1       0.072  50.825 -17.931  1.00  0.00     0.117 C 
HETATM   10  O1  UNL     1      -1.603  49.272 -18.583  1.00  0.00    -0.273 OA
BRANCH   7  11
HETATM   11  C24 UNL     1       0.046  51.584 -20.769  1.00  0.00     0.038 A 
HETATM   12  C25 UNL     1       0.529  52.526 -19.853  1.00  0.00     0.032 A 
HETATM   13  C26 UNL     1       1.066  53.750 -20.272  1.00  0.00     0.034 A 
HETATM   14  C27 UNL     1       1.126  53.981 -21.650  1.00  0.00     0.060 A 
HETATM   15  N7  UNL     1       1.569  55.051 -22.375  1.00  0.00    -0.299 N 
HETATM   16  C35 UNL     1       0.700  53.055 -22.593  1.00  0.00     0.023 A 
HETATM   17  N8  UNL     1       1.480  54.892 -23.705  1.00  0.00    -0.299 N 
HETATM   18  H32 UNL     1       1.947  55.922 -22.022  1.00  0.00     0.187 HD
HETATM   19  C28 UNL     1       0.978  53.657 -23.861  1.00  0.00     0.070 A 
ATOM     20  H8  UNL     1       1.737  55.559 -24.433  1.00  0.00     0.187 HD
HETATM   21  C36 UNL     1       0.143  51.840 -22.147  1.00  0.00     0.046 A 
BRANCH  19  22
HETATM   22  C29 UNL     1       0.770  53.088 -25.193  1.00  0.00    -0.007 A 
HETATM   23  C30 UNL     1       1.229  51.797 -25.503  1.00  0.00     0.017 A 
HETATM   24  C31 UNL     1       1.014  51.252 -26.771  1.00  0.00     0.043 A 
HETATM   25  C32 UNL     1       0.344  51.999 -27.733  1.00  0.00     0.116 A 
HETATM   26  F1  UNL     1       0.132  51.473 -28.946  1.00  0.00    -0.206 F 
HETATM   27  C33 UNL     1      -0.107  53.285 -27.451  1.00  0.00     0.043 A 
HETATM   28  C34 UNL     1       0.108  53.831 -26.183  1.00  0.00     0.017 A 
ENDBRANCH  19  22
ENDBRANCH   7  11
ENDBRANCH   6   7
ENDBRANCH   1   6
BRANCH   4  29
HETATM   29  C7  UNL     1      -5.866  48.657 -21.927  1.00  0.00     0.374 C 
BRANCH  29  30
HETATM   30  C8  UNL     1      -7.053  49.128 -22.785  1.00  0.00     0.248 C 
HETATM   31  O2  UNL     1      -7.426  50.306 -22.740  1.00  0.00    -0.271 OA
HETATM   32  N3  UNL     1      -7.641  48.195 -23.634  1.00  0.00    -0.348 N 
HETATM   33  C9  UNL     1      -8.661  48.617 -24.597  1.00  0.00     0.145 C 
HETATM   34  C22 UNL     1      -7.153  46.823 -23.791  1.00  0.00     0.145 C 
HETATM   35  C10 UNL     1      -8.341  48.084 -26.008  1.00  0.00     0.143 C 
HETATM   36  N4  UNL     1      -8.240  46.608 -26.027  1.00  0.00    -0.378 N 
HETATM   37  C21 UNL     1      -8.012  45.949 -24.724  1.00  0.00     0.143 C 
BRANCH  36  38
HETATM   38  C11 UNL     1      -7.968  45.927 -27.208  1.00  0.00     0.030 A 
HETATM   39  C12 UNL     1      -7.251  46.527 -28.253  1.00  0.00     0.030 A 
HETATM   40  C13 UNL     1      -7.031  45.878 -29.481  1.00  0.00     0.017 A 
HETATM   41  C14 UNL     1      -7.499  44.578 -29.721  1.00  0.00     0.008 A 
HETATM   42  C19 UNL     1      -8.149  43.944 -28.651  1.00  0.00     0.017 A 
HETATM   43  C20 UNL     1      -8.372  44.601 -27.428  1.00  0.00     0.030 A 
BRANCH  41  44
HETATM   44  C15 UNL     1      -7.329  43.919 -31.031  1.00  0.00     0.115 A 
HETATM   45  N5  UNL     1      -6.508  42.849 -31.095  1.00  0.00    -0.352 N 
HETATM   46  C16 UNL     1      -6.327  42.297 -32.308  1.00  0.00     0.091 A 
ATOM     47  H5  UNL     1      -6.048  42.477 -30.264  1.00  0.00     0.166 HD
HETATM   48  C17 UNL     1      -6.930  42.761 -33.452  1.00  0.00     0.034 A 
HETATM   49  C18 UNL     1      -7.749  43.850 -33.284  1.00  0.00     0.091 A 
HETATM   50  N6  UNL     1      -7.965  44.445 -32.097  1.00  0.00    -0.352 N 
ATOM     51  H6  UNL     1      -8.580  45.254 -32.007  1.00  0.00     0.166 HD
ENDBRANCH  41  44
ENDBRANCH  36  38
ENDBRANCH  29  30
ENDBRANCH   4  29
TORSDOF 8
ENDMDL
MODEL 9
REMARK minimizedAffinity -10.0343361
REMARK CNNscore 0.328614622
REMARK CNNaffinity 7.6880765
REMARK  8 active torsions:
REMARK  status: ('A' for Active; 'I' for Inactive)
REMARK       I    between atoms: C2_2  and  N1_4 
REMARK    1  A    between atoms: N1_4  and  C3_5 
REMARK    2  A    between atoms: N1_4  and  C24_34 
REMARK    3  A    between atoms: C3_5  and  C4_6 
REMARK    4  A    between atoms: N2_9  and  C7_10 
REMARK    5  A    between atoms: C7_10  and  C8_11 
REMARK       I    between atoms: C8_11  and  N3_13 
REMARK    6  A    between atoms: N4_16  and  C11_17 
REMARK    7  A    between atoms: C14_20  and  C15_21 
REMARK    8  A    between atoms: C28_41  and  C29_42 
ROOT
HETATM    1  C4  UNL     1      -5.006  50.721 -21.177  1.00  0.00     0.034 C 
HETATM    2  C5  UNL     1      -6.168  49.797 -20.777  1.00  0.00     0.038 C 
HETATM    3  C6  UNL     1      -6.028  48.585 -21.680  1.00  0.00     0.273 C 
HETATM    4  N2  UNL     1      -5.478  49.176 -22.899  1.00  0.00     0.097 N 
HETATM    5  C23 UNL     1      -4.399  50.049 -22.412  1.00  0.00     0.279 C 
ENDROOT
BRANCH   1   6
HETATM    6  C3  UNL     1      -4.036  50.904 -20.001  1.00  0.00     0.138 C 
BRANCH   6   7
HETATM    7  N1  UNL     1      -2.684  50.368 -20.211  1.00  0.00    -0.318 N 
HETATM    8  C2  UNL     1      -2.418  49.071 -19.756  1.00  0.00     0.220 C 
HETATM    9  C1  UNL     1      -1.076  48.473 -20.108  1.00  0.00     0.117 C 
HETATM   10  O1  UNL     1      -3.240  48.395 -19.131  1.00  0.00    -0.273 OA
BRANCH   7  11
HETATM   11  C24 UNL     1      -1.657  51.335 -20.432  1.00  0.00     0.038 A 
HETATM   12  C25 UNL     1      -1.029  51.953 -19.343  1.00  0.00     0.032 A 
HETATM   13  C26 UNL     1      -0.009  52.897 -19.522  1.00  0.00     0.034 A 
HETATM   14  C27 UNL     1       0.378  53.174 -20.837  1.00  0.00     0.060 A 
HETATM   15  N7  UNL     1       1.310  54.032 -21.349  1.00  0.00    -0.299 N 
HETATM   16  C35 UNL     1      -0.186  52.550 -21.942  1.00  0.00     0.023 A 
HETATM   17  N8  UNL     1       1.409  54.006 -22.687  1.00  0.00    -0.299 N 
HETATM   18  H32 UNL     1       1.917  54.663 -20.837  1.00  0.00     0.187 HD
HETATM   19  C28 UNL     1       0.518  53.077 -23.070  1.00  0.00     0.070 A 
ATOM     20  H8  UNL     1       2.021  54.567 -23.280  1.00  0.00     0.187 HD
HETATM   21  C36 UNL     1      -1.226  51.622 -21.738  1.00  0.00     0.046 A 
BRANCH  19  22
HETATM   22  C29 UNL     1       0.355  52.722 -24.480  1.00  0.00    -0.007 A 
HETATM   23  C30 UNL     1       0.399  51.380 -24.893  1.00  0.00     0.017 A 
HETATM   24  C31 UNL     1       0.226  51.044 -26.237  1.00  0.00     0.043 A 
HETATM   25  C32 UNL     1       0.015  52.051 -27.172  1.00  0.00     0.116 A 
HETATM   26  F1  UNL     1      -0.156  51.727 -28.461  1.00  0.00    -0.206 F 
HETATM   27  C33 UNL     1      -0.017  53.387 -26.787  1.00  0.00     0.043 A 
HETATM   28  C34 UNL     1       0.156  53.724 -25.442  1.00  0.00     0.017 A 
ENDBRANCH  19  22
ENDBRANCH   7  11
ENDBRANCH   6   7
ENDBRANCH   1   6
BRANCH   4  29
HETATM   29  C7  UNL     1      -4.972  48.148 -23.826  1.00  0.00     0.374 C 
BRANCH  29  30
HETATM   30  C8  UNL     1      -4.374  48.799 -25.085  1.00  0.00     0.248 C 
HETATM   31  O2  UNL     1      -3.322  49.444 -25.014  1.00  0.00    -0.271 OA
HETATM   32  N3  UNL     1      -5.034  48.585 -26.292  1.00  0.00    -0.348 N 
HETATM   33  C9  UNL     1      -4.429  49.031 -27.550  1.00  0.00     0.145 C 
HETATM   34  C22 UNL     1      -6.218  47.736 -26.428  1.00  0.00     0.145 C 
HETATM   35  C10 UNL     1      -4.433  47.900 -28.596  1.00  0.00     0.143 C 
HETATM   36  N4  UNL     1      -5.802  47.407 -28.866  1.00  0.00    -0.378 N 
HETATM   37  C21 UNL     1      -6.824  47.715 -27.844  1.00  0.00     0.143 C 
BRANCH  36  38
HETATM   38  C11 UNL     1      -6.026  46.392 -29.790  1.00  0.00     0.030 A 
HETATM   39  C12 UNL     1      -6.850  45.297 -29.491  1.00  0.00     0.030 A 
HETATM   40  C13 UNL     1      -7.028  44.227 -30.386  1.00  0.00     0.017 A 
HETATM   41  C14 UNL     1      -6.406  44.207 -31.643  1.00  0.00     0.008 A 
HETATM   42  C19 UNL     1      -5.643  45.336 -31.977  1.00  0.00     0.017 A 
HETATM   43  C20 UNL     1      -5.463  46.401 -31.075  1.00  0.00     0.030 A 
BRANCH  41  44
HETATM   44  C15 UNL     1      -6.537  43.055 -32.558  1.00  0.00     0.115 A 
HETATM   45  N5  UNL     1      -7.161  43.257 -33.738  1.00  0.00    -0.352 N 
HETATM   46  C16 UNL     1      -7.315  42.182 -34.532  1.00  0.00     0.091 A 
ATOM     47  H5  UNL     1      -7.499  44.179 -34.014  1.00  0.00     0.166 HD
HETATM   48  C17 UNL     1      -6.871  40.925 -34.203  1.00  0.00     0.034 A 
HETATM   49  C18 UNL     1      -6.246  40.822 -32.985  1.00  0.00     0.091 A 
HETATM   50  N6  UNL     1      -6.067  41.860 -32.148  1.00  0.00    -0.352 N 
ATOM     51  H6  UNL     1      -5.598  41.749 -31.249  1.00  0.00     0.166 HD
ENDBRANCH  41  44
ENDBRANCH  36  38
ENDBRANCH  29  30
ENDBRANCH   4  29
TORSDOF 8
ENDMDL
