MODEL 1
REMARK minimizedAffinity -8.779459
REMARK  5 active torsions:
REMARK  status: ('A' for Active; 'I' for Inactive)
REMARK    1  A    between atoms: C2_2  and  N1_3 
REMARK    2  A    between atoms: C2_2  and  C16_26 
REMARK       I    between atoms: N1_3  and  C3_4 
REMARK       I    between atoms: C3_4  and  N2_6 
REMARK    3  A    between atoms: N2_6  and  C4_7 
REMARK    4  A    between atoms: N5_14  and  C8_15 
REMARK    5  A    between atoms: C10_17  and  N6_18 
ROOT
HETATM    1  C4  UNL     1       0.896  53.025 -19.700  1.00  0.00     0.111 A 
HETATM    2  C5  UNL     1       1.388  54.079 -20.457  1.00  0.00     0.080 A 
HETATM    3  C6  UNL     1       1.192  53.968 -21.833  1.00  0.00     0.067 A 
HETATM    4  N3  UNL     1       1.538  54.789 -22.866  1.00  0.00    -0.298 N 
HETATM    5  N4  UNL     1       1.179  54.334 -24.074  1.00  0.00    -0.284 N 
ATOM      6  H4  UNL     1       1.349  54.765 -24.982  1.00  0.00     0.188 HD
HETATM    7  C7  UNL     1       0.548  53.184 -23.817  1.00  0.00     0.130 A 
HETATM    8  N5  UNL     1       0.015  52.466 -24.829  1.00  0.00    -0.370 N 
HETATM    9  C14 UNL     1       0.543  52.888 -22.422  1.00  0.00     0.052 A 
HETATM   10  C15 UNL     1       0.087  51.872 -21.582  1.00  0.00     0.107 A 
HETATM   11  N7  UNL     1       0.276  51.949 -20.235  1.00  0.00    -0.351 N 
ATOM     12  H7  UNL     1      -0.050  51.195 -19.630  1.00  0.00     0.166 HD
HETATM   13  H8  UNL     1       2.027  55.676 -22.814  1.00  0.00     0.187 HD
HETATM   14  H9  UNL     1       0.239  52.819 -25.754  1.00  0.00     0.161 HD
ENDROOT
BRANCH   1  15
HETATM   15  N2  UNL     1       1.011  52.955 -18.311  1.00  0.00    -0.295 N 
HETATM   16  C3  UNL     1       0.679  51.913 -17.487  1.00  0.00     0.322 C 
HETATM   17  N1  UNL     1       0.882  52.238 -16.167  1.00  0.00    -0.335 N 
HETATM   18  O1  UNL     1       0.268  50.815 -17.838  1.00  0.00    -0.247 OA
HETATM   19  H5  UNL     1       0.905  53.218 -15.926  1.00  0.00     0.165 HD
HETATM   20  H6  UNL     1       1.551  53.715 -17.930  1.00  0.00     0.172 HD
BRANCH  17  21
HETATM   21  C2  UNL     1       0.571  51.309 -15.091  1.00  0.00     0.115 C 
HETATM   22  C1  UNL     1      -0.206  52.004 -13.967  1.00  0.00     0.037 C 
BRANCH  21  23
HETATM   23  C16 UNL     1       1.858  50.638 -14.639  1.00  0.00    -0.036 A 
HETATM   24  C17 UNL     1       1.893  49.352 -14.079  1.00  0.00     0.009 A 
HETATM   25  C18 UNL     1       3.102  48.789 -13.655  1.00  0.00     0.001 A 
HETATM   26  C19 UNL     1       4.288  49.511 -13.772  1.00  0.00     0.000 A 
HETATM   27  C20 UNL     1       4.270  50.795 -14.310  1.00  0.00     0.001 A 
HETATM   28  C21 UNL     1       3.065  51.355 -14.737  1.00  0.00     0.009 A 
ENDBRANCH  21  23
ENDBRANCH  17  21
ENDBRANCH   1  15
BRANCH   8  29
HETATM   29  C8  UNL     1      -0.602  51.185 -24.780  1.00  0.00     0.087 C 
HETATM   30  C9  UNL     1      -0.899  50.588 -26.182  1.00  0.00     0.061 C 
HETATM   31  C10 UNL     1      -2.230  50.083 -25.572  1.00  0.00     0.226 C 
HETATM   32  C13 UNL     1      -2.142  51.264 -24.578  1.00  0.00     0.061 C 
BRANCH  31  33
HETATM   33  N6  UNL     1      -3.322  50.131 -26.557  1.00  0.00     0.084 N 
HETATM   34  C11 UNL     1      -2.844  50.799 -27.768  1.00  0.00     0.309 C 
HETATM   35  C12 UNL     1      -3.952  48.858 -26.902  1.00  0.00     0.309 C 
ENDBRANCH  31  33
ENDBRANCH   8  29
TORSDOF 5
ENDMDL
MODEL 2
REMARK minimizedAffinity -8.74137878
REMARK  5 active torsions:
REMARK  status: ('A' for Active; 'I' for Inactive)
REMARK    1  A    between atoms: C2_2  and  N1_3 
REMARK    2  A    between atoms: C2_2  and  C16_26 
REMARK       I    between atoms: N1_3  and  C3_4 
REMARK       I    between atoms: C3_4  and  N2_6 
REMARK    3  A    between atoms: N2_6  and  C4_7 
REMARK    4  A    between atoms: N5_14  and  C8_15 
REMARK    5  A    between atoms: C10_17  and  N6_18 
ROOT
HETATM    1  C4  UNL     1      -0.116  51.301 -22.009  1.00  0.00     0.111 A 
HETATM    2  C5  UNL     1       0.697  52.381 -22.323  1.00  0.00     0.080 A 
HETATM    3  C6  UNL     1       0.476  52.948 -23.578  1.00  0.00     0.067 A 
HETATM    4  N3  UNL     1       1.074  53.995 -24.217  1.00  0.00    -0.298 N 
HETATM    5  N4  UNL     1       0.586  54.244 -25.439  1.00  0.00    -0.284 N 
ATOM      6  H4  UNL     1       0.890  54.958 -26.101  1.00  0.00     0.188 HD
HETATM    7  C7  UNL     1      -0.390  53.344 -25.593  1.00  0.00     0.130 A 
HETATM    8  N5  UNL     1      -1.129  53.336 -26.722  1.00  0.00    -0.370 N 
HETATM    9  C14 UNL     1      -0.492  52.483 -24.461  1.00  0.00     0.052 A 
HETATM   10  C15 UNL     1      -1.259  51.387 -24.061  1.00  0.00     0.107 A 
HETATM   11  N7  UNL     1      -1.056  50.806 -22.846  1.00  0.00    -0.351 N 
ATOM     12  H7  UNL     1      -1.612  49.998 -22.567  1.00  0.00     0.166 HD
HETATM   13  H8  UNL     1       1.829  54.579 -23.874  1.00  0.00     0.187 HD
HETATM   14  H9  UNL     1      -0.801  53.975 -27.440  1.00  0.00     0.161 HD
ENDROOT
BRANCH   1  15
HETATM   15  N2  UNL     1      -0.031  50.599 -20.806  1.00  0.00    -0.295 N 
HETATM   16  C3  UNL     1      -0.498  50.972 -19.574  1.00  0.00     0.322 C 
HETATM   17  N1  UNL     1      -0.176  50.041 -18.615  1.00  0.00    -0.335 N 
HETATM   18  O1  UNL     1      -1.137  51.985 -19.319  1.00  0.00    -0.247 OA
HETATM   19  H5  UNL     1       0.599  49.422 -18.809  1.00  0.00     0.165 HD
HETATM   20  H6  UNL     1       0.273  49.648 -20.935  1.00  0.00     0.172 HD
BRANCH  17  21
HETATM   21  C2  UNL     1      -0.531  50.225 -17.217  1.00  0.00     0.115 C 
HETATM   22  C1  UNL     1      -1.801  51.073 -17.075  1.00  0.00     0.037 C 
BRANCH  21  23
HETATM   23  C16 UNL     1       0.675  50.778 -16.475  1.00  0.00    -0.036 A 
HETATM   24  C17 UNL     1       1.140  50.242 -15.265  1.00  0.00     0.009 A 
HETATM   25  C18 UNL     1       2.240  50.804 -14.609  1.00  0.00     0.001 A 
HETATM   26  C19 UNL     1       2.880  51.919 -15.148  1.00  0.00     0.000 A 
HETATM   27  C20 UNL     1       2.423  52.475 -16.339  1.00  0.00     0.001 A 
HETATM   28  C21 UNL     1       1.327  51.911 -16.995  1.00  0.00     0.009 A 
ENDBRANCH  21  23
ENDBRANCH  17  21
ENDBRANCH   1  15
BRANCH   8  29
HETATM   29  C8  UNL     1      -2.134  52.411 -27.121  1.00  0.00     0.087 C 
HETATM   30  C9  UNL     1      -3.262  52.231 -26.070  1.00  0.00     0.061 C 
HETATM   31  C10 UNL     1      -3.221  50.727 -26.434  1.00  0.00     0.226 C 
HETATM   32  C13 UNL     1      -1.741  50.934 -26.831  1.00  0.00     0.061 C 
BRANCH  31  33
HETATM   33  N6  UNL     1      -3.475  49.884 -25.254  1.00  0.00     0.084 N 
HETATM   34  C11 UNL     1      -4.676  50.367 -24.572  1.00  0.00     0.309 C 
HETATM   35  C12 UNL     1      -3.574  48.445 -25.484  1.00  0.00     0.309 C 
ENDBRANCH  31  33
ENDBRANCH   8  29
TORSDOF 5
ENDMDL
MODEL 3
REMARK minimizedAffinity -8.6403532
REMARK  5 active torsions:
REMARK  status: ('A' for Active; 'I' for Inactive)
REMARK    1  A    between atoms: C2_2  and  N1_3 
REMARK    2  A    between atoms: C2_2  and  C16_26 
REMARK       I    between atoms: N1_3  and  C3_4 
REMARK       I    between atoms: C3_4  and  N2_6 
REMARK    3  A    between atoms: N2_6  and  C4_7 
REMARK    4  A    between atoms: N5_14  and  C8_15 
REMARK    5  A    between atoms: C10_17  and  N6_18 
ROOT
HETATM    1  C4  UNL     1      -2.527  51.354 -27.358  1.00  0.00     0.111 A 
HETATM    2  C5  UNL     1      -1.945  52.570 -27.685  1.00  0.00     0.080 A 
HETATM    3  C6  UNL     1      -1.094  53.103 -26.718  1.00  0.00     0.067 A 
HETATM    4  N3  UNL     1      -0.366  54.257 -26.688  1.00  0.00    -0.298 N 
HETATM    5  N4  UNL     1       0.339  54.433 -25.563  1.00  0.00    -0.284 N 
ATOM      6  H4  UNL     1       0.934  55.224 -25.314  1.00  0.00     0.188 HD
HETATM    7  C7  UNL     1       0.087  53.337 -24.842  1.00  0.00     0.130 A 
HETATM    8  N5  UNL     1       0.679  53.168 -23.641  1.00  0.00    -0.370 N 
HETATM    9  C14 UNL     1      -0.829  52.470 -25.509  1.00  0.00     0.052 A 
HETATM   10  C15 UNL     1      -1.465  51.252 -25.264  1.00  0.00     0.107 A 
HETATM   11  N7  UNL     1      -2.310  50.714 -26.187  1.00  0.00    -0.351 N 
ATOM     12  H7  UNL     1      -2.780  49.830 -25.993  1.00  0.00     0.166 HD
HETATM   13  H8  UNL     1      -0.313  54.973 -27.405  1.00  0.00     0.187 HD
HETATM   14  H9  UNL     1       1.210  53.972 -23.321  1.00  0.00     0.161 HD
ENDROOT
BRANCH   1  15
HETATM   15  N2  UNL     1      -3.415  50.676 -28.195  1.00  0.00    -0.295 N 
HETATM   16  C3  UNL     1      -3.870  49.389 -28.080  1.00  0.00     0.322 C 
HETATM   17  N1  UNL     1      -4.692  49.056 -29.129  1.00  0.00    -0.335 N 
HETATM   18  O1  UNL     1      -3.615  48.610 -27.171  1.00  0.00    -0.247 OA
HETATM   19  H5  UNL     1      -4.606  49.595 -29.979  1.00  0.00     0.165 HD
HETATM   20  H6  UNL     1      -3.871  51.288 -28.851  1.00  0.00     0.172 HD
BRANCH  17  21
HETATM   21  C2  UNL     1      -5.277  47.729 -29.255  1.00  0.00     0.115 C 
HETATM   22  C1  UNL     1      -5.210  47.230 -30.703  1.00  0.00     0.037 C 
BRANCH  21  23
HETATM   23  C16 UNL     1      -6.679  47.756 -28.667  1.00  0.00    -0.036 A 
HETATM   24  C17 UNL     1      -7.792  48.244 -29.369  1.00  0.00     0.009 A 
HETATM   25  C18 UNL     1      -9.057  48.271 -28.772  1.00  0.00     0.001 A 
HETATM   26  C19 UNL     1      -9.222  47.824 -27.463  1.00  0.00     0.000 A 
HETATM   27  C20 UNL     1      -8.126  47.353 -26.746  1.00  0.00     0.001 A 
HETATM   28  C21 UNL     1      -6.864  47.323 -27.342  1.00  0.00     0.009 A 
ENDBRANCH  21  23
ENDBRANCH  17  21
ENDBRANCH   1  15
BRANCH   8  29
HETATM   29  C8  UNL     1       0.471  52.135 -22.685  1.00  0.00     0.087 C 
HETATM   30  C9  UNL     1      -0.823  52.316 -21.848  1.00  0.00     0.061 C 
HETATM   31  C10 UNL     1       0.009  51.817 -20.642  1.00  0.00     0.226 C 
HETATM   32  C13 UNL     1       1.259  52.368 -21.364  1.00  0.00     0.061 C 
BRANCH  31  33
HETATM   33  N6  UNL     1      -0.389  52.500 -19.400  1.00  0.00     0.084 N 
HETATM   34  C11 UNL     1      -1.570  51.837 -18.846  1.00  0.00     0.309 C 
HETATM   35  C12 UNL     1       0.637  52.638 -18.369  1.00  0.00     0.309 C 
ENDBRANCH  31  33
ENDBRANCH   8  29
TORSDOF 5
ENDMDL
MODEL 4
REMARK minimizedAffinity -8.57123756
REMARK  5 active torsions:
REMARK  status: ('A' for Active; 'I' for Inactive)
REMARK    1  A    between atoms: C2_2  and  N1_3 
REMARK    2  A    between atoms: C2_2  and  C16_26 
REMARK       I    between atoms: N1_3  and  C3_4 
REMARK       I    between atoms: C3_4  and  N2_6 
REMARK    3  A    between atoms: N2_6  and  C4_7 
REMARK    4  A    between atoms: N5_14  and  C8_15 
REMARK    5  A    between atoms: C10_17  and  N6_18 
ROOT
HETATM    1  C4  UNL     1       0.866  52.911 -19.646  1.00  0.00     0.111 A 
HETATM    2  C5  UNL     1       1.375  53.971 -20.383  1.00  0.00     0.080 A 
HETATM    3  C6  UNL     1       1.177  53.888 -21.761  1.00  0.00     0.067 A 
HETATM    4  N3  UNL     1       1.537  54.723 -22.779  1.00  0.00    -0.298 N 
HETATM    5  N4  UNL     1       1.172  54.296 -23.994  1.00  0.00    -0.284 N 
ATOM      6  H4  UNL     1       1.349  54.742 -24.894  1.00  0.00     0.188 HD
HETATM    7  C7  UNL     1       0.523  53.152 -23.759  1.00  0.00     0.130 A 
HETATM    8  N5  UNL     1      -0.021  52.461 -24.784  1.00  0.00    -0.370 N 
HETATM    9  C14 UNL     1       0.513  52.830 -22.370  1.00  0.00     0.052 A 
HETATM   10  C15 UNL     1       0.041  51.805 -21.549  1.00  0.00     0.107 A 
HETATM   11  N7  UNL     1       0.230  51.854 -20.201  1.00  0.00    -0.351 N 
ATOM     12  H7  UNL     1      -0.108  51.094 -19.611  1.00  0.00     0.166 HD
HETATM   13  H8  UNL     1       2.040  55.602 -22.710  1.00  0.00     0.187 HD
HETATM   14  H9  UNL     1       0.209  52.828 -25.703  1.00  0.00     0.161 HD
ENDROOT
BRANCH   1  15
HETATM   15  N2  UNL     1       0.979  52.813 -18.258  1.00  0.00    -0.295 N 
HETATM   16  C3  UNL     1       0.723  51.728 -17.464  1.00  0.00     0.322 C 
HETATM   17  N1  UNL     1       0.895  52.032 -16.134  1.00  0.00    -0.335 N 
HETATM   18  O1  UNL     1       0.397  50.612 -17.846  1.00  0.00    -0.247 OA
HETATM   19  H5  UNL     1       0.842  53.005 -15.868  1.00  0.00     0.165 HD
HETATM   20  H6  UNL     1       1.458  53.601 -17.854  1.00  0.00     0.172 HD
BRANCH  17  21
HETATM   21  C2  UNL     1       0.649  51.055 -15.085  1.00  0.00     0.115 C 
HETATM   22  C1  UNL     1       0.733  49.624 -15.631  1.00  0.00     0.037 C 
BRANCH  21  23
HETATM   23  C16 UNL     1      -0.670  51.388 -14.407  1.00  0.00    -0.036 A 
HETATM   24  C17 UNL     1      -0.750  52.092 -13.196  1.00  0.00     0.009 A 
HETATM   25  C18 UNL     1      -1.989  52.350 -12.600  1.00  0.00     0.001 A 
HETATM   26  C19 UNL     1      -3.162  51.896 -13.199  1.00  0.00     0.000 A 
HETATM   27  C20 UNL     1      -3.100  51.181 -14.392  1.00  0.00     0.001 A 
HETATM   28  C21 UNL     1      -1.865  50.926 -14.988  1.00  0.00     0.009 A 
ENDBRANCH  21  23
ENDBRANCH  17  21
ENDBRANCH   1  15
BRANCH   8  29
HETATM   29  C8  UNL     1      -0.657  51.189 -24.760  1.00  0.00     0.087 C 
HETATM   30  C9  UNL     1      -0.923  50.602 -26.172  1.00  0.00     0.061 C 
HETATM   31  C10 UNL     1      -2.277  50.114 -25.603  1.00  0.00     0.226 C 
HETATM   32  C13 UNL     1      -2.201  51.290 -24.602  1.00  0.00     0.061 C 
BRANCH  31  33
HETATM   33  N6  UNL     1      -3.340  50.182 -26.619  1.00  0.00     0.084 N 
HETATM   34  C11 UNL     1      -2.827  50.878 -27.800  1.00  0.00     0.309 C 
HETATM   35  C12 UNL     1      -3.956  48.917 -27.012  1.00  0.00     0.309 C 
ENDBRANCH  31  33
ENDBRANCH   8  29
TORSDOF 5
ENDMDL
MODEL 5
REMARK minimizedAffinity -8.53881168
REMARK  5 active torsions:
REMARK  status: ('A' for Active; 'I' for Inactive)
REMARK    1  A    between atoms: C2_2  and  N1_3 
REMARK    2  A    between atoms: C2_2  and  C16_26 
REMARK       I    between atoms: N1_3  and  C3_4 
REMARK       I    between atoms: C3_4  and  N2_6 
REMARK    3  A    between atoms: N2_6  and  C4_7 
REMARK    4  A    between atoms: N5_14  and  C8_15 
REMARK    5  A    between atoms: C10_17  and  N6_18 
ROOT
HETATM    1  C4  UNL     1      -3.452  49.101 -25.375  1.00  0.00     0.111 A 
HETATM    2  C5  UNL     1      -4.731  48.780 -24.941  1.00  0.00     0.080 A 
HETATM    3  C6  UNL     1      -5.573  48.241 -25.914  1.00  0.00     0.067 A 
HETATM    4  N3  UNL     1      -6.870  47.823 -25.858  1.00  0.00    -0.298 N 
HETATM    5  N4  UNL     1      -7.350  47.363 -27.021  1.00  0.00    -0.284 N 
ATOM      6  H4  UNL     1      -8.290  47.019 -27.218  1.00  0.00     0.188 HD
HETATM    7  C7  UNL     1      -6.316  47.457 -27.863  1.00  0.00     0.130 A 
HETATM    8  N5  UNL     1      -6.445  47.036 -29.139  1.00  0.00    -0.370 N 
HETATM    9  C14 UNL     1      -5.173  48.026 -27.228  1.00  0.00     0.052 A 
HETATM   10  C15 UNL     1      -3.869  48.385 -27.574  1.00  0.00     0.107 A 
HETATM   11  N7  UNL     1      -3.030  48.924 -26.647  1.00  0.00    -0.351 N 
ATOM     12  H7  UNL     1      -2.083  49.195 -26.913  1.00  0.00     0.166 HD
HETATM   13  H8  UNL     1      -7.488  47.830 -25.053  1.00  0.00     0.187 HD
HETATM   14  H9  UNL     1      -7.390  46.769 -29.397  1.00  0.00     0.161 HD
ENDROOT
BRANCH   1  15
HETATM   15  N2  UNL     1      -2.477  49.661 -24.548  1.00  0.00    -0.295 N 
HETATM   16  C3  UNL     1      -1.989  50.940 -24.564  1.00  0.00     0.322 C 
HETATM   17  N1  UNL     1      -0.992  51.105 -23.632  1.00  0.00    -0.335 N 
HETATM   18  O1  UNL     1      -2.372  51.852 -25.285  1.00  0.00    -0.247 OA
HETATM   19  H5  UNL     1      -0.511  50.276 -23.313  1.00  0.00     0.165 HD
HETATM   20  H6  UNL     1      -2.250  49.071 -23.764  1.00  0.00     0.172 HD
BRANCH  17  21
HETATM   21  C2  UNL     1      -0.287  52.368 -23.477  1.00  0.00     0.115 C 
HETATM   22  C1  UNL     1       0.908  52.457 -24.433  1.00  0.00     0.037 C 
BRANCH  21  23
HETATM   23  C16 UNL     1       0.071  52.550 -22.011  1.00  0.00    -0.036 A 
HETATM   24  C17 UNL     1      -0.541  51.823 -20.978  1.00  0.00     0.009 A 
HETATM   25  C18 UNL     1      -0.194  52.047 -19.642  1.00  0.00     0.001 A 
HETATM   26  C19 UNL     1       0.761  53.009 -19.320  1.00  0.00     0.000 A 
HETATM   27  C20 UNL     1       1.367  53.752 -20.330  1.00  0.00     0.001 A 
HETATM   28  C21 UNL     1       1.022  53.527 -21.663  1.00  0.00     0.009 A 
ENDBRANCH  21  23
ENDBRANCH  17  21
ENDBRANCH   1  15
BRANCH   8  29
HETATM   29  C8  UNL     1      -5.511  47.140 -30.207  1.00  0.00     0.087 C 
HETATM   30  C9  UNL     1      -5.688  48.423 -31.062  1.00  0.00     0.061 C 
HETATM   31  C10 UNL     1      -5.388  47.525 -32.288  1.00  0.00     0.226 C 
HETATM   32  C13 UNL     1      -5.946  46.339 -31.468  1.00  0.00     0.061 C 
BRANCH  31  33
HETATM   33  N6  UNL     1      -6.172  47.942 -33.461  1.00  0.00     0.084 N 
HETATM   34  C11 UNL     1      -5.272  48.103 -34.604  1.00  0.00     0.309 C 
HETATM   35  C12 UNL     1      -7.304  47.095 -33.830  1.00  0.00     0.309 C 
ENDBRANCH  31  33
ENDBRANCH   8  29
TORSDOF 5
ENDMDL
MODEL 6
REMARK minimizedAffinity -8.52658081
REMARK  5 active torsions:
REMARK  status: ('A' for Active; 'I' for Inactive)
REMARK    1  A    between atoms: C2_2  and  N1_3 
REMARK    2  A    between atoms: C2_2  and  C16_26 
REMARK       I    between atoms: N1_3  and  C3_4 
REMARK       I    between atoms: C3_4  and  N2_6 
REMARK    3  A    between atoms: N2_6  and  C4_7 
REMARK    4  A    between atoms: N5_14  and  C8_15 
REMARK    5  A    between atoms: C10_17  and  N6_18 
ROOT
HETATM    1  C4  UNL     1      -2.715  50.841 -26.746  1.00  0.00     0.111 A 
HETATM    2  C5  UNL     1      -1.467  51.176 -27.254  1.00  0.00     0.080 A 
HETATM    3  C6  UNL     1      -0.557  51.669 -26.320  1.00  0.00     0.067 A 
HETATM    4  N3  UNL     1       0.733  52.096 -26.452  1.00  0.00    -0.298 N 
HETATM    5  N4  UNL     1       1.292  52.513 -25.308  1.00  0.00    -0.284 N 
ATOM      6  H4  UNL     1       2.230  52.890 -25.171  1.00  0.00     0.188 HD
HETATM    7  C7  UNL     1       0.341  52.323 -24.389  1.00  0.00     0.130 A 
HETATM    8  N5  UNL     1       0.588  52.612 -23.093  1.00  0.00    -0.370 N 
HETATM    9  C14 UNL     1      -0.857  51.814 -24.971  1.00  0.00     0.052 A 
HETATM   10  C15 UNL     1      -2.140  51.457 -24.552  1.00  0.00     0.107 A 
HETATM   11  N7  UNL     1      -3.053  50.984 -25.445  1.00  0.00    -0.351 N 
ATOM     12  H7  UNL     1      -3.992  50.737 -25.132  1.00  0.00     0.166 HD
HETATM   13  H8  UNL     1       1.289  52.134 -27.299  1.00  0.00     0.187 HD
HETATM   14  H9  UNL     1       1.479  53.070 -22.930  1.00  0.00     0.161 HD
ENDROOT
BRANCH   1  15
HETATM   15  N2  UNL     1      -3.758  50.345 -27.531  1.00  0.00    -0.295 N 
HETATM   16  C3  UNL     1      -3.927  49.071 -28.004  1.00  0.00     0.322 C 
HETATM   17  N1  UNL     1      -5.050  48.978 -28.791  1.00  0.00    -0.335 N 
HETATM   18  O1  UNL     1      -3.207  48.110 -27.768  1.00  0.00    -0.247 OA
HETATM   19  H5  UNL     1      -5.403  49.830 -29.202  1.00  0.00     0.165 HD
HETATM   20  H6  UNL     1      -4.529  50.988 -27.599  1.00  0.00     0.172 HD
BRANCH  17  21
HETATM   21  C2  UNL     1      -5.430  47.733 -29.441  1.00  0.00     0.115 C 
HETATM   22  C1  UNL     1      -5.945  47.986 -30.863  1.00  0.00     0.037 C 
BRANCH  21  23
HETATM   23  C16 UNL     1      -6.410  46.994 -28.545  1.00  0.00    -0.036 A 
HETATM   24  C17 UNL     1      -7.087  45.832 -28.946  1.00  0.00     0.009 A 
HETATM   25  C18 UNL     1      -7.998  45.204 -28.091  1.00  0.00     0.001 A 
HETATM   26  C19 UNL     1      -8.256  45.737 -26.830  1.00  0.00     0.000 A 
HETATM   27  C20 UNL     1      -7.606  46.898 -26.421  1.00  0.00     0.001 A 
HETATM   28  C21 UNL     1      -6.694  47.523 -27.272  1.00  0.00     0.009 A 
ENDBRANCH  21  23
ENDBRANCH  17  21
ENDBRANCH   1  15
BRANCH   8  29
HETATM   29  C8  UNL     1      -0.308  52.577 -21.989  1.00  0.00     0.087 C 
HETATM   30  C9  UNL     1       0.319  53.091 -20.666  1.00  0.00     0.061 C 
HETATM   31  C10 UNL     1      -0.452  51.940 -19.973  1.00  0.00     0.226 C 
HETATM   32  C13 UNL     1      -0.380  51.177 -21.315  1.00  0.00     0.061 C 
BRANCH  31  33
HETATM   33  N6  UNL     1       0.320  51.378 -18.853  1.00  0.00     0.084 N 
HETATM   34  C11 UNL     1       0.688  52.458 -17.936  1.00  0.00     0.309 C 
HETATM   35  C12 UNL     1      -0.299  50.282 -18.112  1.00  0.00     0.309 C 
ENDBRANCH  31  33
ENDBRANCH   8  29
TORSDOF 5
ENDMDL
MODEL 7
REMARK minimizedAffinity -8.40449715
REMARK  5 active torsions:
REMARK  status: ('A' for Active; 'I' for Inactive)
REMARK    1  A    between atoms: C2_2  and  N1_3 
REMARK    2  A    between atoms: C2_2  and  C16_26 
REMARK       I    between atoms: N1_3  and  C3_4 
REMARK       I    between atoms: C3_4  and  N2_6 
REMARK    3  A    between atoms: N2_6  and  C4_7 
REMARK    4  A    between atoms: N5_14  and  C8_15 
REMARK    5  A    between atoms: C10_17  and  N6_18 
ROOT
HETATM    1  C4  UNL     1      -3.577  49.377 -27.476  1.00  0.00     0.111 A 
HETATM    2  C5  UNL     1      -3.292  50.572 -28.122  1.00  0.00     0.080 A 
HETATM    3  C6  UNL     1      -2.483  51.456 -27.410  1.00  0.00     0.067 A 
HETATM    4  N3  UNL     1      -2.010  52.699 -27.718  1.00  0.00    -0.298 N 
HETATM    5  N4  UNL     1      -1.254  53.251 -26.760  1.00  0.00    -0.284 N 
ATOM      6  H4  UNL     1      -0.815  54.172 -26.762  1.00  0.00     0.188 HD
HETATM    7  C7  UNL     1      -1.206  52.322 -25.802  1.00  0.00     0.130 A 
HETATM    8  N5  UNL     1      -0.482  52.541 -24.683  1.00  0.00    -0.370 N 
HETATM    9  C14 UNL     1      -1.982  51.175 -26.144  1.00  0.00     0.052 A 
HETATM   10  C15 UNL     1      -2.327  49.951 -25.570  1.00  0.00     0.107 A 
HETATM   11  N7  UNL     1      -3.125  49.073 -26.238  1.00  0.00    -0.351 N 
ATOM     12  H7  UNL     1      -3.383  48.186 -25.805  1.00  0.00     0.166 HD
HETATM   13  H8  UNL     1      -2.172  53.230 -28.567  1.00  0.00     0.187 HD
HETATM   14  H9  UNL     1      -0.102  53.480 -24.611  1.00  0.00     0.161 HD
ENDROOT
BRANCH   1  15
HETATM   15  N2  UNL     1      -4.381  48.377 -28.026  1.00  0.00    -0.295 N 
HETATM   16  C3  UNL     1      -4.933  48.330 -29.278  1.00  0.00     0.322 C 
HETATM   17  N1  UNL     1      -5.712  47.209 -29.437  1.00  0.00    -0.335 N 
HETATM   18  O1  UNL     1      -4.767  49.148 -30.174  1.00  0.00    -0.247 OA
HETATM   19  H5  UNL     1      -6.064  46.764 -28.601  1.00  0.00     0.165 HD
HETATM   20  H6  UNL     1      -4.399  47.543 -27.462  1.00  0.00     0.172 HD
BRANCH  17  21
HETATM   21  C2  UNL     1      -6.437  46.946 -30.671  1.00  0.00     0.115 C 
HETATM   22  C1  UNL     1      -7.952  47.052 -30.456  1.00  0.00     0.037 C 
BRANCH  21  23
HETATM   23  C16 UNL     1      -5.978  45.610 -31.231  1.00  0.00    -0.036 A 
HETATM   24  C17 UNL     1      -4.851  45.474 -32.057  1.00  0.00     0.009 A 
HETATM   25  C18 UNL     1      -4.486  44.225 -32.569  1.00  0.00     0.001 A 
HETATM   26  C19 UNL     1      -5.250  43.097 -32.272  1.00  0.00     0.000 A 
HETATM   27  C20 UNL     1      -6.380  43.216 -31.468  1.00  0.00     0.001 A 
HETATM   28  C21 UNL     1      -6.743  44.462 -30.955  1.00  0.00     0.009 A 
ENDBRANCH  21  23
ENDBRANCH  17  21
ENDBRANCH   1  15
BRANCH   8  29
HETATM   29  C8  UNL     1      -0.383  51.734 -23.517  1.00  0.00     0.087 C 
HETATM   30  C9  UNL     1      -1.386  52.131 -22.401  1.00  0.00     0.061 C 
HETATM   31  C10 UNL     1      -0.232  51.858 -21.406  1.00  0.00     0.226 C 
HETATM   32  C13 UNL     1       0.746  52.203 -22.553  1.00  0.00     0.061 C 
BRANCH  31  33
HETATM   33  N6  UNL     1      -0.271  52.795 -20.271  1.00  0.00     0.084 N 
HETATM   34  C11 UNL     1      -0.803  52.101 -19.098  1.00  0.00     0.309 C 
HETATM   35  C12 UNL     1       0.980  53.468 -19.931  1.00  0.00     0.309 C 
ENDBRANCH  31  33
ENDBRANCH   8  29
TORSDOF 5
ENDMDL
MODEL 8
REMARK minimizedAffinity -8.15928268
REMARK  5 active torsions:
REMARK  status: ('A' for Active; 'I' for Inactive)
REMARK    1  A    between atoms: C2_2  and  N1_3 
REMARK    2  A    between atoms: C2_2  and  C16_26 
REMARK       I    between atoms: N1_3  and  C3_4 
REMARK       I    between atoms: C3_4  and  N2_6 
REMARK    3  A    between atoms: N2_6  and  C4_7 
REMARK    4  A    between atoms: N5_14  and  C8_15 
REMARK    5  A    between atoms: C10_17  and  N6_18 
ROOT
HETATM    1  C4  UNL     1      -2.087  50.129 -24.919  1.00  0.00     0.111 A 
HETATM    2  C5  UNL     1      -1.938  50.890 -26.070  1.00  0.00     0.080 A 
HETATM    3  C6  UNL     1      -2.736  50.504 -27.147  1.00  0.00     0.067 A 
HETATM    4  N3  UNL     1      -2.853  51.003 -28.411  1.00  0.00    -0.298 N 
HETATM    5  N4  UNL     1      -3.736  50.351 -29.179  1.00  0.00    -0.284 N 
ATOM      6  H4  UNL     1      -3.972  50.533 -30.155  1.00  0.00     0.188 HD
HETATM    7  C7  UNL     1      -4.238  49.409 -28.376  1.00  0.00     0.130 A 
HETATM    8  N5  UNL     1      -5.201  48.578 -28.829  1.00  0.00    -0.370 N 
HETATM    9  C14 UNL     1      -3.629  49.440 -27.086  1.00  0.00     0.052 A 
HETATM   10  C15 UNL     1      -3.707  48.728 -25.888  1.00  0.00     0.107 A 
HETATM   11  N7  UNL     1      -2.930  49.076 -24.825  1.00  0.00    -0.351 N 
ATOM     12  H7  UNL     1      -2.985  48.541 -23.958  1.00  0.00     0.166 HD
HETATM   13  H8  UNL     1      -2.352  51.786 -28.816  1.00  0.00     0.187 HD
HETATM   14  H9  UNL     1      -5.400  48.671 -29.820  1.00  0.00     0.161 HD
ENDROOT
BRANCH   1  15
HETATM   15  N2  UNL     1      -1.364  50.356 -23.747  1.00  0.00    -0.295 N 
HETATM   16  C3  UNL     1      -1.364  51.475 -22.957  1.00  0.00     0.322 C 
HETATM   17  N1  UNL     1      -0.478  51.349 -21.914  1.00  0.00    -0.335 N 
HETATM   18  O1  UNL     1      -2.058  52.472 -23.114  1.00  0.00    -0.247 OA
HETATM   19  H5  UNL     1       0.271  50.680 -22.017  1.00  0.00     0.165 HD
HETATM   20  H6  UNL     1      -0.930  49.520 -23.392  1.00  0.00     0.172 HD
BRANCH  17  21
HETATM   21  C2  UNL     1      -0.268  52.420 -20.952  1.00  0.00     0.115 C 
HETATM   22  C1  UNL     1       0.844  53.369 -21.413  1.00  0.00     0.037 C 
BRANCH  21  23
HETATM   23  C16 UNL     1      -0.036  51.805 -19.581  1.00  0.00    -0.036 A 
HETATM   24  C17 UNL     1      -0.475  50.517 -19.236  1.00  0.00     0.009 A 
HETATM   25  C18 UNL     1      -0.259  50.008 -17.952  1.00  0.00     0.001 A 
HETATM   26  C19 UNL     1       0.388  50.784 -16.992  1.00  0.00     0.000 A 
HETATM   27  C20 UNL     1       0.816  52.070 -17.310  1.00  0.00     0.001 A 
HETATM   28  C21 UNL     1       0.603  52.577 -18.593  1.00  0.00     0.009 A 
ENDBRANCH  21  23
ENDBRANCH  17  21
ENDBRANCH   1  15
BRANCH   8  29
HETATM   29  C8  UNL     1      -5.789  47.459 -28.176  1.00  0.00     0.087 C 
HETATM   30  C9  UNL     1      -6.683  46.598 -29.107  1.00  0.00     0.061 C 
HETATM   31  C10 UNL     1      -7.643  46.470 -27.898  1.00  0.00     0.226 C 
HETATM   32  C13 UNL     1      -7.088  47.826 -27.403  1.00  0.00     0.061 C 
BRANCH  31  33
HETATM   33  N6  UNL     1      -9.049  46.452 -28.331  1.00  0.00     0.084 N 
HETATM   34  C11 UNL     1      -9.657  45.184 -27.926  1.00  0.00     0.309 C 
HETATM   35  C12 UNL     1      -9.885  47.570 -27.898  1.00  0.00     0.309 C 
ENDBRANCH  31  33
ENDBRANCH   8  29
TORSDOF 5
ENDMDL
MODEL 9
REMARK minimizedAffinity -8.13909149
REMARK  5 active torsions:
REMARK  status: ('A' for Active; 'I' for Inactive)
REMARK    1  A    between atoms: C2_2  and  N1_3 
REMARK    2  A    between atoms: C2_2  and  C16_26 
REMARK       I    between atoms: N1_3  and  C3_4 
REMARK       I    between atoms: C3_4  and  N2_6 
REMARK    3  A    between atoms: N2_6  and  C4_7 
REMARK    4  A    between atoms: N5_14  and  C8_15 
REMARK    5  A    between atoms: C10_17  and  N6_18 
ROOT
HETATM    1  C4  UNL     1      -1.327  50.357 -21.162  1.00  0.00     0.111 A 
HETATM    2  C5  UNL     1      -0.921  51.646 -21.478  1.00  0.00     0.080 A 
HETATM    3  C6  UNL     1      -0.214  52.311 -20.476  1.00  0.00     0.067 A 
HETATM    4  N3  UNL     1       0.326  53.563 -20.428  1.00  0.00    -0.298 N 
HETATM    5  N4  UNL     1       0.936  53.853 -19.271  1.00  0.00    -0.284 N 
ATOM      6  H4  UNL     1       1.388  54.728 -19.004  1.00  0.00     0.188 HD
HETATM    7  C7  UNL     1       0.816  52.737 -18.546  1.00  0.00     0.130 A 
HETATM    8  N5  UNL     1       1.361  52.670 -17.314  1.00  0.00    -0.370 N 
HETATM    9  C14 UNL     1       0.079  51.735 -19.245  1.00  0.00     0.052 A 
HETATM   10  C15 UNL     1      -0.375  50.436 -19.015  1.00  0.00     0.107 A 
HETATM   11  N7  UNL     1      -1.078  49.768 -19.971  1.00  0.00    -0.351 N 
ATOM     12  H7  UNL     1      -1.417  48.823 -19.788  1.00  0.00     0.166 HD
HETATM   13  H8  UNL     1       0.308  54.273 -21.152  1.00  0.00     0.187 HD
HETATM   14  H9  UNL     1       1.745  53.549 -16.979  1.00  0.00     0.161 HD
ENDROOT
BRANCH   1  15
HETATM   15  N2  UNL     1      -2.055  49.545 -22.033  1.00  0.00    -0.295 N 
HETATM   16  C3  UNL     1      -3.349  49.702 -22.452  1.00  0.00     0.322 C 
HETATM   17  N1  UNL     1      -3.738  48.665 -23.266  1.00  0.00    -0.335 N 
HETATM   18  O1  UNL     1      -4.091  50.635 -22.175  1.00  0.00    -0.247 OA
HETATM   19  H5  UNL     1      -3.224  47.799 -23.196  1.00  0.00     0.165 HD
HETATM   20  H6  UNL     1      -1.477  48.870 -22.505  1.00  0.00     0.172 HD
BRANCH  17  21
HETATM   21  C2  UNL     1      -5.083  48.583 -23.815  1.00  0.00     0.115 C 
HETATM   22  C1  UNL     1      -5.916  47.523 -23.083  1.00  0.00     0.037 C 
BRANCH  21  23
HETATM   23  C16 UNL     1      -4.986  48.373 -25.317  1.00  0.00    -0.036 A 
HETATM   24  C17 UNL     1      -3.823  48.649 -26.054  1.00  0.00     0.009 A 
HETATM   25  C18 UNL     1      -3.794  48.463 -27.439  1.00  0.00     0.001 A 
HETATM   26  C19 UNL     1      -4.930  48.012 -28.109  1.00  0.00     0.000 A 
HETATM   27  C20 UNL     1      -6.097  47.750 -27.397  1.00  0.00     0.001 A 
HETATM   28  C21 UNL     1      -6.126  47.932 -26.014  1.00  0.00     0.009 A 
ENDBRANCH  21  23
ENDBRANCH  17  21
ENDBRANCH   1  15
BRANCH   8  29
HETATM   29  C8  UNL     1       1.263  51.625 -16.354  1.00  0.00     0.087 C 
HETATM   30  C9  UNL     1       0.450  52.018 -15.091  1.00  0.00     0.061 C 
HETATM   31  C10 UNL     1       1.510  51.225 -14.287  1.00  0.00     0.226 C 
HETATM   32  C13 UNL     1       2.508  51.540 -15.425  1.00  0.00     0.061 C 
BRANCH  31  33
HETATM   33  N6  UNL     1       1.775  51.857 -12.984  1.00  0.00     0.084 N 
HETATM   34  C11 UNL     1       0.623  51.645 -12.107  1.00  0.00     0.309 C 
HETATM   35  C12 UNL     1       3.004  51.461 -12.301  1.00  0.00     0.309 C 
ENDBRANCH  31  33
ENDBRANCH   8  29
TORSDOF 5
ENDMDL
