MODEL 1
REMARK minimizedAffinity -9.28665447
REMARK CNNscore 0.346251965
REMARK CNNaffinity 7.22519445
REMARK  6 active torsions:
REMARK  status: ('A' for Active; 'I' for Inactive)
REMARK       I    between atoms: C1_2  and  N1_3 
REMARK    1  A    between atoms: C1_2  and  C13_19 
REMARK    2  A    between atoms: N1_3  and  C2_4 
REMARK    3  A    between atoms: C2_4  and  C3_5 
REMARK    4  A    between atoms: C2_4  and  C9_13 
REMARK    5  A    between atoms: C18_26  and  N4_27 
REMARK    6  A    between atoms: N4_27  and  C19_28 
ROOT
HETATM    1  C13 UNL     1      -0.144  51.291 -20.187  1.00  0.00     0.034 A 
HETATM    2  C14 UNL     1       0.388  52.581 -20.248  1.00  0.00     0.018 A 
HETATM    3  C15 UNL     1       0.931  53.155 -19.102  1.00  0.00     0.016 A 
HETATM    4  C16 UNL     1       0.922  52.436 -17.892  1.00  0.00     0.006 A 
HETATM    5  C17 UNL     1       1.428  52.923 -16.701  1.00  0.00     0.104 A 
HETATM    6  N3  UNL     1       1.401  52.238 -15.541  1.00  0.00    -0.342 N 
ATOM      7  H3  UNL     1       1.782  52.632 -14.681  1.00  0.00     0.167 HD
HETATM    8  C18 UNL     1       0.854  51.025 -15.568  1.00  0.00     0.157 A 
HETATM    9  N5  UNL     1       0.345  50.457 -16.671  1.00  0.00    -0.332 N 
ATOM     10  H5  UNL     1      -0.056  49.520 -16.640  1.00  0.00     0.168 HD
HETATM   11  C24 UNL     1       0.377  51.152 -17.815  1.00  0.00     0.047 A 
HETATM   12  C25 UNL     1      -0.150  50.593 -18.971  1.00  0.00     0.047 A 
ENDROOT
BRANCH   1  13
HETATM   13  C1  UNL     1      -0.731  50.701 -21.418  1.00  0.00     0.252 C 
HETATM   14  O1  UNL     1      -0.781  49.484 -21.549  1.00  0.00    -0.268 OA
HETATM   15  N1  UNL     1      -1.232  51.600 -22.340  1.00  0.00    -0.345 N 
HETATM   16  H1  UNL     1      -1.562  52.476 -21.948  1.00  0.00     0.163 HD
BRANCH  15  17
HETATM   17  C2  UNL     1      -1.990  51.123 -23.505  1.00  0.00     0.159 C 
BRANCH  17  18
HETATM   18  C3  UNL     1      -1.322  51.535 -24.815  1.00  0.00    -0.030 A 
HETATM   19  C4  UNL     1      -2.027  52.204 -25.832  1.00  0.00     0.012 A 
HETATM   20  C5  UNL     1      -1.396  52.561 -27.027  1.00  0.00     0.044 A 
HETATM   21  C6  UNL     1      -0.051  52.262 -27.213  1.00  0.00     0.138 A 
HETATM   22  F1  UNL     1       0.532  52.601 -28.373  1.00  0.00    -0.204 F 
HETATM   23  C7  UNL     1       0.673  51.617 -26.215  1.00  0.00     0.073 A 
HETATM   24 CL1  UNL     1       2.339  51.241 -26.438  1.00  0.00    -0.081 Cl
HETATM   25  C8  UNL     1       0.044  51.260 -25.018  1.00  0.00     0.036 A 
ENDBRANCH  17  18
BRANCH  17  26
HETATM   26  C9  UNL     1      -3.482  51.526 -23.383  1.00  0.00     0.155 C 
HETATM   27  F2  UNL     1      -3.501  52.909 -23.414  1.00  0.00    -0.238 F 
HETATM   28  C10 UNL     1      -4.181  51.108 -22.088  1.00  0.00     0.078 C 
HETATM   29  C11 UNL     1      -5.572  50.648 -22.516  1.00  0.00     0.273 C 
HETATM   30  N2  UNL     1      -5.755  51.146 -23.877  1.00  0.00     0.086 N 
HETATM   31  C12 UNL     1      -4.422  51.047 -24.490  1.00  0.00     0.315 C 
HETATM   32  H10 UNL     1      -6.439  50.589 -24.386  1.00  0.00     0.316 HD
ENDBRANCH  17  26
ENDBRANCH  15  17
ENDBRANCH   1  13
BRANCH   8  33
HETATM   33  N4  UNL     1       0.799  50.243 -14.435  1.00  0.00    -0.259 NA
HETATM   34  H16 UNL     1      -0.179  50.245 -14.162  1.00  0.00     0.131 HD
BRANCH  33  35
HETATM   35  C19 UNL     1       1.718  50.447 -13.312  1.00  0.00     0.067 C 
HETATM   36  C20 UNL     1       1.645  49.361 -12.234  1.00  0.00     0.046 C 
HETATM   37  C21 UNL     1       2.806  48.375 -12.244  1.00  0.00     0.169 C 
HETATM   38  O2  UNL     1       4.053  49.040 -12.433  1.00  0.00    -0.391 OA
HETATM   39  C22 UNL     1       4.110  49.675 -13.708  1.00  0.00     0.169 C 
HETATM   40  C23 UNL     1       3.133  50.836 -13.751  1.00  0.00     0.046 C 
ENDBRANCH  33  35
ENDBRANCH   8  33
TORSDOF 6
ENDMDL
MODEL 2
REMARK minimizedAffinity -9.26989651
REMARK CNNscore 0.288194865
REMARK CNNaffinity 6.93404913
REMARK  6 active torsions:
REMARK  status: ('A' for Active; 'I' for Inactive)
REMARK       I    between atoms: C1_2  and  N1_3 
REMARK    1  A    between atoms: C1_2  and  C13_19 
REMARK    2  A    between atoms: N1_3  and  C2_4 
REMARK    3  A    between atoms: C2_4  and  C3_5 
REMARK    4  A    between atoms: C2_4  and  C9_13 
REMARK    5  A    between atoms: C18_26  and  N4_27 
REMARK    6  A    between atoms: N4_27  and  C19_28 
ROOT
HETATM    1  C13 UNL     1      -0.487  50.842 -20.636  1.00  0.00     0.034 A 
HETATM    2  C14 UNL     1      -0.005  52.153 -20.672  1.00  0.00     0.018 A 
HETATM    3  C15 UNL     1       0.516  52.725 -19.515  1.00  0.00     0.016 A 
HETATM    4  C16 UNL     1       0.534  51.983 -18.318  1.00  0.00     0.006 A 
HETATM    5  C17 UNL     1       1.021  52.466 -17.118  1.00  0.00     0.104 A 
HETATM    6  N3  UNL     1       1.020  51.759 -15.971  1.00  0.00    -0.342 N 
ATOM      7  H3  UNL     1       1.386  52.151 -15.104  1.00  0.00     0.167 HD
HETATM    8  C18 UNL     1       0.521  50.526 -16.022  1.00  0.00     0.157 A 
HETATM    9  N5  UNL     1       0.034  49.960 -17.136  1.00  0.00    -0.332 N 
ATOM     10  H5  UNL     1      -0.331  49.008 -17.123  1.00  0.00     0.168 HD
HETATM   11  C24 UNL     1       0.039  50.678 -18.267  1.00  0.00     0.047 A 
HETATM   12  C25 UNL     1      -0.466  50.122 -19.433  1.00  0.00     0.047 A 
ENDROOT
BRANCH   1  13
HETATM   13  C1  UNL     1      -1.051  50.253 -21.879  1.00  0.00     0.252 C 
HETATM   14  O1  UNL     1      -1.257  49.048 -21.945  1.00  0.00    -0.268 OA
HETATM   15  N1  UNL     1      -1.349  51.147 -22.889  1.00  0.00    -0.345 N 
HETATM   16  H1  UNL     1      -1.586  52.083 -22.577  1.00  0.00     0.163 HD
BRANCH  15  17
HETATM   17  C2  UNL     1      -2.072  50.697 -24.088  1.00  0.00     0.159 C 
BRANCH  17  18
HETATM   18  C3  UNL     1      -1.274  50.975 -25.359  1.00  0.00    -0.030 A 
HETATM   19  C4  UNL     1      -1.897  51.109 -26.614  1.00  0.00     0.012 A 
HETATM   20  C5  UNL     1      -1.143  51.353 -27.766  1.00  0.00     0.044 A 
HETATM   21  C6  UNL     1       0.239  51.473 -27.674  1.00  0.00     0.138 A 
HETATM   22  F1  UNL     1       0.945  51.693 -28.794  1.00  0.00    -0.204 F 
HETATM   23  C7  UNL     1       0.877  51.362 -26.442  1.00  0.00     0.073 A 
HETATM   24 CL1  UNL     1       2.588  51.509 -26.319  1.00  0.00    -0.081 Cl
HETATM   25  C8  UNL     1       0.124  51.120 -25.288  1.00  0.00     0.036 A 
ENDBRANCH  17  18
BRANCH  17  26
HETATM   26  C9  UNL     1      -3.517  51.260 -24.091  1.00  0.00     0.155 C 
HETATM   27  F2  UNL     1      -3.475  52.396 -24.879  1.00  0.00    -0.238 F 
HETATM   28  C10 UNL     1      -4.068  51.691 -22.732  1.00  0.00     0.078 C 
HETATM   29  C11 UNL     1      -5.522  51.224 -22.723  1.00  0.00     0.273 C 
HETATM   30  N2  UNL     1      -5.848  50.919 -24.114  1.00  0.00     0.086 N 
HETATM   31  C12 UNL     1      -4.608  50.360 -24.673  1.00  0.00     0.315 C 
HETATM   32  H10 UNL     1      -6.615  50.250 -24.175  1.00  0.00     0.316 HD
ENDBRANCH  17  26
ENDBRANCH  15  17
ENDBRANCH   1  13
BRANCH   8  33
HETATM   33  N4  UNL     1       0.496  49.721 -14.904  1.00  0.00    -0.259 NA
HETATM   34  H16 UNL     1       0.636  48.779 -15.255  1.00  0.00     0.131 HD
BRANCH  33  35
HETATM   35  C19 UNL     1      -0.574  49.819 -13.907  1.00  0.00     0.067 C 
HETATM   36  C20 UNL     1      -0.423  50.993 -12.935  1.00  0.00     0.046 C 
HETATM   37  C21 UNL     1      -1.360  52.163 -13.199  1.00  0.00     0.169 C 
HETATM   38  O2  UNL     1      -2.681  51.717 -13.499  1.00  0.00    -0.391 OA
HETATM   39  C22 UNL     1      -2.706  50.958 -14.705  1.00  0.00     0.169 C 
HETATM   40  C23 UNL     1      -1.974  49.643 -14.504  1.00  0.00     0.046 C 
ENDBRANCH  33  35
ENDBRANCH   8  33
TORSDOF 6
ENDMDL
MODEL 3
REMARK minimizedAffinity -8.47658443
REMARK CNNscore 0.232993796
REMARK CNNaffinity 6.98894262
REMARK  6 active torsions:
REMARK  status: ('A' for Active; 'I' for Inactive)
REMARK       I    between atoms: C1_2  and  N1_3 
REMARK    1  A    between atoms: C1_2  and  C13_19 
REMARK    2  A    between atoms: N1_3  and  C2_4 
REMARK    3  A    between atoms: C2_4  and  C3_5 
REMARK    4  A    between atoms: C2_4  and  C9_13 
REMARK    5  A    between atoms: C18_26  and  N4_27 
REMARK    6  A    between atoms: N4_27  and  C19_28 
ROOT
HETATM    1  C13 UNL     1      -0.381  52.161 -20.068  1.00  0.00     0.034 A 
HETATM    2  C14 UNL     1       0.641  53.038 -19.695  1.00  0.00     0.018 A 
HETATM    3  C15 UNL     1       1.264  53.819 -20.664  1.00  0.00     0.016 A 
HETATM    4  C16 UNL     1       0.870  53.701 -22.012  1.00  0.00     0.006 A 
HETATM    5  C17 UNL     1       1.434  54.424 -23.046  1.00  0.00     0.104 A 
HETATM    6  N3  UNL     1       1.067  54.296 -24.335  1.00  0.00    -0.342 N 
ATOM      7  H3  UNL     1       1.509  54.846 -25.072  1.00  0.00     0.167 HD
HETATM    8  C18 UNL     1       0.101  53.420 -24.605  1.00  0.00     0.157 A 
HETATM    9  N5  UNL     1      -0.517  52.677 -23.675  1.00  0.00    -0.332 N 
ATOM     10  H5  UNL     1      -1.257  52.025 -23.933  1.00  0.00     0.168 HD
HETATM   11  C24 UNL     1      -0.137  52.815 -22.398  1.00  0.00     0.047 A 
HETATM   12  C25 UNL     1      -0.753  52.053 -21.415  1.00  0.00     0.047 A 
ENDROOT
BRANCH   1  13
HETATM   13  C1  UNL     1      -1.025  51.327 -19.020  1.00  0.00     0.252 C 
HETATM   14  O1  UNL     1      -2.235  51.393 -18.844  1.00  0.00    -0.268 OA
HETATM   15  N1  UNL     1      -0.186  50.479 -18.322  1.00  0.00    -0.345 N 
HETATM   16  H1  UNL     1       0.632  50.167 -18.835  1.00  0.00     0.163 HD
BRANCH  15  17
HETATM   17  C2  UNL     1      -0.742  49.487 -17.390  1.00  0.00     0.159 C 
BRANCH  17  18
HETATM   18  C3  UNL     1      -1.680  48.515 -18.103  1.00  0.00    -0.030 A 
HETATM   19  C4  UNL     1      -1.551  48.227 -19.474  1.00  0.00     0.012 A 
HETATM   20  C5  UNL     1      -2.429  47.342 -20.106  1.00  0.00     0.044 A 
HETATM   21  C6  UNL     1      -3.439  46.729 -19.373  1.00  0.00     0.138 A 
HETATM   22  F1  UNL     1      -4.279  45.893 -20.003  1.00  0.00    -0.204 F 
HETATM   23  C7  UNL     1      -3.576  46.984 -18.011  1.00  0.00     0.073 A 
HETATM   24 CL1  UNL     1      -4.824  46.230 -17.096  1.00  0.00    -0.081 Cl
HETATM   25  C8  UNL     1      -2.697  47.868 -17.376  1.00  0.00     0.036 A 
ENDBRANCH  17  18
BRANCH  17  26
HETATM   26  C9  UNL     1      -1.354  50.190 -16.152  1.00  0.00     0.155 C 
HETATM   27  F2  UNL     1      -0.702  51.406 -16.050  1.00  0.00    -0.238 F 
HETATM   28  C10 UNL     1      -1.157  49.475 -14.814  1.00  0.00     0.078 C 
HETATM   29  C11 UNL     1      -2.485  49.634 -14.077  1.00  0.00     0.273 C 
HETATM   30  N2  UNL     1      -3.208  50.687 -14.785  1.00  0.00     0.086 N 
HETATM   31  C12 UNL     1      -2.852  50.496 -16.199  1.00  0.00     0.315 C 
HETATM   32  H10 UNL     1      -4.214  50.604 -14.643  1.00  0.00     0.316 HD
ENDBRANCH  17  26
ENDBRANCH  15  17
ENDBRANCH   1  13
BRANCH   8  33
HETATM   33  N4  UNL     1      -0.353  53.234 -25.892  1.00  0.00    -0.259 NA
HETATM   34  H16 UNL     1      -1.358  53.367 -25.837  1.00  0.00     0.131 HD
BRANCH  33  35
HETATM   35  C19 UNL     1       0.039  52.068 -26.687  1.00  0.00     0.067 C 
HETATM   36  C20 UNL     1       0.481  52.400 -28.116  1.00  0.00     0.046 C 
HETATM   37  C21 UNL     1       1.984  52.331 -28.349  1.00  0.00     0.169 C 
HETATM   38  O2  UNL     1       2.557  51.183 -27.728  1.00  0.00    -0.391 OA
HETATM   39  C22 UNL     1       2.416  51.241 -26.311  1.00  0.00     0.169 C 
HETATM   40  C23 UNL     1       0.952  51.099 -25.931  1.00  0.00     0.046 C 
ENDBRANCH  33  35
ENDBRANCH   8  33
TORSDOF 6
ENDMDL
MODEL 4
REMARK minimizedAffinity -9.2857132
REMARK CNNscore 0.232312709
REMARK CNNaffinity 6.7991395
REMARK  6 active torsions:
REMARK  status: ('A' for Active; 'I' for Inactive)
REMARK       I    between atoms: C1_2  and  N1_3 
REMARK    1  A    between atoms: C1_2  and  C13_19 
REMARK    2  A    between atoms: N1_3  and  C2_4 
REMARK    3  A    between atoms: C2_4  and  C3_5 
REMARK    4  A    between atoms: C2_4  and  C9_13 
REMARK    5  A    between atoms: C18_26  and  N4_27 
REMARK    6  A    between atoms: N4_27  and  C19_28 
ROOT
HETATM    1  C13 UNL     1      -0.492  52.249 -20.533  1.00  0.00     0.034 A 
HETATM    2  C14 UNL     1       0.419  53.294 -20.703  1.00  0.00     0.018 A 
HETATM    3  C15 UNL     1       0.887  53.597 -21.979  1.00  0.00     0.016 A 
HETATM    4  C16 UNL     1       0.451  52.834 -23.079  1.00  0.00     0.006 A 
HETATM    5  C17 UNL     1       0.865  53.051 -24.380  1.00  0.00     0.104 A 
HETATM    6  N3  UNL     1       0.459  52.308 -25.428  1.00  0.00    -0.342 N 
ATOM      7  H3  UNL     1       0.789  52.496 -26.375  1.00  0.00     0.167 HD
HETATM    8  C18 UNL     1      -0.392  51.316 -25.172  1.00  0.00     0.157 A 
HETATM    9  N5  UNL     1      -0.862  51.030 -23.949  1.00  0.00    -0.332 N 
ATOM     10  H5  UNL     1      -1.520  50.263 -23.808  1.00  0.00     0.168 HD
HETATM   11  C24 UNL     1      -0.446  51.777 -22.919  1.00  0.00     0.047 A 
HETATM   12  C25 UNL     1      -0.909  51.497 -21.641  1.00  0.00     0.047 A 
ENDROOT
BRANCH   1  13
HETATM   13  C1  UNL     1      -0.970  51.934 -19.162  1.00  0.00     0.252 C 
HETATM   14  O1  UNL     1      -2.101  52.257 -18.819  1.00  0.00    -0.268 OA
HETATM   15  N1  UNL     1      -0.087  51.239 -18.358  1.00  0.00    -0.345 N 
HETATM   16  H1  UNL     1       0.565  50.641 -18.856  1.00  0.00     0.163 HD
BRANCH  15  17
HETATM   17  C2  UNL     1      -0.521  50.723 -17.052  1.00  0.00     0.159 C 
BRANCH  17  18
HETATM   18  C3  UNL     1       0.475  51.080 -15.951  1.00  0.00    -0.030 A 
HETATM   19  C4  UNL     1       0.153  50.954 -14.587  1.00  0.00     0.012 A 
HETATM   20  C5  UNL     1       1.079  51.297 -13.597  1.00  0.00     0.044 A 
HETATM   21  C6  UNL     1       2.337  51.763 -13.961  1.00  0.00     0.138 A 
HETATM   22  F1  UNL     1       3.205  52.101 -12.994  1.00  0.00    -0.204 F 
HETATM   23  C7  UNL     1       2.686  51.880 -15.303  1.00  0.00     0.073 A 
HETATM   24 CL1  UNL     1       4.242  52.456 -15.761  1.00  0.00    -0.081 Cl
HETATM   25  C8  UNL     1       1.762  51.535 -16.295  1.00  0.00     0.036 A 
ENDBRANCH  17  18
BRANCH  17  26
HETATM   26  C9  UNL     1      -0.865  49.215 -17.152  1.00  0.00     0.155 C 
HETATM   27  F2  UNL     1       0.259  48.543 -16.706  1.00  0.00    -0.238 F 
HETATM   28  C10 UNL     1      -1.158  48.690 -18.558  1.00  0.00     0.078 C 
HETATM   29  C11 UNL     1      -2.332  47.728 -18.389  1.00  0.00     0.273 C 
HETATM   30  N2  UNL     1      -2.413  47.449 -16.958  1.00  0.00     0.086 N 
HETATM   31  C12 UNL     1      -2.040  48.715 -16.311  1.00  0.00     0.315 C 
HETATM   32  H10 UNL     1      -3.353  47.160 -16.690  1.00  0.00     0.316 HD
ENDBRANCH  17  26
ENDBRANCH  15  17
ENDBRANCH   1  13
BRANCH   8  33
HETATM   33  N4  UNL     1      -0.877  50.515 -26.183  1.00  0.00    -0.259 NA
HETATM   34  H16 UNL     1      -0.280  50.710 -26.981  1.00  0.00     0.131 HD
BRANCH  33  35
HETATM   35  C19 UNL     1      -2.303  50.473 -26.517  1.00  0.00     0.067 C 
HETATM   36  C20 UNL     1      -3.063  49.301 -25.887  1.00  0.00     0.046 C 
HETATM   37  C21 UNL     1      -3.949  49.678 -24.708  1.00  0.00     0.169 C 
HETATM   38  O2  UNL     1      -4.675  50.878 -24.963  1.00  0.00    -0.391 OA
HETATM   39  C22 UNL     1      -3.795  51.988 -25.120  1.00  0.00     0.169 C 
HETATM   40  C23 UNL     1      -2.992  51.836 -26.400  1.00  0.00     0.046 C 
ENDBRANCH  33  35
ENDBRANCH   8  33
TORSDOF 6
ENDMDL
MODEL 5
REMARK minimizedAffinity -8.57985973
REMARK CNNscore 0.216926962
REMARK CNNaffinity 6.78675699
REMARK  6 active torsions:
REMARK  status: ('A' for Active; 'I' for Inactive)
REMARK       I    between atoms: C1_2  and  N1_3 
REMARK    1  A    between atoms: C1_2  and  C13_19 
REMARK    2  A    between atoms: N1_3  and  C2_4 
REMARK    3  A    between atoms: C2_4  and  C3_5 
REMARK    4  A    between atoms: C2_4  and  C9_13 
REMARK    5  A    between atoms: C18_26  and  N4_27 
REMARK    6  A    between atoms: N4_27  and  C19_28 
ROOT
HETATM    1  C13 UNL     1      -0.885  51.803 -20.420  1.00  0.00     0.034 A 
HETATM    2  C14 UNL     1       0.159  52.668 -20.759  1.00  0.00     0.018 A 
HETATM    3  C15 UNL     1       1.081  53.046 -19.787  1.00  0.00     0.016 A 
HETATM    4  C16 UNL     1       0.940  52.566 -18.470  1.00  0.00     0.006 A 
HETATM    5  C17 UNL     1       1.797  52.890 -17.435  1.00  0.00     0.104 A 
HETATM    6  N3  UNL     1       1.649  52.444 -16.173  1.00  0.00    -0.342 N 
ATOM      7  H3  UNL     1       2.301  52.707 -15.434  1.00  0.00     0.167 HD
HETATM    8  C18 UNL     1       0.613  51.642 -15.933  1.00  0.00     0.157 A 
HETATM    9  N5  UNL     1      -0.269  51.259 -16.868  1.00  0.00    -0.332 N 
ATOM     10  H5  UNL     1      -1.043  50.637 -16.633  1.00  0.00     0.168 HD
HETATM   11  C24 UNL     1      -0.109  51.715 -18.117  1.00  0.00     0.047 A 
HETATM   12  C25 UNL     1      -1.012  51.342 -19.102  1.00  0.00     0.047 A 
ENDROOT
BRANCH   1  13
HETATM   13  C1  UNL     1      -1.866  51.423 -21.469  1.00  0.00     0.252 C 
HETATM   14  O1  UNL     1      -2.422  52.291 -22.131  1.00  0.00    -0.268 OA
HETATM   15  N1  UNL     1      -2.056  50.067 -21.656  1.00  0.00    -0.345 N 
HETATM   16  H1  UNL     1      -1.256  49.486 -21.426  1.00  0.00     0.163 HD
BRANCH  15  17
HETATM   17  C2  UNL     1      -2.866  49.579 -22.782  1.00  0.00     0.159 C 
BRANCH  17  18
HETATM   18  C3  UNL     1      -2.254  49.976 -24.124  1.00  0.00    -0.030 A 
HETATM   19  C4  UNL     1      -2.815  49.564 -25.347  1.00  0.00     0.012 A 
HETATM   20  C5  UNL     1      -2.230  49.932 -26.563  1.00  0.00     0.044 A 
HETATM   21  C6  UNL     1      -1.085  50.721 -26.568  1.00  0.00     0.138 A 
HETATM   22  F1  UNL     1      -0.533  51.050 -27.746  1.00  0.00    -0.204 F 
HETATM   23  C7  UNL     1      -0.522  51.155 -25.371  1.00  0.00     0.073 A 
HETATM   24 CL1  UNL     1       0.896  52.131 -25.369  1.00  0.00    -0.081 Cl
HETATM   25  C8  UNL     1      -1.107  50.790 -24.154  1.00  0.00     0.036 A 
ENDBRANCH  17  18
BRANCH  17  26
HETATM   26  C9  UNL     1      -4.350  49.987 -22.598  1.00  0.00     0.155 C 
HETATM   27  F2  UNL     1      -4.502  50.252 -21.249  1.00  0.00    -0.238 F 
HETATM   28  C10 UNL     1      -5.384  48.918 -22.954  1.00  0.00     0.078 C 
HETATM   29  C11 UNL     1      -6.505  49.669 -23.670  1.00  0.00     0.273 C 
HETATM   30  N2  UNL     1      -6.286  51.083 -23.377  1.00  0.00     0.086 N 
HETATM   31  C12 UNL     1      -4.823  51.234 -23.348  1.00  0.00     0.315 C 
HETATM   32  H10 UNL     1      -6.704  51.677 -24.091  1.00  0.00     0.316 HD
ENDBRANCH  17  26
ENDBRANCH  15  17
ENDBRANCH   1  13
BRANCH   8  33
HETATM   33  N4  UNL     1       0.391  51.121 -14.677  1.00  0.00    -0.259 NA
HETATM   34  H16 UNL     1       0.403  50.114 -14.805  1.00  0.00     0.131 HD
BRANCH  33  35
HETATM   35  C19 UNL     1      -0.710  51.589 -13.832  1.00  0.00     0.067 C 
HETATM   36  C20 UNL     1      -1.717  50.499 -13.450  1.00  0.00     0.046 C 
HETATM   37  C21 UNL     1      -1.603  50.002 -12.016  1.00  0.00     0.169 C 
HETATM   38  O2  UNL     1      -1.416  51.080 -11.103  1.00  0.00    -0.391 OA
HETATM   39  C22 UNL     1      -0.184  51.754 -11.348  1.00  0.00     0.169 C 
HETATM   40  C23 UNL     1      -0.250  52.484 -12.677  1.00  0.00     0.046 C 
ENDBRANCH  33  35
ENDBRANCH   8  33
TORSDOF 6
ENDMDL
MODEL 6
REMARK minimizedAffinity -9.23322296
REMARK CNNscore 0.208011031
REMARK CNNaffinity 6.93971634
REMARK  6 active torsions:
REMARK  status: ('A' for Active; 'I' for Inactive)
REMARK       I    between atoms: C1_2  and  N1_3 
REMARK    1  A    between atoms: C1_2  and  C13_19 
REMARK    2  A    between atoms: N1_3  and  C2_4 
REMARK    3  A    between atoms: C2_4  and  C3_5 
REMARK    4  A    between atoms: C2_4  and  C9_13 
REMARK    5  A    between atoms: C18_26  and  N4_27 
REMARK    6  A    between atoms: N4_27  and  C19_28 
ROOT
HETATM    1  C13 UNL     1      -0.311  52.331 -21.963  1.00  0.00     0.034 A 
HETATM    2  C14 UNL     1       0.709  53.284 -22.004  1.00  0.00     0.018 A 
HETATM    3  C15 UNL     1       1.396  53.606 -20.837  1.00  0.00     0.016 A 
HETATM    4  C16 UNL     1       1.042  52.979 -19.626  1.00  0.00     0.006 A 
HETATM    5  C17 UNL     1       1.657  53.238 -18.416  1.00  0.00     0.104 A 
HETATM    6  N3  UNL     1       1.304  52.650 -17.256  1.00  0.00    -0.342 N 
ATOM      7  H3  UNL     1       1.780  52.869 -16.381  1.00  0.00     0.167 HD
HETATM    8  C18 UNL     1       0.306  51.771 -17.304  1.00  0.00     0.157 A 
HETATM    9  N5  UNL     1      -0.349  51.442 -18.427  1.00  0.00    -0.332 N 
ATOM     10  H5  UNL     1      -1.103  50.755 -18.411  1.00  0.00     0.168 HD
HETATM   11  C24 UNL     1       0.013  52.038 -19.571  1.00  0.00     0.047 A 
HETATM   12  C25 UNL     1      -0.653  51.723 -20.747  1.00  0.00     0.047 A 
ENDROOT
BRANCH   1  13
HETATM   13  C1  UNL     1      -1.041  52.011 -23.218  1.00  0.00     0.252 C 
HETATM   14  O1  UNL     1      -1.462  52.916 -23.928  1.00  0.00    -0.268 OA
HETATM   15  N1  UNL     1      -1.160  50.668 -23.522  1.00  0.00    -0.345 N 
HETATM   16  H1  UNL     1      -0.414  50.080 -23.164  1.00  0.00     0.163 HD
BRANCH  15  17
HETATM   17  C2  UNL     1      -1.703  50.248 -24.822  1.00  0.00     0.159 C 
BRANCH  17  18
HETATM   18  C3  UNL     1      -1.158  51.106 -25.961  1.00  0.00    -0.030 A 
HETATM   19  C4  UNL     1      -1.981  51.980 -26.694  1.00  0.00     0.012 A 
HETATM   20  C5  UNL     1      -1.460  52.748 -27.740  1.00  0.00     0.044 A 
HETATM   21  C6  UNL     1      -0.109  52.656 -28.057  1.00  0.00     0.138 A 
HETATM   22  F1  UNL     1       0.367  53.392 -29.074  1.00  0.00    -0.204 F 
HETATM   23  C7  UNL     1       0.729  51.813 -27.334  1.00  0.00     0.073 A 
HETATM   24 CL1  UNL     1       2.403  51.693 -27.721  1.00  0.00    -0.081 Cl
HETATM   25  C8  UNL     1       0.210  51.045 -26.287  1.00  0.00     0.036 A 
ENDBRANCH  17  18
BRANCH  17  26
HETATM   26  C9  UNL     1      -3.250  50.159 -24.759  1.00  0.00     0.155 C 
HETATM   27  F2  UNL     1      -3.709  51.446 -24.977  1.00  0.00    -0.238 F 
HETATM   28  C10 UNL     1      -3.838  49.706 -23.422  1.00  0.00     0.078 C 
HETATM   29  C11 UNL     1      -4.987  48.770 -23.787  1.00  0.00     0.273 C 
HETATM   30  N2  UNL     1      -5.256  49.006 -25.203  1.00  0.00     0.086 N 
HETATM   31  C12 UNL     1      -3.935  49.266 -25.794  1.00  0.00     0.315 C 
HETATM   32  H10 UNL     1      -5.701  48.197 -25.634  1.00  0.00     0.316 HD
ENDBRANCH  17  26
ENDBRANCH  15  17
ENDBRANCH   1  13
BRANCH   8  33
HETATM   33  N4  UNL     1      -0.112  51.106 -16.172  1.00  0.00    -0.259 NA
HETATM   34  H16 UNL     1       0.738  50.747 -15.749  1.00  0.00     0.131 HD
BRANCH  33  35
HETATM   35  C19 UNL     1      -1.202  50.126 -16.212  1.00  0.00     0.067 C 
HETATM   36  C20 UNL     1      -2.567  50.718 -16.574  1.00  0.00     0.046 C 
HETATM   37  C21 UNL     1      -3.033  50.421 -17.993  1.00  0.00     0.169 C 
HETATM   38  O2  UNL     1      -2.782  49.064 -18.351  1.00  0.00    -0.391 OA
HETATM   39  C22 UNL     1      -1.384  48.786 -18.367  1.00  0.00     0.169 C 
HETATM   40  C23 UNL     1      -0.831  48.838 -16.954  1.00  0.00     0.046 C 
ENDBRANCH  33  35
ENDBRANCH   8  33
TORSDOF 6
ENDMDL
MODEL 7
REMARK minimizedAffinity -8.08904743
REMARK CNNscore 0.196407065
REMARK CNNaffinity 6.89609146
REMARK  6 active torsions:
REMARK  status: ('A' for Active; 'I' for Inactive)
REMARK       I    between atoms: C1_2  and  N1_3 
REMARK    1  A    between atoms: C1_2  and  C13_19 
REMARK    2  A    between atoms: N1_3  and  C2_4 
REMARK    3  A    between atoms: C2_4  and  C3_5 
REMARK    4  A    between atoms: C2_4  and  C9_13 
REMARK    5  A    between atoms: C18_26  and  N4_27 
REMARK    6  A    between atoms: N4_27  and  C19_28 
ROOT
HETATM    1  C13 UNL     1      -0.482  51.793 -18.944  1.00  0.00     0.034 A 
HETATM    2  C14 UNL     1       0.467  52.744 -18.559  1.00  0.00     0.018 A 
HETATM    3  C15 UNL     1       1.105  53.510 -19.530  1.00  0.00     0.016 A 
HETATM    4  C16 UNL     1       0.800  53.305 -20.890  1.00  0.00     0.006 A 
HETATM    5  C17 UNL     1       1.387  54.007 -21.926  1.00  0.00     0.104 A 
HETATM    6  N3  UNL     1       1.106  53.796 -23.226  1.00  0.00    -0.342 N 
ATOM      7  H3  UNL     1       1.562  54.333 -23.964  1.00  0.00     0.167 HD
HETATM    8  C18 UNL     1       0.207  52.854 -23.505  1.00  0.00     0.157 A 
HETATM    9  N5  UNL     1      -0.427  52.125 -22.575  1.00  0.00    -0.332 N 
ATOM     10  H5  UNL     1      -1.114  51.420 -22.841  1.00  0.00     0.168 HD
HETATM   11  C24 UNL     1      -0.133  52.346 -21.287  1.00  0.00     0.047 A 
HETATM   12  C25 UNL     1      -0.767  51.599 -20.303  1.00  0.00     0.047 A 
ENDROOT
BRANCH   1  13
HETATM   13  C1  UNL     1      -1.144  50.977 -17.893  1.00  0.00     0.252 C 
HETATM   14  O1  UNL     1      -2.331  51.146 -17.645  1.00  0.00    -0.268 OA
HETATM   15  N1  UNL     1      -0.352  50.026 -17.279  1.00  0.00    -0.345 N 
HETATM   16  H1  UNL     1       0.404  49.663 -17.851  1.00  0.00     0.163 HD
BRANCH  15  17
HETATM   17  C2  UNL     1      -0.947  49.049 -16.356  1.00  0.00     0.159 C 
BRANCH  17  18
HETATM   18  C3  UNL     1      -2.098  48.289 -17.011  1.00  0.00    -0.030 A 
HETATM   19  C4  UNL     1      -3.241  47.902 -16.288  1.00  0.00     0.012 A 
HETATM   20  C5  UNL     1      -4.276  47.197 -16.908  1.00  0.00     0.044 A 
HETATM   21  C6  UNL     1      -4.183  46.879 -18.259  1.00  0.00     0.138 A 
HETATM   22  F1  UNL     1      -5.183  46.189 -18.831  1.00  0.00    -0.204 F 
HETATM   23  C7  UNL     1      -3.071  47.266 -19.000  1.00  0.00     0.073 A 
HETATM   24 CL1  UNL     1      -2.947  46.876 -20.672  1.00  0.00    -0.081 Cl
HETATM   25  C8  UNL     1      -2.034  47.974 -18.381  1.00  0.00     0.036 A 
ENDBRANCH  17  18
BRANCH  17  26
HETATM   26  C9  UNL     1      -1.300  49.725 -15.006  1.00  0.00     0.155 C 
HETATM   27  F2  UNL     1      -1.043  48.777 -14.033  1.00  0.00    -0.238 F 
HETATM   28  C10 UNL     1      -2.761  50.144 -14.833  1.00  0.00     0.078 C 
HETATM   29  C11 UNL     1      -2.707  51.502 -14.137  1.00  0.00     0.273 C 
HETATM   30  N2  UNL     1      -1.348  51.629 -13.618  1.00  0.00     0.086 N 
HETATM   31  C12 UNL     1      -0.503  50.973 -14.627  1.00  0.00     0.315 C 
HETATM   32  H10 UNL     1      -1.088  52.607 -13.497  1.00  0.00     0.316 HD
ENDBRANCH  17  26
ENDBRANCH  15  17
ENDBRANCH   1  13
BRANCH   8  33
HETATM   33  N4  UNL     1      -0.159  52.581 -24.805  1.00  0.00    -0.259 NA
HETATM   34  H16 UNL     1      -0.383  51.590 -24.812  1.00  0.00     0.131 HD
BRANCH  33  35
HETATM   35  C19 UNL     1       0.665  53.000 -25.942  1.00  0.00     0.067 C 
HETATM   36  C20 UNL     1       1.208  51.843 -26.787  1.00  0.00     0.046 C 
HETATM   37  C21 UNL     1       0.504  51.645 -28.122  1.00  0.00     0.169 C 
HETATM   38  O2  UNL     1       0.266  52.889 -28.776  1.00  0.00    -0.391 OA
HETATM   39  C22 UNL     1      -0.623  53.706 -28.020  1.00  0.00     0.169 C 
HETATM   40  C23 UNL     1       0.054  54.158 -26.738  1.00  0.00     0.046 C 
ENDBRANCH  33  35
ENDBRANCH   8  33
TORSDOF 6
ENDMDL
MODEL 8
REMARK minimizedAffinity -8.34954262
REMARK CNNscore 0.173040539
REMARK CNNaffinity 5.67315292
REMARK  6 active torsions:
REMARK  status: ('A' for Active; 'I' for Inactive)
REMARK       I    between atoms: C1_2  and  N1_3 
REMARK    1  A    between atoms: C1_2  and  C13_19 
REMARK    2  A    between atoms: N1_3  and  C2_4 
REMARK    3  A    between atoms: C2_4  and  C3_5 
REMARK    4  A    between atoms: C2_4  and  C9_13 
REMARK    5  A    between atoms: C18_26  and  N4_27 
REMARK    6  A    between atoms: N4_27  and  C19_28 
ROOT
HETATM    1  C13 UNL     1      -5.024  48.040 -27.284  1.00  0.00     0.034 A 
HETATM    2  C14 UNL     1      -3.661  48.300 -27.448  1.00  0.00     0.018 A 
HETATM    3  C15 UNL     1      -2.885  48.623 -26.338  1.00  0.00     0.016 A 
HETATM    4  C16 UNL     1      -3.487  48.701 -25.067  1.00  0.00     0.006 A 
HETATM    5  C17 UNL     1      -2.804  49.023 -23.909  1.00  0.00     0.104 A 
HETATM    6  N3  UNL     1      -3.386  49.114 -22.698  1.00  0.00    -0.342 N 
ATOM      7  H3  UNL     1      -2.849  49.357 -21.865  1.00  0.00     0.167 HD
HETATM    8  C18 UNL     1      -4.694  48.873 -22.637  1.00  0.00     0.157 A 
HETATM    9  N5  UNL     1      -5.445  48.543 -23.697  1.00  0.00    -0.332 N 
ATOM     10  H5  UNL     1      -6.444  48.361 -23.595  1.00  0.00     0.168 HD
HETATM   11  C24 UNL     1      -4.851  48.460 -24.895  1.00  0.00     0.047 A 
HETATM   12  C25 UNL     1      -5.605  48.129 -26.011  1.00  0.00     0.047 A 
ENDROOT
BRANCH   1  13
HETATM   13  C1  UNL     1      -5.837  47.709 -28.483  1.00  0.00     0.252 C 
HETATM   14  O1  UNL     1      -5.619  48.279 -29.545  1.00  0.00    -0.268 OA
HETATM   15  N1  UNL     1      -6.786  46.719 -28.316  1.00  0.00    -0.345 N 
HETATM   16  H1  UNL     1      -6.565  46.030 -27.604  1.00  0.00     0.163 HD
BRANCH  15  17
HETATM   17  C2  UNL     1      -7.520  46.191 -29.475  1.00  0.00     0.159 C 
BRANCH  17  18
HETATM   18  C3  UNL     1      -6.573  45.582 -30.507  1.00  0.00    -0.030 A 
HETATM   19  C4  UNL     1      -5.522  46.322 -31.080  1.00  0.00     0.012 A 
HETATM   20  C5  UNL     1      -4.675  45.745 -32.031  1.00  0.00     0.044 A 
HETATM   21  C6  UNL     1      -4.865  44.421 -32.411  1.00  0.00     0.138 A 
HETATM   22  F1  UNL     1      -4.048  43.892 -33.336  1.00  0.00    -0.204 F 
HETATM   23  C7  UNL     1      -5.886  43.663 -31.846  1.00  0.00     0.073 A 
HETATM   24 CL1  UNL     1      -6.128  42.024 -32.312  1.00  0.00    -0.081 Cl
HETATM   25  C8  UNL     1      -6.733  44.238 -30.893  1.00  0.00     0.036 A 
ENDBRANCH  17  18
BRANCH  17  26
HETATM   26  C9  UNL     1      -8.489  47.263 -30.036  1.00  0.00     0.155 C 
HETATM   27  F2  UNL     1      -9.677  46.601 -30.286  1.00  0.00    -0.238 F 
HETATM   28  C10 UNL     1      -8.069  47.919 -31.352  1.00  0.00     0.078 C 
HETATM   29  C11 UNL     1      -8.422  49.396 -31.194  1.00  0.00     0.273 C 
HETATM   30  N2  UNL     1      -9.323  49.467 -30.046  1.00  0.00     0.086 N 
HETATM   31  C12 UNL     1      -8.825  48.440 -29.119  1.00  0.00     0.315 C 
HETATM   32  H10 UNL     1      -9.304  50.392 -29.618  1.00  0.00     0.316 HD
ENDBRANCH  17  26
ENDBRANCH  15  17
ENDBRANCH   1  13
BRANCH   8  33
HETATM   33  N4  UNL     1      -5.372  48.924 -21.438  1.00  0.00    -0.259 NA
HETATM   34  H16 UNL     1      -5.026  49.759 -20.976  1.00  0.00     0.131 HD
BRANCH  33  35
HETATM   35  C19 UNL     1      -5.460  47.760 -20.552  1.00  0.00     0.067 C 
HETATM   36  C20 UNL     1      -4.537  46.601 -20.942  1.00  0.00     0.046 C 
HETATM   37  C21 UNL     1      -3.305  46.445 -20.061  1.00  0.00     0.169 C 
HETATM   38  O2  UNL     1      -3.627  46.601 -18.681  1.00  0.00    -0.391 OA
HETATM   39  C22 UNL     1      -4.098  47.918 -18.408  1.00  0.00     0.169 C 
HETATM   40  C23 UNL     1      -5.450  48.130 -19.065  1.00  0.00     0.046 C 
ENDBRANCH  33  35
ENDBRANCH   8  33
TORSDOF 6
ENDMDL
MODEL 9
REMARK minimizedAffinity -7.96186018
REMARK CNNscore 0.144457191
REMARK CNNaffinity 5.75304222
REMARK  6 active torsions:
REMARK  status: ('A' for Active; 'I' for Inactive)
REMARK       I    between atoms: C1_2  and  N1_3 
REMARK    1  A    between atoms: C1_2  and  C13_19 
REMARK    2  A    between atoms: N1_3  and  C2_4 
REMARK    3  A    between atoms: C2_4  and  C3_5 
REMARK    4  A    between atoms: C2_4  and  C9_13 
REMARK    5  A    between atoms: C18_26  and  N4_27 
REMARK    6  A    between atoms: N4_27  and  C19_28 
ROOT
HETATM    1  C13 UNL     1      -1.181  50.882 -15.470  1.00  0.00     0.034 A 
HETATM    2  C14 UNL     1      -2.433  50.870 -14.849  1.00  0.00     0.018 A 
HETATM    3  C15 UNL     1      -2.594  51.494 -13.616  1.00  0.00     0.016 A 
HETATM    4  C16 UNL     1      -1.490  52.115 -13.001  1.00  0.00     0.006 A 
HETATM    5  C17 UNL     1      -1.547  52.752 -11.775  1.00  0.00     0.104 A 
HETATM    6  N3  UNL     1      -0.485  53.329 -11.181  1.00  0.00    -0.342 N 
ATOM      7  H3  UNL     1      -0.565  53.788 -10.274  1.00  0.00     0.167 HD
HETATM    8  C18 UNL     1       0.675  53.275 -11.833  1.00  0.00     0.157 A 
HETATM    9  N5  UNL     1       0.835  52.691 -13.029  1.00  0.00    -0.332 N 
ATOM     10  H5  UNL     1       1.745  52.683 -13.490  1.00  0.00     0.168 HD
HETATM   11  C24 UNL     1      -0.231  52.119 -13.604  1.00  0.00     0.047 A 
HETATM   12  C25 UNL     1      -0.093  51.500 -14.838  1.00  0.00     0.047 A 
ENDROOT
BRANCH   1  13
HETATM   13  C1  UNL     1      -1.027  50.199 -16.781  1.00  0.00     0.252 C 
HETATM   14  O1  UNL     1      -0.303  49.215 -16.876  1.00  0.00    -0.268 OA
HETATM   15  N1  UNL     1      -1.769  50.718 -17.824  1.00  0.00    -0.345 N 
HETATM   16  H1  UNL     1      -2.633  51.176 -17.550  1.00  0.00     0.163 HD
BRANCH  15  17
HETATM   17  C2  UNL     1      -1.829  50.015 -19.114  1.00  0.00     0.159 C 
BRANCH  17  18
HETATM   18  C3  UNL     1      -1.142  50.814 -20.219  1.00  0.00    -0.030 A 
HETATM   19  C4  UNL     1      -1.119  50.370 -21.554  1.00  0.00     0.012 A 
HETATM   20  C5  UNL     1      -0.474  51.114 -22.546  1.00  0.00     0.044 A 
HETATM   21  C6  UNL     1       0.147  52.314 -22.215  1.00  0.00     0.138 A 
HETATM   22  F1  UNL     1       0.772  53.005 -23.181  1.00  0.00    -0.204 F 
HETATM   23  C7  UNL     1       0.122  52.783 -20.906  1.00  0.00     0.073 A 
HETATM   24 CL1  UNL     1       0.889  54.267 -20.488  1.00  0.00    -0.081 Cl
HETATM   25  C8  UNL     1      -0.524  52.041 -19.912  1.00  0.00     0.036 A 
ENDBRANCH  17  18
BRANCH  17  26
HETATM   26  C9  UNL     1      -3.285  49.588 -19.431  1.00  0.00     0.155 C 
HETATM   27  F2  UNL     1      -3.862  50.667 -20.075  1.00  0.00    -0.238 F 
HETATM   28  C10 UNL     1      -4.167  49.279 -18.220  1.00  0.00     0.078 C 
HETATM   29  C11 UNL     1      -4.981  48.051 -18.622  1.00  0.00     0.273 C 
HETATM   30  N2  UNL     1      -4.844  47.941 -20.072  1.00  0.00     0.086 N 
HETATM   31  C12 UNL     1      -3.467  48.378 -20.348  1.00  0.00     0.315 C 
HETATM   32  H10 UNL     1      -4.998  46.983 -20.386  1.00  0.00     0.316 HD
ENDBRANCH  17  26
ENDBRANCH  15  17
ENDBRANCH   1  13
BRANCH   8  33
HETATM   33  N4  UNL     1       1.812  53.854 -11.312  1.00  0.00    -0.259 NA
HETATM   34  H16 UNL     1       2.290  53.102 -10.824  1.00  0.00     0.131 HD
BRANCH  33  35
HETATM   35  C19 UNL     1       1.761  55.105 -10.551  1.00  0.00     0.067 C 
HETATM   36  C20 UNL     1       1.402  54.927  -9.072  1.00  0.00     0.046 C 
HETATM   37  C21 UNL     1       2.574  55.073  -8.111  1.00  0.00     0.169 C 
HETATM   38  O2  UNL     1       3.404  56.177  -8.464  1.00  0.00    -0.391 OA
HETATM   39  C22 UNL     1       4.009  55.979  -9.739  1.00  0.00     0.169 C 
HETATM   40  C23 UNL     1       2.951  56.030 -10.827  1.00  0.00     0.046 C 
ENDBRANCH  33  35
ENDBRANCH   8  33
TORSDOF 6
ENDMDL
