MODEL 1
REMARK minimizedAffinity -8.80293751
REMARK  7 active torsions:
REMARK  status: ('A' for Active; 'I' for Inactive)
REMARK    1  A    between atoms: O1_2  and  C2_3 
REMARK    2  A    between atoms: C2_3  and  C3_4 
REMARK    3  A    between atoms: C3_4  and  N1_5 
REMARK    4  A    between atoms: C3_4  and  C17_28 
REMARK       I    between atoms: N1_5  and  C4_6 
REMARK       I    between atoms: C4_6  and  N2_8 
REMARK    5  A    between atoms: N2_8  and  C5_9 
REMARK    6  A    between atoms: C8_15  and  O3_16 
REMARK    7  A    between atoms: O3_16  and  C9_17 
ROOT
HETATM    1  C5  UNL     1       0.767  52.772 -19.552  1.00  0.00     0.110 A 
HETATM    2  C6  UNL     1       1.417  53.864 -20.118  1.00  0.00     0.080 A 
HETATM    3  C7  UNL     1       1.285  53.980 -21.501  1.00  0.00     0.067 A 
HETATM    4  N3  UNL     1       1.767  54.899 -22.397  1.00  0.00    -0.298 N 
HETATM    5  N4  UNL     1       1.412  54.659 -23.673  1.00  0.00    -0.279 N 
ATOM      6  H4  UNL     1       1.644  55.197 -24.508  1.00  0.00     0.189 HD
HETATM    7  C8  UNL     1       0.682  53.545 -23.582  1.00  0.00     0.171 A 
HETATM    8  C15 UNL     1       0.561  53.072 -22.260  1.00  0.00     0.060 A 
HETATM    9  C16 UNL     1      -0.058  52.005 -21.615  1.00  0.00     0.108 A 
HETATM   10  N5  UNL     1       0.057  51.866 -20.267  1.00  0.00    -0.351 N 
ATOM     11  H5  UNL     1      -0.391  51.080 -19.795  1.00  0.00     0.166 HD
HETATM   12  H10 UNL     1       2.341  55.712 -22.199  1.00  0.00     0.187 HD
ENDROOT
BRANCH   1  13
HETATM   13  N2  UNL     1       0.799  52.484 -18.189  1.00  0.00    -0.299 N 
HETATM   14  C4  UNL     1       0.262  51.408 -17.531  1.00  0.00     0.300 C 
HETATM   15  N1  UNL     1       0.456  51.530 -16.169  1.00  0.00    -0.233 NA
HETATM   16  O2  UNL     1      -0.317  50.461 -18.044  1.00  0.00    -0.254 OA
HETATM   17  H7  UNL     1       0.304  52.477 -15.847  1.00  0.00     0.133 HD
HETATM   18  H8  UNL     1       1.425  53.084 -17.675  1.00  0.00     0.171 HD
BRANCH  15  19
HETATM   19  C3  UNL     1      -0.117  50.539 -15.256  1.00  0.00     0.121 C 
BRANCH  19  20
HETATM   20  C2  UNL     1      -0.698  51.245 -14.011  1.00  0.00     0.191 C 
BRANCH  20  21
HETATM   21  O1  UNL     1      -0.066  52.527 -13.860  1.00  0.00    -0.394 OA
HETATM   22  C1  UNL     1       0.055  52.886 -12.490  1.00  0.00     0.201 C 
ENDBRANCH  20  21
ENDBRANCH  19  20
BRANCH  19  23
HETATM   23  C17 UNL     1       0.898  49.492 -14.827  1.00  0.00    -0.038 A 
HETATM   24  C18 UNL     1       2.033  49.876 -14.099  1.00  0.00     0.009 A 
HETATM   25  C19 UNL     1       2.992  48.932 -13.726  1.00  0.00     0.001 A 
HETATM   26  C20 UNL     1       2.825  47.593 -14.074  1.00  0.00     0.000 A 
HETATM   27  C21 UNL     1       1.701  47.196 -14.795  1.00  0.00     0.001 A 
HETATM   28  C22 UNL     1       0.743  48.140 -15.170  1.00  0.00     0.009 A 
ENDBRANCH  19  23
ENDBRANCH  15  19
ENDBRANCH   1  13
BRANCH   7  29
HETATM   29  O3  UNL     1       0.119  52.973 -24.670  1.00  0.00    -0.328 OA
BRANCH  29  30
HETATM   30  C9  UNL     1       0.866  53.073 -25.898  1.00  0.00     0.138 C 
HETATM   31  C10 UNL     1      -0.042  53.584 -27.023  1.00  0.00     0.059 C 
HETATM   32  C11 UNL     1      -1.104  52.554 -27.380  1.00  0.00     0.170 C 
HETATM   33  O4  UNL     1      -0.502  51.306 -27.720  1.00  0.00    -0.391 OA
HETATM   34  C12 UNL     1       0.219  50.747 -26.622  1.00  0.00     0.174 C 
HETATM   35  C13 UNL     1       1.384  51.652 -26.209  1.00  0.00     0.035 C 
HETATM   36  C14 UNL     1       2.464  51.674 -27.295  1.00  0.00     0.015 C 
ENDBRANCH  29  30
ENDBRANCH   7  29
TORSDOF 7
ENDMDL
MODEL 2
REMARK minimizedAffinity -8.45702934
REMARK  7 active torsions:
REMARK  status: ('A' for Active; 'I' for Inactive)
REMARK    1  A    between atoms: O1_2  and  C2_3 
REMARK    2  A    between atoms: C2_3  and  C3_4 
REMARK    3  A    between atoms: C3_4  and  N1_5 
REMARK    4  A    between atoms: C3_4  and  C17_28 
REMARK       I    between atoms: N1_5  and  C4_6 
REMARK       I    between atoms: C4_6  and  N2_8 
REMARK    5  A    between atoms: N2_8  and  C5_9 
REMARK    6  A    between atoms: C8_15  and  O3_16 
REMARK    7  A    between atoms: O3_16  and  C9_17 
ROOT
HETATM    1  C5  UNL     1       0.119  52.255 -20.198  1.00  0.00     0.110 A 
HETATM    2  C6  UNL     1       0.822  53.442 -20.377  1.00  0.00     0.080 A 
HETATM    3  C7  UNL     1       1.047  53.803 -21.705  1.00  0.00     0.067 A 
HETATM    4  N3  UNL     1       1.685  54.876 -22.270  1.00  0.00    -0.298 N 
HETATM    5  N4  UNL     1       1.689  54.864 -23.617  1.00  0.00    -0.279 N 
ATOM      6  H4  UNL     1       2.095  55.547 -24.256  1.00  0.00     0.189 HD
HETATM    7  C8  UNL     1       1.033  53.740 -23.914  1.00  0.00     0.171 A 
HETATM    8  C15 UNL     1       0.604  53.034 -22.772  1.00  0.00     0.060 A 
HETATM    9  C16 UNL     1      -0.092  51.858 -22.505  1.00  0.00     0.108 A 
HETATM   10  N5  UNL     1      -0.322  51.480 -21.220  1.00  0.00    -0.351 N 
ATOM     11  H5  UNL     1      -0.826  50.616 -21.024  1.00  0.00     0.166 HD
HETATM   12  H10 UNL     1       2.136  55.649 -21.792  1.00  0.00     0.187 HD
ENDROOT
BRANCH   1  13
HETATM   13  N2  UNL     1      -0.185  51.726 -18.945  1.00  0.00    -0.299 N 
HETATM   14  C4  UNL     1       0.470  51.919 -17.756  1.00  0.00     0.300 C 
HETATM   15  N1  UNL     1      -0.110  51.161 -16.758  1.00  0.00    -0.233 NA
HETATM   16  O2  UNL     1       1.436  52.646 -17.571  1.00  0.00    -0.254 OA
HETATM   17  H7  UNL     1      -0.360  50.235 -17.081  1.00  0.00     0.133 HD
HETATM   18  H8  UNL     1      -1.082  51.269 -18.918  1.00  0.00     0.171 HD
BRANCH  15  19
HETATM   19  C3  UNL     1       0.482  51.137 -15.419  1.00  0.00     0.121 C 
BRANCH  19  20
HETATM   20  C2  UNL     1       1.056  49.733 -15.123  1.00  0.00     0.191 C 
BRANCH  20  21
HETATM   21  O1  UNL     1       0.287  48.752 -15.837  1.00  0.00    -0.394 OA
HETATM   22  C1  UNL     1      -0.247  47.771 -14.956  1.00  0.00     0.201 C 
ENDBRANCH  20  21
ENDBRANCH  19  20
BRANCH  19  23
HETATM   23  C17 UNL     1      -0.514  51.524 -14.339  1.00  0.00    -0.038 A 
HETATM   24  C18 UNL     1      -0.080  52.231 -13.207  1.00  0.00     0.009 A 
HETATM   25  C19 UNL     1      -0.975  52.565 -12.191  1.00  0.00     0.001 A 
HETATM   26  C20 UNL     1      -2.316  52.200 -12.293  1.00  0.00     0.000 A 
HETATM   27  C21 UNL     1      -2.763  51.500 -13.412  1.00  0.00     0.001 A 
HETATM   28  C22 UNL     1      -1.868  51.164 -14.429  1.00  0.00     0.009 A 
ENDBRANCH  19  23
ENDBRANCH  15  19
ENDBRANCH   1  13
BRANCH   7  29
HETATM   29  O3  UNL     1       0.810  53.364 -25.193  1.00  0.00    -0.328 OA
BRANCH  29  30
HETATM   30  C9  UNL     1       0.627  51.953 -25.418  1.00  0.00     0.138 C 
HETATM   31  C10 UNL     1       1.866  51.368 -26.109  1.00  0.00     0.059 C 
HETATM   32  C11 UNL     1       2.004  51.902 -27.527  1.00  0.00     0.170 C 
HETATM   33  O4  UNL     1       0.817  51.648 -28.279  1.00  0.00    -0.391 OA
HETATM   34  C12 UNL     1      -0.314  52.320 -27.727  1.00  0.00     0.174 C 
HETATM   35  C13 UNL     1      -0.622  51.813 -26.314  1.00  0.00     0.035 C 
HETATM   36  C14 UNL     1      -1.124  50.366 -26.355  1.00  0.00     0.015 C 
ENDBRANCH  29  30
ENDBRANCH   7  29
TORSDOF 7
ENDMDL
MODEL 3
REMARK minimizedAffinity -8.41949463
REMARK  7 active torsions:
REMARK  status: ('A' for Active; 'I' for Inactive)
REMARK    1  A    between atoms: O1_2  and  C2_3 
REMARK    2  A    between atoms: C2_3  and  C3_4 
REMARK    3  A    between atoms: C3_4  and  N1_5 
REMARK    4  A    between atoms: C3_4  and  C17_28 
REMARK       I    between atoms: N1_5  and  C4_6 
REMARK       I    between atoms: C4_6  and  N2_8 
REMARK    5  A    between atoms: N2_8  and  C5_9 
REMARK    6  A    between atoms: C8_15  and  O3_16 
REMARK    7  A    between atoms: O3_16  and  C9_17 
ROOT
HETATM    1  C5  UNL     1      -3.485  49.068 -25.833  1.00  0.00     0.110 A 
HETATM    2  C6  UNL     1      -4.645  48.522 -25.293  1.00  0.00     0.080 A 
HETATM    3  C7  UNL     1      -5.562  48.039 -26.226  1.00  0.00     0.067 A 
HETATM    4  N3  UNL     1      -6.788  47.443 -26.086  1.00  0.00    -0.298 N 
HETATM    5  N4  UNL     1      -7.373  47.113 -27.253  1.00  0.00    -0.279 N 
ATOM      6  H4  UNL     1      -8.276  46.663 -27.405  1.00  0.00     0.189 HD
HETATM    7  C8  UNL     1      -6.486  47.519 -28.164  1.00  0.00     0.171 A 
HETATM    8  C15 UNL     1      -5.337  48.100 -27.594  1.00  0.00     0.060 A 
HETATM    9  C16 UNL     1      -4.149  48.665 -28.051  1.00  0.00     0.108 A 
HETATM   10  N5  UNL     1      -3.239  49.147 -27.164  1.00  0.00    -0.351 N 
ATOM     11  H5  UNL     1      -2.373  49.567 -27.498  1.00  0.00     0.166 HD
HETATM   12  H10 UNL     1      -7.278  47.233 -25.223  1.00  0.00     0.187 HD
ENDROOT
BRANCH   1  13
HETATM   13  N2  UNL     1      -2.464  49.615 -25.058  1.00  0.00    -0.299 N 
HETATM   14  C4  UNL     1      -2.091  50.929 -24.943  1.00  0.00     0.300 C 
HETATM   15  N1  UNL     1      -0.985  51.046 -24.123  1.00  0.00    -0.233 NA
HETATM   16  O2  UNL     1      -2.632  51.885 -25.479  1.00  0.00    -0.254 OA
HETATM   17  H7  UNL     1      -0.306  50.316 -24.295  1.00  0.00     0.133 HD
HETATM   18  H8  UNL     1      -2.068  48.956 -24.407  1.00  0.00     0.171 HD
BRANCH  15  19
HETATM   19  C3  UNL     1      -0.353  52.352 -23.928  1.00  0.00     0.121 C 
BRANCH  19  20
HETATM   20  C2  UNL     1       0.854  52.499 -24.881  1.00  0.00     0.191 C 
BRANCH  20  21
HETATM   21  O1  UNL     1       0.673  53.674 -25.689  1.00  0.00    -0.394 OA
HETATM   22  C1  UNL     1       0.192  53.342 -26.985  1.00  0.00     0.201 C 
ENDBRANCH  20  21
ENDBRANCH  19  20
BRANCH  19  23
HETATM   23  C17 UNL     1       0.096  52.570 -22.493  1.00  0.00    -0.038 A 
HETATM   24  C18 UNL     1      -0.446  51.784 -21.464  1.00  0.00     0.009 A 
HETATM   25  C19 UNL     1      -0.069  51.993 -20.136  1.00  0.00     0.001 A 
HETATM   26  C20 UNL     1       0.854  52.988 -19.821  1.00  0.00     0.000 A 
HETATM   27  C21 UNL     1       1.403  53.774 -20.832  1.00  0.00     0.001 A 
HETATM   28  C22 UNL     1       1.026  53.567 -22.160  1.00  0.00     0.009 A 
ENDBRANCH  19  23
ENDBRANCH  15  19
ENDBRANCH   1  13
BRANCH   7  29
HETATM   29  O3  UNL     1      -6.702  47.352 -29.489  1.00  0.00    -0.328 OA
BRANCH  29  30
HETATM   30  C9  UNL     1      -8.048  47.018 -29.876  1.00  0.00     0.138 C 
HETATM   31  C10 UNL     1      -8.042  46.313 -31.238  1.00  0.00     0.059 C 
HETATM   32  C11 UNL     1      -7.619  47.268 -32.346  1.00  0.00     0.170 C 
HETATM   33  O4  UNL     1      -8.454  48.425 -32.360  1.00  0.00    -0.391 OA
HETATM   34  C12 UNL     1      -8.345  49.173 -31.150  1.00  0.00     0.174 C 
HETATM   35  C13 UNL     1      -8.823  48.352 -29.948  1.00  0.00     0.035 C 
HETATM   36  C14 UNL     1     -10.336  48.118 -30.020  1.00  0.00     0.015 C 
ENDBRANCH  29  30
ENDBRANCH   7  29
TORSDOF 7
ENDMDL
MODEL 4
REMARK minimizedAffinity -8.2638464
REMARK  7 active torsions:
REMARK  status: ('A' for Active; 'I' for Inactive)
REMARK    1  A    between atoms: O1_2  and  C2_3 
REMARK    2  A    between atoms: C2_3  and  C3_4 
REMARK    3  A    between atoms: C3_4  and  N1_5 
REMARK    4  A    between atoms: C3_4  and  C17_28 
REMARK       I    between atoms: N1_5  and  C4_6 
REMARK       I    between atoms: C4_6  and  N2_8 
REMARK    5  A    between atoms: N2_8  and  C5_9 
REMARK    6  A    between atoms: C8_15  and  O3_16 
REMARK    7  A    between atoms: O3_16  and  C9_17 
ROOT
HETATM    1  C5  UNL     1      -0.791  49.932 -20.834  1.00  0.00     0.110 A 
HETATM    2  C6  UNL     1      -1.622  49.204 -21.679  1.00  0.00     0.080 A 
HETATM    3  C7  UNL     1      -1.839  49.774 -22.932  1.00  0.00     0.067 A 
HETATM    4  N3  UNL     1      -2.578  49.366 -24.013  1.00  0.00    -0.298 N 
HETATM    5  N4  UNL     1      -2.532  50.212 -25.059  1.00  0.00    -0.279 N 
ATOM      6  H4  UNL     1      -2.991  50.125 -25.965  1.00  0.00     0.189 HD
HETATM    7  C8  UNL     1      -1.738  51.193 -24.623  1.00  0.00     0.171 A 
HETATM    8  C15 UNL     1      -1.271  50.982 -23.310  1.00  0.00     0.060 A 
HETATM    9  C16 UNL     1      -0.452  51.649 -22.403  1.00  0.00     0.108 A 
HETATM   10  N5  UNL     1      -0.226  51.117 -21.172  1.00  0.00    -0.351 N 
ATOM     11  H5  UNL     1       0.368  51.608 -20.505  1.00  0.00     0.166 HD
HETATM   12  H10 UNL     1      -3.133  48.521 -24.098  1.00  0.00     0.187 HD
ENDROOT
BRANCH   1  13
HETATM   13  N2  UNL     1      -0.473  49.528 -19.538  1.00  0.00    -0.299 N 
HETATM   14  C4  UNL     1      -0.611  50.230 -18.368  1.00  0.00     0.300 C 
HETATM   15  N1  UNL     1      -0.116  49.498 -17.307  1.00  0.00    -0.233 NA
HETATM   16  O2  UNL     1      -1.093  51.347 -18.246  1.00  0.00    -0.254 OA
HETATM   17  H7  UNL     1       0.747  49.024 -17.542  1.00  0.00     0.133 HD
HETATM   18  H8  UNL     1      -0.254  48.547 -19.475  1.00  0.00     0.171 HD
BRANCH  15  19
HETATM   19  C3  UNL     1      -0.073  50.088 -15.967  1.00  0.00     0.121 C 
BRANCH  19  20
HETATM   20  C2  UNL     1      -1.289  51.019 -15.764  1.00  0.00     0.191 C 
BRANCH  20  21
HETATM   21  O1  UNL     1      -1.607  51.077 -14.364  1.00  0.00    -0.394 OA
HETATM   22  C1  UNL     1      -2.954  51.485 -14.156  1.00  0.00     0.201 C 
ENDBRANCH  20  21
ENDBRANCH  19  20
BRANCH  19  23
HETATM   23  C17 UNL     1       1.212  50.857 -15.714  1.00  0.00    -0.038 A 
HETATM   24  C18 UNL     1       1.576  51.911 -16.565  1.00  0.00     0.009 A 
HETATM   25  C19 UNL     1       2.770  52.606 -16.366  1.00  0.00     0.001 A 
HETATM   26  C20 UNL     1       3.613  52.258 -15.313  1.00  0.00     0.000 A 
HETATM   27  C21 UNL     1       3.265  51.216 -14.458  1.00  0.00     0.001 A 
HETATM   28  C22 UNL     1       2.071  50.518 -14.656  1.00  0.00     0.009 A 
ENDBRANCH  19  23
ENDBRANCH  15  19
ENDBRANCH   1  13
BRANCH   7  29
HETATM   29  O3  UNL     1      -1.426  52.254 -25.401  1.00  0.00    -0.328 OA
BRANCH  29  30
HETATM   30  C9  UNL     1      -0.022  52.532 -25.562  1.00  0.00     0.138 C 
HETATM   31  C10 UNL     1       0.168  53.889 -26.251  1.00  0.00     0.059 C 
HETATM   32  C11 UNL     1      -0.315  53.842 -27.694  1.00  0.00     0.170 C 
HETATM   33  O4  UNL     1       0.339  52.796 -28.411  1.00  0.00    -0.391 OA
HETATM   34  C12 UNL     1       0.039  51.511 -27.866  1.00  0.00     0.174 C 
HETATM   35  C13 UNL     1       0.551  51.389 -26.427  1.00  0.00     0.035 C 
HETATM   36  C14 UNL     1       2.083  51.376 -26.397  1.00  0.00     0.015 C 
ENDBRANCH  29  30
ENDBRANCH   7  29
TORSDOF 7
ENDMDL
MODEL 5
REMARK minimizedAffinity -8.25131702
REMARK  7 active torsions:
REMARK  status: ('A' for Active; 'I' for Inactive)
REMARK    1  A    between atoms: O1_2  and  C2_3 
REMARK    2  A    between atoms: C2_3  and  C3_4 
REMARK    3  A    between atoms: C3_4  and  N1_5 
REMARK    4  A    between atoms: C3_4  and  C17_28 
REMARK       I    between atoms: N1_5  and  C4_6 
REMARK       I    between atoms: C4_6  and  N2_8 
REMARK    5  A    between atoms: N2_8  and  C5_9 
REMARK    6  A    between atoms: C8_15  and  O3_16 
REMARK    7  A    between atoms: O3_16  and  C9_17 
ROOT
HETATM    1  C5  UNL     1       0.217  52.599 -20.253  1.00  0.00     0.110 A 
HETATM    2  C6  UNL     1       1.263  53.192 -19.553  1.00  0.00     0.080 A 
HETATM    3  C7  UNL     1       1.371  52.813 -18.216  1.00  0.00     0.067 A 
HETATM    4  N3  UNL     1       2.251  53.170 -17.227  1.00  0.00    -0.298 N 
HETATM    5  N4  UNL     1       2.016  52.573 -16.043  1.00  0.00    -0.279 N 
ATOM      6  H4  UNL     1       2.531  52.675 -15.169  1.00  0.00     0.189 HD
HETATM    7  C8  UNL     1       0.947  51.813 -16.291  1.00  0.00     0.171 A 
HETATM    8  C15 UNL     1       0.497  51.914 -17.623  1.00  0.00     0.060 A 
HETATM    9  C16 UNL     1      -0.526  51.368 -18.394  1.00  0.00     0.108 A 
HETATM   10  N5  UNL     1      -0.656  51.722 -19.700  1.00  0.00    -0.351 N 
ATOM     11  H5  UNL     1      -1.409  51.328 -20.263  1.00  0.00     0.166 HD
HETATM   12  H10 UNL     1       3.031  53.814 -17.298  1.00  0.00     0.187 HD
ENDROOT
BRANCH   1  13
HETATM   13  N2  UNL     1      -0.057  52.868 -21.593  1.00  0.00    -0.299 N 
HETATM   14  C4  UNL     1      -0.576  52.027 -22.543  1.00  0.00     0.300 C 
HETATM   15  N1  UNL     1      -0.630  52.660 -23.769  1.00  0.00    -0.233 NA
HETATM   16  O2  UNL     1      -0.945  50.875 -22.366  1.00  0.00    -0.254 OA
HETATM   17  H7  UNL     1       0.198  53.213 -23.948  1.00  0.00     0.133 HD
HETATM   18  H8  UNL     1       0.012  53.847 -21.819  1.00  0.00     0.171 HD
BRANCH  15  19
HETATM   19  C3  UNL     1      -1.066  51.922 -24.956  1.00  0.00     0.121 C 
BRANCH  19  20
HETATM   20  C2  UNL     1      -1.564  50.517 -24.548  1.00  0.00     0.191 C 
BRANCH  20  21
HETATM   21  O1  UNL     1      -2.739  50.196 -25.310  1.00  0.00    -0.394 OA
HETATM   22  C1  UNL     1      -3.793  51.115 -25.048  1.00  0.00     0.201 C 
ENDBRANCH  20  21
ENDBRANCH  19  20
BRANCH  19  23
HETATM   23  C17 UNL     1       0.034  51.795 -25.996  1.00  0.00    -0.038 A 
HETATM   24  C18 UNL     1       1.371  51.669 -25.588  1.00  0.00     0.009 A 
HETATM   25  C19 UNL     1       2.397  51.585 -26.530  1.00  0.00     0.001 A 
HETATM   26  C20 UNL     1       2.100  51.624 -27.891  1.00  0.00     0.000 A 
HETATM   27  C21 UNL     1       0.778  51.747 -28.312  1.00  0.00     0.001 A 
HETATM   28  C22 UNL     1      -0.250  51.832 -27.370  1.00  0.00     0.009 A 
ENDBRANCH  19  23
ENDBRANCH  15  19
ENDBRANCH   1  13
BRANCH   7  29
HETATM   29  O3  UNL     1       0.395  51.029 -15.338  1.00  0.00    -0.328 OA
BRANCH  29  30
HETATM   30  C9  UNL     1       0.771  51.323 -13.979  1.00  0.00     0.138 C 
HETATM   31  C10 UNL     1       0.803  50.031 -13.153  1.00  0.00     0.059 C 
HETATM   32  C11 UNL     1      -0.596  49.458 -12.980  1.00  0.00     0.170 C 
HETATM   33  O4  UNL     1      -1.470  50.427 -12.401  1.00  0.00    -0.391 OA
HETATM   34  C12 UNL     1      -1.627  51.569 -13.242  1.00  0.00     0.174 C 
HETATM   35  C13 UNL     1      -0.294  52.300 -13.435  1.00  0.00     0.035 C 
HETATM   36  C14 UNL     1       0.161  52.952 -12.125  1.00  0.00     0.015 C 
ENDBRANCH  29  30
ENDBRANCH   7  29
TORSDOF 7
ENDMDL
MODEL 6
REMARK minimizedAffinity -8.23491478
REMARK  7 active torsions:
REMARK  status: ('A' for Active; 'I' for Inactive)
REMARK    1  A    between atoms: O1_2  and  C2_3 
REMARK    2  A    between atoms: C2_3  and  C3_4 
REMARK    3  A    between atoms: C3_4  and  N1_5 
REMARK    4  A    between atoms: C3_4  and  C17_28 
REMARK       I    between atoms: N1_5  and  C4_6 
REMARK       I    between atoms: C4_6  and  N2_8 
REMARK    5  A    between atoms: N2_8  and  C5_9 
REMARK    6  A    between atoms: C8_15  and  O3_16 
REMARK    7  A    between atoms: O3_16  and  C9_17 
ROOT
HETATM    1  C5  UNL     1       0.588  52.718 -19.209  1.00  0.00     0.110 A 
HETATM    2  C6  UNL     1      -0.549  51.997 -19.559  1.00  0.00     0.080 A 
HETATM    3  C7  UNL     1      -0.751  51.837 -20.929  1.00  0.00     0.067 A 
HETATM    4  N3  UNL     1      -1.731  51.202 -21.646  1.00  0.00    -0.298 N 
HETATM    5  N4  UNL     1      -1.567  51.272 -22.981  1.00  0.00    -0.279 N 
ATOM      6  H4  UNL     1      -2.157  50.880 -23.714  1.00  0.00     0.189 HD
HETATM    7  C8  UNL     1      -0.443  51.981 -23.113  1.00  0.00     0.171 A 
HETATM    8  C15 UNL     1       0.117  52.361 -21.877  1.00  0.00     0.060 A 
HETATM    9  C16 UNL     1       1.232  53.073 -21.441  1.00  0.00     0.108 A 
HETATM   10  N5  UNL     1       1.450  53.247 -20.111  1.00  0.00    -0.351 N 
ATOM     11  H5  UNL     1       2.263  53.775 -19.792  1.00  0.00     0.166 HD
HETATM   12  H10 UNL     1      -2.536  50.703 -21.284  1.00  0.00     0.187 HD
ENDROOT
BRANCH   1  13
HETATM   13  N2  UNL     1       0.944  52.994 -17.890  1.00  0.00    -0.299 N 
HETATM   14  C4  UNL     1       1.077  52.121 -16.842  1.00  0.00     0.300 C 
HETATM   15  N1  UNL     1       1.379  52.805 -15.681  1.00  0.00    -0.233 NA
HETATM   16  O2  UNL     1       0.951  50.906 -16.891  1.00  0.00    -0.254 OA
HETATM   17  H7  UNL     1       0.843  53.659 -15.593  1.00  0.00     0.133 HD
HETATM   18  H8  UNL     1       1.275  53.937 -17.761  1.00  0.00     0.171 HD
BRANCH  15  19
HETATM   19  C3  UNL     1       1.477  52.083 -14.410  1.00  0.00     0.121 C 
BRANCH  19  20
HETATM   20  C2  UNL     1       1.810  50.598 -14.674  1.00  0.00     0.191 C 
BRANCH  20  21
HETATM   21  O1  UNL     1       2.352  50.018 -13.476  1.00  0.00    -0.394 OA
HETATM   22  C1  UNL     1       3.771  49.945 -13.532  1.00  0.00     0.201 C 
ENDBRANCH  20  21
ENDBRANCH  19  20
BRANCH  19  23
HETATM   23  C17 UNL     1       0.205  52.187 -13.586  1.00  0.00    -0.038 A 
HETATM   24  C18 UNL     1       0.210  52.902 -12.379  1.00  0.00     0.009 A 
HETATM   25  C19 UNL     1      -0.941  52.980 -11.594  1.00  0.00     0.001 A 
HETATM   26  C20 UNL     1      -2.111  52.345 -12.005  1.00  0.00     0.000 A 
HETATM   27  C21 UNL     1      -2.132  51.633 -13.202  1.00  0.00     0.001 A 
HETATM   28  C22 UNL     1      -0.981  51.553 -13.989  1.00  0.00     0.009 A 
ENDBRANCH  19  23
ENDBRANCH  15  19
ENDBRANCH   1  13
BRANCH   7  29
HETATM   29  O3  UNL     1       0.079  52.266 -24.327  1.00  0.00    -0.328 OA
BRANCH  29  30
HETATM   30  C9  UNL     1      -0.548  51.625 -25.454  1.00  0.00     0.138 C 
HETATM   31  C10 UNL     1       0.503  50.874 -26.281  1.00  0.00     0.059 C 
HETATM   32  C11 UNL     1       1.461  51.845 -26.958  1.00  0.00     0.170 C 
HETATM   33  O4  UNL     1       0.744  52.787 -27.755  1.00  0.00    -0.391 OA
HETATM   34  C12 UNL     1      -0.125  53.597 -26.965  1.00  0.00     0.174 C 
HETATM   35  C13 UNL     1      -1.204  52.749 -26.284  1.00  0.00     0.035 C 
HETATM   36  C14 UNL     1      -2.182  52.184 -27.320  1.00  0.00     0.015 C 
ENDBRANCH  29  30
ENDBRANCH   7  29
TORSDOF 7
ENDMDL
MODEL 7
REMARK minimizedAffinity -8.23134232
REMARK  7 active torsions:
REMARK  status: ('A' for Active; 'I' for Inactive)
REMARK    1  A    between atoms: O1_2  and  C2_3 
REMARK    2  A    between atoms: C2_3  and  C3_4 
REMARK    3  A    between atoms: C3_4  and  N1_5 
REMARK    4  A    between atoms: C3_4  and  C17_28 
REMARK       I    between atoms: N1_5  and  C4_6 
REMARK       I    between atoms: C4_6  and  N2_8 
REMARK    5  A    between atoms: N2_8  and  C5_9 
REMARK    6  A    between atoms: C8_15  and  O3_16 
REMARK    7  A    between atoms: O3_16  and  C9_17 
ROOT
HETATM    1  C5  UNL     1      -3.368  48.628 -25.036  1.00  0.00     0.110 A 
HETATM    2  C6  UNL     1      -4.730  48.418 -24.843  1.00  0.00     0.080 A 
HETATM    3  C7  UNL     1      -5.459  48.154 -26.002  1.00  0.00     0.067 A 
HETATM    4  N3  UNL     1      -6.789  47.899 -26.213  1.00  0.00    -0.298 N 
HETATM    5  N4  UNL     1      -7.108  47.689 -27.504  1.00  0.00    -0.279 N 
ATOM      6  H4  UNL     1      -8.022  47.481 -27.906  1.00  0.00     0.189 HD
HETATM    7  C8  UNL     1      -5.938  47.820 -28.133  1.00  0.00     0.171 A 
HETATM    8  C15 UNL     1      -4.871  48.107 -27.258  1.00  0.00     0.060 A 
HETATM    9  C16 UNL     1      -3.501  48.331 -27.364  1.00  0.00     0.108 A 
HETATM   10  N5  UNL     1      -2.767  48.594 -26.251  1.00  0.00    -0.351 N 
ATOM     11  H5  UNL     1      -1.765  48.765 -26.329  1.00  0.00     0.166 HD
HETATM   12  H10 UNL     1      -7.527  47.853 -25.519  1.00  0.00     0.187 HD
ENDROOT
BRANCH   1  13
HETATM   13  N2  UNL     1      -2.484  48.921 -23.999  1.00  0.00    -0.299 N 
HETATM   14  C4  UNL     1      -2.702  49.686 -22.883  1.00  0.00     0.300 C 
HETATM   15  N1  UNL     1      -1.546  49.785 -22.134  1.00  0.00    -0.233 NA
HETATM   16  O2  UNL     1      -3.754  50.222 -22.567  1.00  0.00    -0.254 OA
HETATM   17  H7  UNL     1      -0.727  49.916 -22.714  1.00  0.00     0.133 HD
HETATM   18  H8  UNL     1      -1.641  48.371 -24.035  1.00  0.00     0.171 HD
BRANCH  15  19
HETATM   19  C3  UNL     1      -1.518  50.632 -20.940  1.00  0.00     0.121 C 
BRANCH  19  20
HETATM   20  C2  UNL     1      -2.909  51.263 -20.709  1.00  0.00     0.191 C 
BRANCH  20  21
HETATM   21  O1  UNL     1      -3.091  51.497 -19.303  1.00  0.00    -0.394 OA
HETATM   22  C1  UNL     1      -3.317  50.281 -18.601  1.00  0.00     0.201 C 
ENDBRANCH  20  21
ENDBRANCH  19  20
BRANCH  19  23
HETATM   23  C17 UNL     1      -0.467  51.726 -21.031  1.00  0.00    -0.038 A 
HETATM   24  C18 UNL     1       0.152  52.201 -19.865  1.00  0.00     0.009 A 
HETATM   25  C19 UNL     1       1.096  53.227 -19.929  1.00  0.00     0.001 A 
HETATM   26  C20 UNL     1       1.434  53.790 -21.158  1.00  0.00     0.000 A 
HETATM   27  C21 UNL     1       0.830  53.327 -22.325  1.00  0.00     0.001 A 
HETATM   28  C22 UNL     1      -0.115  52.301 -22.263  1.00  0.00     0.009 A 
ENDBRANCH  19  23
ENDBRANCH  15  19
ENDBRANCH   1  13
BRANCH   7  29
HETATM   29  O3  UNL     1      -5.829  47.668 -29.472  1.00  0.00    -0.328 OA
BRANCH  29  30
HETATM   30  C9  UNL     1      -7.051  47.381 -30.179  1.00  0.00     0.138 C 
HETATM   31  C10 UNL     1      -7.091  45.899 -30.574  1.00  0.00     0.059 C 
HETATM   32  C11 UNL     1      -6.034  45.583 -31.622  1.00  0.00     0.170 C 
HETATM   33  O4  UNL     1      -6.183  46.432 -32.760  1.00  0.00    -0.391 OA
HETATM   34  C12 UNL     1      -5.991  47.806 -32.427  1.00  0.00     0.174 C 
HETATM   35  C13 UNL     1      -7.052  48.285 -31.430  1.00  0.00     0.035 C 
HETATM   36  C14 UNL     1      -8.434  48.328 -32.090  1.00  0.00     0.015 C 
ENDBRANCH  29  30
ENDBRANCH   7  29
TORSDOF 7
ENDMDL
MODEL 8
REMARK minimizedAffinity -8.22899437
REMARK  7 active torsions:
REMARK  status: ('A' for Active; 'I' for Inactive)
REMARK    1  A    between atoms: O1_2  and  C2_3 
REMARK    2  A    between atoms: C2_3  and  C3_4 
REMARK    3  A    between atoms: C3_4  and  N1_5 
REMARK    4  A    between atoms: C3_4  and  C17_28 
REMARK       I    between atoms: N1_5  and  C4_6 
REMARK       I    between atoms: C4_6  and  N2_8 
REMARK    5  A    between atoms: N2_8  and  C5_9 
REMARK    6  A    between atoms: C8_15  and  O3_16 
REMARK    7  A    between atoms: O3_16  and  C9_17 
ROOT
HETATM    1  C5  UNL     1      -4.242  48.956 -26.051  1.00  0.00     0.110 A 
HETATM    2  C6  UNL     1      -3.712  48.448 -24.870  1.00  0.00     0.080 A 
HETATM    3  C7  UNL     1      -2.830  49.298 -24.204  1.00  0.00     0.067 A 
HETATM    4  N3  UNL     1      -2.123  49.159 -23.038  1.00  0.00    -0.298 N 
HETATM    5  N4  UNL     1      -1.365  50.227 -22.725  1.00  0.00    -0.279 N 
ATOM      6  H4  UNL     1      -0.760  50.360 -21.915  1.00  0.00     0.189 HD
HETATM    7  C8  UNL     1      -1.599  51.072 -23.733  1.00  0.00     0.171 A 
HETATM    8  C15 UNL     1      -2.501  50.558 -24.684  1.00  0.00     0.060 A 
HETATM    9  C16 UNL     1      -3.076  50.989 -25.877  1.00  0.00     0.108 A 
HETATM   10  N5  UNL     1      -3.937  50.179 -26.549  1.00  0.00    -0.351 N 
ATOM     11  H5  UNL     1      -4.353  50.492 -27.426  1.00  0.00     0.166 HD
HETATM   12  H10 UNL     1      -2.116  48.361 -22.411  1.00  0.00     0.187 HD
ENDROOT
BRANCH   1  13
HETATM   13  N2  UNL     1      -5.127  48.244 -26.861  1.00  0.00    -0.299 N 
HETATM   14  C4  UNL     1      -5.059  48.028 -28.213  1.00  0.00     0.300 C 
HETATM   15  N1  UNL     1      -6.170  47.329 -28.644  1.00  0.00    -0.233 NA
HETATM   16  O2  UNL     1      -4.163  48.390 -28.960  1.00  0.00    -0.254 OA
HETATM   17  H7  UNL     1      -7.020  47.656 -28.202  1.00  0.00     0.133 HD
HETATM   18  H8  UNL     1      -5.806  47.720 -26.334  1.00  0.00     0.171 HD
BRANCH  15  19
HETATM   19  C3  UNL     1      -6.359  47.063 -30.072  1.00  0.00     0.121 C 
BRANCH  19  20
HETATM   20  C2  UNL     1      -5.725  48.198 -30.906  1.00  0.00     0.191 C 
BRANCH  20  21
HETATM   21  O1  UNL     1      -4.629  47.664 -31.668  1.00  0.00    -0.394 OA
HETATM   22  C1  UNL     1      -4.982  46.435 -32.290  1.00  0.00     0.201 C 
ENDBRANCH  20  21
ENDBRANCH  19  20
BRANCH  19  23
HETATM   23  C17 UNL     1      -7.825  46.910 -30.443  1.00  0.00    -0.038 A 
HETATM   24  C18 UNL     1      -8.295  45.685 -30.940  1.00  0.00     0.009 A 
HETATM   25  C19 UNL     1      -9.631  45.537 -31.317  1.00  0.00     0.001 A 
HETATM   26  C20 UNL     1     -10.513  46.610 -31.198  1.00  0.00     0.000 A 
HETATM   27  C21 UNL     1     -10.061  47.831 -30.703  1.00  0.00     0.001 A 
HETATM   28  C22 UNL     1      -8.725  47.981 -30.327  1.00  0.00     0.009 A 
ENDBRANCH  19  23
ENDBRANCH  15  19
ENDBRANCH   1  13
BRANCH   7  29
HETATM   29  O3  UNL     1      -1.020  52.293 -23.785  1.00  0.00    -0.328 OA
BRANCH  29  30
HETATM   30  C9  UNL     1       0.375  52.320 -24.140  1.00  0.00     0.138 C 
HETATM   31  C10 UNL     1       0.952  53.719 -23.893  1.00  0.00     0.059 C 
HETATM   32  C11 UNL     1       0.358  54.734 -24.860  1.00  0.00     0.170 C 
HETATM   33  O4  UNL     1       0.554  54.318 -26.211  1.00  0.00    -0.391 OA
HETATM   34  C12 UNL     1      -0.113  53.088 -26.490  1.00  0.00     0.174 C 
HETATM   35  C13 UNL     1       0.451  51.948 -25.636  1.00  0.00     0.035 C 
HETATM   36  C14 UNL     1       1.884  51.612 -26.060  1.00  0.00     0.015 C 
ENDBRANCH  29  30
ENDBRANCH   7  29
TORSDOF 7
ENDMDL
MODEL 9
REMARK minimizedAffinity -8.16801834
REMARK  7 active torsions:
REMARK  status: ('A' for Active; 'I' for Inactive)
REMARK    1  A    between atoms: O1_2  and  C2_3 
REMARK    2  A    between atoms: C2_3  and  C3_4 
REMARK    3  A    between atoms: C3_4  and  N1_5 
REMARK    4  A    between atoms: C3_4  and  C17_28 
REMARK       I    between atoms: N1_5  and  C4_6 
REMARK       I    between atoms: C4_6  and  N2_8 
REMARK    5  A    between atoms: N2_8  and  C5_9 
REMARK    6  A    between atoms: C8_15  and  O3_16 
REMARK    7  A    between atoms: O3_16  and  C9_17 
ROOT
HETATM    1  C5  UNL     1      -1.120  49.640 -20.899  1.00  0.00     0.110 A 
HETATM    2  C6  UNL     1      -1.649  48.530 -20.249  1.00  0.00     0.080 A 
HETATM    3  C7  UNL     1      -1.538  48.547 -18.860  1.00  0.00     0.067 A 
HETATM    4  N3  UNL     1      -1.931  47.657 -17.894  1.00  0.00    -0.298 N 
HETATM    5  N4  UNL     1      -1.637  48.045 -16.639  1.00  0.00    -0.279 N 
ATOM      6  H4  UNL     1      -1.829  47.558 -15.764  1.00  0.00     0.189 HD
HETATM    7  C8  UNL     1      -1.032  49.222 -16.817  1.00  0.00     0.171 A 
HETATM    8  C15 UNL     1      -0.940  49.594 -18.173  1.00  0.00     0.060 A 
HETATM    9  C16 UNL     1      -0.433  50.668 -18.900  1.00  0.00     0.108 A 
HETATM   10  N5  UNL     1      -0.526  50.675 -20.256  1.00  0.00    -0.351 N 
ATOM     11  H5  UNL     1      -0.149  51.458 -20.790  1.00  0.00     0.166 HD
HETATM   12  H10 UNL     1      -2.404  46.770 -18.028  1.00  0.00     0.187 HD
ENDROOT
BRANCH   1  13
HETATM   13  N2  UNL     1      -1.125  49.791 -22.285  1.00  0.00    -0.299 N 
HETATM   14  C4  UNL     1      -1.048  50.947 -23.017  1.00  0.00     0.300 C 
HETATM   15  N1  UNL     1      -1.153  50.669 -24.366  1.00  0.00    -0.233 NA
HETATM   16  O2  UNL     1      -0.912  52.078 -22.574  1.00  0.00    -0.254 OA
HETATM   17  H7  UNL     1      -1.857  49.968 -24.557  1.00  0.00     0.133 HD
HETATM   18  H8  UNL     1      -1.028  48.916 -22.775  1.00  0.00     0.171 HD
BRANCH  15  19
HETATM   19  C3  UNL     1      -1.190  51.764 -25.338  1.00  0.00     0.121 C 
BRANCH  19  20
HETATM   20  C2  UNL     1      -2.476  51.670 -26.188  1.00  0.00     0.191 C 
BRANCH  20  21
HETATM   21  O1  UNL     1      -3.408  52.669 -25.743  1.00  0.00    -0.394 OA
HETATM   22  C1  UNL     1      -4.269  52.159 -24.732  1.00  0.00     0.201 C 
ENDBRANCH  20  21
ENDBRANCH  19  20
BRANCH  19  23
HETATM   23  C17 UNL     1       0.028  51.773 -26.247  1.00  0.00    -0.038 A 
HETATM   24  C18 UNL     1      -0.134  51.916 -27.633  1.00  0.00     0.009 A 
HETATM   25  C19 UNL     1       0.971  51.893 -28.484  1.00  0.00     0.001 A 
HETATM   26  C20 UNL     1       2.252  51.729 -27.961  1.00  0.00     0.000 A 
HETATM   27  C21 UNL     1       2.430  51.589 -26.586  1.00  0.00     0.001 A 
HETATM   28  C22 UNL     1       1.324  51.610 -25.733  1.00  0.00     0.009 A 
ENDBRANCH  19  23
ENDBRANCH  15  19
ENDBRANCH   1  13
BRANCH   7  29
HETATM   29  O3  UNL     1      -0.585  49.956 -15.773  1.00  0.00    -0.328 OA
BRANCH  29  30
HETATM   30  C9  UNL     1       0.838  50.172 -15.712  1.00  0.00     0.138 C 
HETATM   31  C10 UNL     1       1.426  49.447 -14.495  1.00  0.00     0.059 C 
HETATM   32  C11 UNL     1       0.950  50.084 -13.197  1.00  0.00     0.170 C 
HETATM   33  O4  UNL     1       1.260  51.477 -13.176  1.00  0.00    -0.391 OA
HETATM   34  C12 UNL     1       0.590  52.186 -14.217  1.00  0.00     0.174 C 
HETATM   35  C13 UNL     1       1.042  51.698 -15.597  1.00  0.00     0.035 C 
HETATM   36  C14 UNL     1       2.499  52.090 -15.860  1.00  0.00     0.015 C 
ENDBRANCH  29  30
ENDBRANCH   7  29
TORSDOF 7
ENDMDL
