MODEL 1
REMARK minimizedAffinity -9.44932652
REMARK  5 active torsions:
REMARK  status: ('A' for Active; 'I' for Inactive)
REMARK    1  A    between atoms: C2_2  and  N1_3 
REMARK    2  A    between atoms: C2_2  and  C18_28 
REMARK       I    between atoms: N1_3  and  C3_4 
REMARK       I    between atoms: C3_4  and  N2_6 
REMARK    3  A    between atoms: N2_6  and  C4_7 
REMARK    4  A    between atoms: N5_14  and  C8_15 
REMARK    5  A    between atoms: C11_18  and  N6_19 
ROOT
HETATM    1  C4  UNL     1      -2.593  51.420 -26.663  1.00  0.00     0.111 A 
HETATM    2  C5  UNL     1      -1.749  52.412 -27.137  1.00  0.00     0.080 A 
HETATM    3  C6  UNL     1      -0.862  52.941 -26.198  1.00  0.00     0.067 A 
HETATM    4  N3  UNL     1       0.089  53.914 -26.312  1.00  0.00    -0.298 N 
HETATM    5  N4  UNL     1       0.769  54.147 -25.186  1.00  0.00    -0.284 N 
ATOM      6  H4  UNL     1       1.525  54.816 -25.043  1.00  0.00     0.188 HD
HETATM    7  C7  UNL     1       0.239  53.308 -24.290  1.00  0.00     0.130 A 
HETATM    8  N5  UNL     1       0.763  53.323 -23.046  1.00  0.00    -0.370 N 
HETATM    9  C16 UNL     1      -0.800  52.518 -24.873  1.00  0.00     0.052 A 
HETATM   10  C17 UNL     1      -1.688  51.508 -24.496  1.00  0.00     0.107 A 
HETATM   11  N7  UNL     1      -2.571  50.979 -25.387  1.00  0.00    -0.351 N 
ATOM     12  H7  UNL     1      -3.218  50.247 -25.091  1.00  0.00     0.166 HD
HETATM   13  H8  UNL     1       0.326  54.454 -27.136  1.00  0.00     0.187 HD
HETATM   14  H9  UNL     1       1.477  54.043 -22.950  1.00  0.00     0.161 HD
ENDROOT
BRANCH   1  15
HETATM   15  N2  UNL     1      -3.548  50.774 -27.448  1.00  0.00    -0.295 N 
HETATM   16  C3  UNL     1      -3.653  49.441 -27.736  1.00  0.00     0.322 C 
HETATM   17  N1  UNL     1      -4.744  49.188 -28.539  1.00  0.00    -0.335 N 
HETATM   18  O1  UNL     1      -2.897  48.555 -27.356  1.00  0.00    -0.247 OA
HETATM   19  H5  UNL     1      -5.499  49.852 -28.493  1.00  0.00     0.165 HD
HETATM   20  H6  UNL     1      -4.199  51.416 -27.869  1.00  0.00     0.172 HD
BRANCH  17  21
HETATM   21  C2  UNL     1      -5.108  47.825 -28.900  1.00  0.00     0.115 C 
HETATM   22  C1  UNL     1      -5.420  47.705 -30.395  1.00  0.00     0.037 C 
BRANCH  21  23
HETATM   23  C18 UNL     1      -6.249  47.363 -28.008  1.00  0.00    -0.036 A 
HETATM   24  C19 UNL     1      -6.341  47.723 -26.656  1.00  0.00     0.009 A 
HETATM   25  C20 UNL     1      -7.396  47.260 -25.865  1.00  0.00     0.001 A 
HETATM   26  C21 UNL     1      -8.363  46.423 -26.411  1.00  0.00     0.000 A 
HETATM   27  C22 UNL     1      -8.269  46.035 -27.745  1.00  0.00     0.001 A 
HETATM   28  C23 UNL     1      -7.221  46.500 -28.538  1.00  0.00     0.009 A 
ENDBRANCH  21  23
ENDBRANCH  17  21
ENDBRANCH   1  15
BRANCH   8  29
HETATM   29  C8  UNL     1       0.215  52.895 -21.775  1.00  0.00     0.083 C 
HETATM   30  C9  UNL     1       0.660  53.805 -20.631  1.00  0.00     0.027 C 
HETATM   31  C10 UNL     1       0.085  53.358 -19.286  1.00  0.00     0.038 C 
HETATM   32  C11 UNL     1       0.365  51.868 -19.008  1.00  0.00     0.222 C 
HETATM   33  C14 UNL     1      -0.204  51.001 -20.150  1.00  0.00     0.038 C 
HETATM   34  C15 UNL     1       0.386  51.401 -21.505  1.00  0.00     0.027 C 
BRANCH  32  35
HETATM   35  N6  UNL     1      -0.105  51.368 -17.702  1.00  0.00     0.084 N 
HETATM   36  C12 UNL     1       0.731  51.733 -16.561  1.00  0.00     0.309 C 
HETATM   37  C13 UNL     1      -0.330  49.923 -17.715  1.00  0.00     0.309 C 
ENDBRANCH  32  35
ENDBRANCH   8  29
TORSDOF 5
ENDMDL
MODEL 2
REMARK minimizedAffinity -9.04503345
REMARK  5 active torsions:
REMARK  status: ('A' for Active; 'I' for Inactive)
REMARK    1  A    between atoms: C2_2  and  N1_3 
REMARK    2  A    between atoms: C2_2  and  C18_28 
REMARK       I    between atoms: N1_3  and  C3_4 
REMARK       I    between atoms: C3_4  and  N2_6 
REMARK    3  A    between atoms: N2_6  and  C4_7 
REMARK    4  A    between atoms: N5_14  and  C8_15 
REMARK    5  A    between atoms: C11_18  and  N6_19 
ROOT
HETATM    1  C4  UNL     1      -3.440  49.724 -27.083  1.00  0.00     0.111 A 
HETATM    2  C5  UNL     1      -3.263  50.909 -27.778  1.00  0.00     0.080 A 
HETATM    3  C6  UNL     1      -2.322  51.786 -27.236  1.00  0.00     0.067 A 
HETATM    4  N3  UNL     1      -1.903  53.018 -27.645  1.00  0.00    -0.298 N 
HETATM    5  N4  UNL     1      -0.960  53.560 -26.871  1.00  0.00    -0.284 N 
ATOM      6  H4  UNL     1      -0.497  54.461 -26.991  1.00  0.00     0.188 HD
HETATM    7  C7  UNL     1      -0.758  52.661 -25.904  1.00  0.00     0.130 A 
HETATM    8  N5  UNL     1       0.178  52.953 -24.975  1.00  0.00    -0.370 N 
HETATM    9  C16 UNL     1      -1.593  51.514 -26.081  1.00  0.00     0.052 A 
HETATM   10  C17 UNL     1      -1.840  50.288 -25.458  1.00  0.00     0.107 A 
HETATM   11  N7  UNL     1      -2.759  49.417 -25.960  1.00  0.00    -0.351 N 
ATOM     12  H7  UNL     1      -2.932  48.530 -25.486  1.00  0.00     0.166 HD
HETATM   13  H8  UNL     1      -2.221  53.543 -28.454  1.00  0.00     0.187 HD
HETATM   14  H9  UNL     1       0.568  53.883 -25.118  1.00  0.00     0.161 HD
ENDROOT
BRANCH   1  15
HETATM   15  N2  UNL     1      -4.336  48.726 -27.468  1.00  0.00    -0.295 N 
HETATM   16  C3  UNL     1      -4.783  48.421 -28.724  1.00  0.00     0.322 C 
HETATM   17  N1  UNL     1      -5.657  47.356 -28.699  1.00  0.00    -0.335 N 
HETATM   18  O1  UNL     1      -4.479  48.997 -29.762  1.00  0.00    -0.247 OA
HETATM   19  H5  UNL     1      -5.565  46.718 -27.925  1.00  0.00     0.165 HD
HETATM   20  H6  UNL     1      -4.706  48.216 -26.682  1.00  0.00     0.172 HD
BRANCH  17  21
HETATM   21  C2  UNL     1      -6.192  46.796 -29.932  1.00  0.00     0.115 C 
HETATM   22  C1  UNL     1      -5.268  47.074 -31.121  1.00  0.00     0.037 C 
BRANCH  21  23
HETATM   23  C18 UNL     1      -7.608  47.311 -30.137  1.00  0.00    -0.036 A 
HETATM   24  C19 UNL     1      -7.879  48.606 -30.604  1.00  0.00     0.009 A 
HETATM   25  C20 UNL     1      -9.195  49.047 -30.760  1.00  0.00     0.001 A 
HETATM   26  C21 UNL     1     -10.256  48.206 -30.441  1.00  0.00     0.000 A 
HETATM   27  C22 UNL     1     -10.002  46.927 -29.950  1.00  0.00     0.001 A 
HETATM   28  C23 UNL     1      -8.689  46.482 -29.799  1.00  0.00     0.009 A 
ENDBRANCH  21  23
ENDBRANCH  17  21
ENDBRANCH   1  15
BRANCH   8  29
HETATM   29  C8  UNL     1       0.371  52.458 -23.627  1.00  0.00     0.083 C 
HETATM   30  C9  UNL     1      -0.893  51.793 -23.082  1.00  0.00     0.027 C 
HETATM   31  C10 UNL     1      -0.697  51.269 -21.659  1.00  0.00     0.038 C 
HETATM   32  C11 UNL     1      -0.140  52.355 -20.718  1.00  0.00     0.222 C 
HETATM   33  C14 UNL     1       1.188  52.907 -21.275  1.00  0.00     0.038 C 
HETATM   34  C15 UNL     1       1.012  53.476 -22.685  1.00  0.00     0.027 C 
BRANCH  32  35
HETATM   35  N6  UNL     1       0.023  51.949 -19.309  1.00  0.00     0.084 N 
HETATM   36  C12 UNL     1      -1.220  51.814 -18.554  1.00  0.00     0.309 C 
HETATM   37  C13 UNL     1       0.953  52.820 -18.591  1.00  0.00     0.309 C 
ENDBRANCH  32  35
ENDBRANCH   8  29
TORSDOF 5
ENDMDL
MODEL 3
REMARK minimizedAffinity -9.04444981
REMARK  5 active torsions:
REMARK  status: ('A' for Active; 'I' for Inactive)
REMARK    1  A    between atoms: C2_2  and  N1_3 
REMARK    2  A    between atoms: C2_2  and  C18_28 
REMARK       I    between atoms: N1_3  and  C3_4 
REMARK       I    between atoms: C3_4  and  N2_6 
REMARK    3  A    between atoms: N2_6  and  C4_7 
REMARK    4  A    between atoms: N5_14  and  C8_15 
REMARK    5  A    between atoms: C11_18  and  N6_19 
ROOT
HETATM    1  C4  UNL     1      -2.257  50.743 -27.188  1.00  0.00     0.111 A 
HETATM    2  C5  UNL     1      -1.136  51.420 -27.640  1.00  0.00     0.080 A 
HETATM    3  C6  UNL     1      -0.276  51.887 -26.643  1.00  0.00     0.067 A 
HETATM    4  N3  UNL     1       0.895  52.583 -26.723  1.00  0.00    -0.298 N 
HETATM    5  N4  UNL     1       1.456  52.845 -25.539  1.00  0.00    -0.284 N 
ATOM      6  H4  UNL     1       2.330  53.339 -25.360  1.00  0.00     0.188 HD
HETATM    7  C7  UNL     1       0.618  52.316 -24.643  1.00  0.00     0.130 A 
HETATM    8  N5  UNL     1       0.959  52.424 -23.340  1.00  0.00    -0.370 N 
HETATM    9  C16 UNL     1      -0.500  51.695 -25.283  1.00  0.00     0.052 A 
HETATM   10  C17 UNL     1      -1.656  50.994 -24.930  1.00  0.00     0.107 A 
HETATM   11  N7  UNL     1      -2.517  50.535 -25.880  1.00  0.00    -0.351 N 
ATOM     12  H7  UNL     1      -3.360  50.032 -25.603  1.00  0.00     0.166 HD
HETATM   13  H8  UNL     1       1.368  52.904 -27.560  1.00  0.00     0.187 HD
HETATM   14  H9  UNL     1       1.811  52.969 -23.222  1.00  0.00     0.161 HD
ENDROOT
BRANCH   1  15
HETATM   15  N2  UNL     1      -3.231  50.207 -28.030  1.00  0.00    -0.295 N 
HETATM   16  C3  UNL     1      -4.145  49.225 -27.759  1.00  0.00     0.322 C 
HETATM   17  N1  UNL     1      -4.949  48.977 -28.849  1.00  0.00    -0.335 N 
HETATM   18  O1  UNL     1      -4.263  48.616 -26.702  1.00  0.00    -0.247 OA
HETATM   19  H5  UNL     1      -5.058  49.731 -29.507  1.00  0.00     0.165 HD
HETATM   20  H6  UNL     1      -3.192  50.593 -28.959  1.00  0.00     0.172 HD
BRANCH  17  21
HETATM   21  C2  UNL     1      -6.055  48.034 -28.764  1.00  0.00     0.115 C 
HETATM   22  C1  UNL     1      -6.172  47.431 -27.362  1.00  0.00     0.037 C 
BRANCH  21  23
HETATM   23  C18 UNL     1      -5.901  46.988 -29.857  1.00  0.00    -0.036 A 
HETATM   24  C19 UNL     1      -6.654  45.805 -29.880  1.00  0.00     0.009 A 
HETATM   25  C20 UNL     1      -6.467  44.859 -30.891  1.00  0.00     0.001 A 
HETATM   26  C21 UNL     1      -5.518  45.077 -31.884  1.00  0.00     0.000 A 
HETATM   27  C22 UNL     1      -4.743  46.234 -31.859  1.00  0.00     0.001 A 
HETATM   28  C23 UNL     1      -4.932  47.182 -30.854  1.00  0.00     0.009 A 
ENDBRANCH  21  23
ENDBRANCH  17  21
ENDBRANCH   1  15
BRANCH   8  29
HETATM   29  C8  UNL     1       0.156  52.357 -22.136  1.00  0.00     0.083 C 
HETATM   30  C9  UNL     1       0.746  53.212 -21.015  1.00  0.00     0.027 C 
HETATM   31  C10 UNL     1      -0.097  53.145 -19.740  1.00  0.00     0.038 C 
HETATM   32  C11 UNL     1      -0.366  51.692 -19.305  1.00  0.00     0.222 C 
HETATM   33  C14 UNL     1      -1.057  50.918 -20.446  1.00  0.00     0.038 C 
HETATM   34  C15 UNL     1      -0.216  50.934 -21.725  1.00  0.00     0.027 C 
BRANCH  32  35
HETATM   35  N6  UNL     1      -1.122  51.537 -18.048  1.00  0.00     0.084 N 
HETATM   36  C12 UNL     1      -0.533  50.618 -17.077  1.00  0.00     0.309 C 
HETATM   37  C13 UNL     1      -2.521  51.182 -18.288  1.00  0.00     0.309 C 
ENDBRANCH  32  35
ENDBRANCH   8  29
TORSDOF 5
ENDMDL
MODEL 4
REMARK minimizedAffinity -9.01644039
REMARK  5 active torsions:
REMARK  status: ('A' for Active; 'I' for Inactive)
REMARK    1  A    between atoms: C2_2  and  N1_3 
REMARK    2  A    between atoms: C2_2  and  C18_28 
REMARK       I    between atoms: N1_3  and  C3_4 
REMARK       I    between atoms: C3_4  and  N2_6 
REMARK    3  A    between atoms: N2_6  and  C4_7 
REMARK    4  A    between atoms: N5_14  and  C8_15 
REMARK    5  A    between atoms: C11_18  and  N6_19 
ROOT
HETATM    1  C4  UNL     1       0.781  53.072 -19.554  1.00  0.00     0.111 A 
HETATM    2  C5  UNL     1       1.481  54.037 -20.260  1.00  0.00     0.080 A 
HETATM    3  C6  UNL     1       1.280  54.030 -21.642  1.00  0.00     0.067 A 
HETATM    4  N3  UNL     1       1.799  54.818 -22.628  1.00  0.00    -0.298 N 
HETATM    5  N4  UNL     1       1.357  54.523 -23.853  1.00  0.00    -0.284 N 
ATOM      6  H4  UNL     1       1.599  54.983 -24.730  1.00  0.00     0.188 HD
HETATM    7  C7  UNL     1       0.526  53.491 -23.673  1.00  0.00     0.130 A 
HETATM    8  N5  UNL     1      -0.086  52.994 -24.770  1.00  0.00    -0.370 N 
HETATM    9  C16 UNL     1       0.437  53.133 -22.292  1.00  0.00     0.052 A 
HETATM   10  C17 UNL     1      -0.229  52.203 -21.489  1.00  0.00     0.107 A 
HETATM   11  N7  UNL     1      -0.046  52.181 -20.140  1.00  0.00    -0.351 N 
ATOM     12  H7  UNL     1      -0.534  51.489 -19.571  1.00  0.00     0.166 HD
HETATM   13  H8  UNL     1       2.458  55.582 -22.526  1.00  0.00     0.187 HD
HETATM   14  H9  UNL     1       0.232  53.459 -25.618  1.00  0.00     0.161 HD
ENDROOT
BRANCH   1  15
HETATM   15  N2  UNL     1       0.854  52.920 -18.169  1.00  0.00    -0.295 N 
HETATM   16  C3  UNL     1       0.503  51.836 -17.412  1.00  0.00     0.322 C 
HETATM   17  N1  UNL     1       0.734  52.066 -16.073  1.00  0.00    -0.335 N 
HETATM   18  O1  UNL     1       0.036  50.782 -17.826  1.00  0.00    -0.247 OA
HETATM   19  H5  UNL     1       1.439  52.749 -15.850  1.00  0.00     0.165 HD
HETATM   20  H6  UNL     1       1.173  53.755 -17.705  1.00  0.00     0.172 HD
BRANCH  17  21
HETATM   21  C2  UNL     1       0.520  51.018 -15.085  1.00  0.00     0.115 C 
HETATM   22  C1  UNL     1      -0.385  51.496 -13.947  1.00  0.00     0.037 C 
BRANCH  21  23
HETATM   23  C18 UNL     1       1.869  50.504 -14.606  1.00  0.00    -0.036 A 
HETATM   24  C19 UNL     1       2.013  49.284 -13.929  1.00  0.00     0.009 A 
HETATM   25  C20 UNL     1       3.268  48.858 -13.488  1.00  0.00     0.001 A 
HETATM   26  C21 UNL     1       4.391  49.649 -13.704  1.00  0.00     0.000 A 
HETATM   27  C22 UNL     1       4.259  50.876 -14.350  1.00  0.00     0.001 A 
HETATM   28  C23 UNL     1       3.009  51.301 -14.797  1.00  0.00     0.009 A 
ENDBRANCH  21  23
ENDBRANCH  17  21
ENDBRANCH   1  15
BRANCH   8  29
HETATM   29  C8  UNL     1      -0.686  51.700 -25.023  1.00  0.00     0.083 C 
HETATM   30  C9  UNL     1      -0.835  51.428 -26.519  1.00  0.00     0.027 C 
HETATM   31  C10 UNL     1      -1.468  50.063 -26.793  1.00  0.00     0.038 C 
HETATM   32  C11 UNL     1      -2.787  49.875 -26.018  1.00  0.00     0.222 C 
HETATM   33  C14 UNL     1      -2.542  50.059 -24.506  1.00  0.00     0.038 C 
HETATM   34  C15 UNL     1      -1.945  51.435 -24.198  1.00  0.00     0.027 C 
BRANCH  32  35
HETATM   35  N6  UNL     1      -3.496  48.607 -26.272  1.00  0.00     0.084 N 
HETATM   36  C12 UNL     1      -3.917  48.397 -27.654  1.00  0.00     0.309 C 
HETATM   37  C13 UNL     1      -4.631  48.421 -25.369  1.00  0.00     0.309 C 
ENDBRANCH  32  35
ENDBRANCH   8  29
TORSDOF 5
ENDMDL
MODEL 5
REMARK minimizedAffinity -8.93205547
REMARK  5 active torsions:
REMARK  status: ('A' for Active; 'I' for Inactive)
REMARK    1  A    between atoms: C2_2  and  N1_3 
REMARK    2  A    between atoms: C2_2  and  C18_28 
REMARK       I    between atoms: N1_3  and  C3_4 
REMARK       I    between atoms: C3_4  and  N2_6 
REMARK    3  A    between atoms: N2_6  and  C4_7 
REMARK    4  A    between atoms: N5_14  and  C8_15 
REMARK    5  A    between atoms: C11_18  and  N6_19 
ROOT
HETATM    1  C4  UNL     1       0.920  53.064 -19.514  1.00  0.00     0.111 A 
HETATM    2  C5  UNL     1       1.596  54.032 -20.237  1.00  0.00     0.080 A 
HETATM    3  C6  UNL     1       1.348  54.035 -21.611  1.00  0.00     0.067 A 
HETATM    4  N3  UNL     1       1.834  54.829 -22.609  1.00  0.00    -0.298 N 
HETATM    5  N4  UNL     1       1.350  54.542 -23.820  1.00  0.00    -0.284 N 
ATOM      6  H4  UNL     1       1.563  55.007 -24.702  1.00  0.00     0.188 HD
HETATM    7  C7  UNL     1       0.525  53.509 -23.620  1.00  0.00     0.130 A 
HETATM    8  N5  UNL     1      -0.125  53.020 -24.698  1.00  0.00    -0.370 N 
HETATM    9  C16 UNL     1       0.483  53.142 -22.238  1.00  0.00     0.052 A 
HETATM   10  C17 UNL     1      -0.156  52.208 -21.419  1.00  0.00     0.107 A 
HETATM   11  N7  UNL     1       0.073  52.176 -20.077  1.00  0.00    -0.351 N 
ATOM     12  H7  UNL     1      -0.396  51.481 -19.496  1.00  0.00     0.166 HD
HETATM   13  H8  UNL     1       2.497  55.592 -22.525  1.00  0.00     0.187 HD
HETATM   14  H9  UNL     1       0.165  53.490 -25.554  1.00  0.00     0.161 HD
ENDROOT
BRANCH   1  15
HETATM   15  N2  UNL     1       1.040  52.902 -18.133  1.00  0.00    -0.295 N 
HETATM   16  C3  UNL     1       0.647  51.842 -17.362  1.00  0.00     0.322 C 
HETATM   17  N1  UNL     1       0.949  52.052 -16.034  1.00  0.00    -0.335 N 
HETATM   18  O1  UNL     1       0.092  50.824 -17.757  1.00  0.00    -0.247 OA
HETATM   19  H5  UNL     1       1.708  52.684 -15.841  1.00  0.00     0.165 HD
HETATM   20  H6  UNL     1       1.435  53.712 -17.683  1.00  0.00     0.172 HD
BRANCH  17  21
HETATM   21  C2  UNL     1       0.705  51.018 -15.039  1.00  0.00     0.115 C 
HETATM   22  C1  UNL     1       0.802  49.617 -15.649  1.00  0.00     0.037 C 
BRANCH  21  23
HETATM   23  C18 UNL     1      -0.629  51.287 -14.361  1.00  0.00    -0.036 A 
HETATM   24  C19 UNL     1      -1.847  50.828 -14.885  1.00  0.00     0.009 A 
HETATM   25  C20 UNL     1      -3.054  51.114 -14.241  1.00  0.00     0.001 A 
HETATM   26  C21 UNL     1      -3.060  51.872 -13.074  1.00  0.00     0.000 A 
HETATM   27  C22 UNL     1      -1.862  52.357 -12.558  1.00  0.00     0.001 A 
HETATM   28  C23 UNL     1      -0.656  52.068 -13.195  1.00  0.00     0.009 A 
ENDBRANCH  21  23
ENDBRANCH  17  21
ENDBRANCH   1  15
BRANCH   8  29
HETATM   29  C8  UNL     1      -0.734  51.728 -24.938  1.00  0.00     0.083 C 
HETATM   30  C9  UNL     1      -0.783  51.394 -26.429  1.00  0.00     0.027 C 
HETATM   31  C10 UNL     1      -1.426  50.031 -26.690  1.00  0.00     0.038 C 
HETATM   32  C11 UNL     1      -2.799  49.902 -26.003  1.00  0.00     0.222 C 
HETATM   33  C14 UNL     1      -2.656  50.146 -24.487  1.00  0.00     0.038 C 
HETATM   34  C15 UNL     1      -2.052  51.522 -24.195  1.00  0.00     0.027 C 
BRANCH  32  35
HETATM   35  N6  UNL     1      -3.516  48.637 -26.254  1.00  0.00     0.084 N 
HETATM   36  C12 UNL     1      -3.943  48.429 -27.635  1.00  0.00     0.309 C 
HETATM   37  C13 UNL     1      -4.650  48.460 -25.347  1.00  0.00     0.309 C 
ENDBRANCH  32  35
ENDBRANCH   8  29
TORSDOF 5
ENDMDL
MODEL 6
REMARK minimizedAffinity -8.91583633
REMARK  5 active torsions:
REMARK  status: ('A' for Active; 'I' for Inactive)
REMARK    1  A    between atoms: C2_2  and  N1_3 
REMARK    2  A    between atoms: C2_2  and  C18_28 
REMARK       I    between atoms: N1_3  and  C3_4 
REMARK       I    between atoms: C3_4  and  N2_6 
REMARK    3  A    between atoms: N2_6  and  C4_7 
REMARK    4  A    between atoms: N5_14  and  C8_15 
REMARK    5  A    between atoms: C11_18  and  N6_19 
ROOT
HETATM    1  C4  UNL     1      -2.691  51.398 -20.159  1.00  0.00     0.111 A 
HETATM    2  C5  UNL     1      -4.074  51.327 -20.183  1.00  0.00     0.080 A 
HETATM    3  C6  UNL     1      -4.639  51.086 -21.437  1.00  0.00     0.067 A 
HETATM    4  N3  UNL     1      -5.941  50.960 -21.825  1.00  0.00    -0.298 N 
HETATM    5  N4  UNL     1      -6.102  50.713 -23.127  1.00  0.00    -0.284 N 
ATOM      6  H4  UNL     1      -6.978  50.573 -23.631  1.00  0.00     0.188 HD
HETATM    7  C7  UNL     1      -4.861  50.688 -23.623  1.00  0.00     0.130 A 
HETATM    8  N5  UNL     1      -4.729  50.435 -24.943  1.00  0.00    -0.370 N 
HETATM    9  C16 UNL     1      -3.890  50.920 -22.599  1.00  0.00     0.052 A 
HETATM   10  C17 UNL     1      -2.502  51.003 -22.467  1.00  0.00     0.107 A 
HETATM   11  N7  UNL     1      -1.923  51.245 -21.259  1.00  0.00    -0.351 N 
ATOM     12  H7  UNL     1      -0.908  51.311 -21.184  1.00  0.00     0.166 HD
HETATM   13  H8  UNL     1      -6.770  51.028 -21.243  1.00  0.00     0.187 HD
HETATM   14  H9  UNL     1      -5.636  50.355 -25.400  1.00  0.00     0.161 HD
ENDROOT
BRANCH   1  15
HETATM   15  N2  UNL     1      -1.947  51.633 -19.003  1.00  0.00    -0.295 N 
HETATM   16  C3  UNL     1      -1.417  50.722 -18.131  1.00  0.00     0.322 C 
HETATM   17  N1  UNL     1      -0.733  51.346 -17.110  1.00  0.00    -0.335 N 
HETATM   18  O1  UNL     1      -1.517  49.503 -18.205  1.00  0.00    -0.247 OA
HETATM   19  H5  UNL     1      -0.373  52.266 -17.308  1.00  0.00     0.165 HD
HETATM   20  H6  UNL     1      -1.846  52.615 -18.802  1.00  0.00     0.172 HD
BRANCH  17  21
HETATM   21  C2  UNL     1      -0.008  50.573 -16.112  1.00  0.00     0.115 C 
HETATM   22  C1  UNL     1      -0.810  50.438 -14.815  1.00  0.00     0.037 C 
BRANCH  21  23
HETATM   23  C18 UNL     1       1.366  51.191 -15.908  1.00  0.00    -0.036 A 
HETATM   24  C19 UNL     1       2.201  50.834 -14.838  1.00  0.00     0.009 A 
HETATM   25  C20 UNL     1       3.449  51.440 -14.675  1.00  0.00     0.001 A 
HETATM   26  C21 UNL     1       3.873  52.419 -15.568  1.00  0.00     0.000 A 
HETATM   27  C22 UNL     1       3.043  52.803 -16.618  1.00  0.00     0.001 A 
HETATM   28  C23 UNL     1       1.800  52.196 -16.787  1.00  0.00     0.009 A 
ENDBRANCH  21  23
ENDBRANCH  17  21
ENDBRANCH   1  15
BRANCH   8  29
HETATM   29  C8  UNL     1      -3.651  50.726 -25.866  1.00  0.00     0.083 C 
HETATM   30  C9  UNL     1      -2.481  49.758 -25.693  1.00  0.00     0.027 C 
HETATM   31  C10 UNL     1      -1.339  50.061 -26.665  1.00  0.00     0.038 C 
HETATM   32  C11 UNL     1      -0.907  51.539 -26.602  1.00  0.00     0.222 C 
HETATM   33  C14 UNL     1      -2.114  52.456 -26.890  1.00  0.00     0.038 C 
HETATM   34  C15 UNL     1      -3.258  52.202 -25.905  1.00  0.00     0.027 C 
BRANCH  32  35
HETATM   35  N6  UNL     1       0.232  51.904 -27.466  1.00  0.00     0.084 N 
HETATM   36  C12 UNL     1       1.543  51.839 -26.826  1.00  0.00     0.309 C 
HETATM   37  C13 UNL     1       0.046  53.210 -28.097  1.00  0.00     0.309 C 
ENDBRANCH  32  35
ENDBRANCH   8  29
TORSDOF 5
ENDMDL
MODEL 7
REMARK minimizedAffinity -8.87118912
REMARK  5 active torsions:
REMARK  status: ('A' for Active; 'I' for Inactive)
REMARK    1  A    between atoms: C2_2  and  N1_3 
REMARK    2  A    between atoms: C2_2  and  C18_28 
REMARK       I    between atoms: N1_3  and  C3_4 
REMARK       I    between atoms: C3_4  and  N2_6 
REMARK    3  A    between atoms: N2_6  and  C4_7 
REMARK    4  A    between atoms: N5_14  and  C8_15 
REMARK    5  A    between atoms: C11_18  and  N6_19 
ROOT
HETATM    1  C4  UNL     1      -2.824  51.319 -20.096  1.00  0.00     0.111 A 
HETATM    2  C5  UNL     1      -4.194  51.312 -20.303  1.00  0.00     0.080 A 
HETATM    3  C6  UNL     1      -4.598  51.182 -21.634  1.00  0.00     0.067 A 
HETATM    4  N3  UNL     1      -5.841  51.143 -22.194  1.00  0.00    -0.298 N 
HETATM    5  N4  UNL     1      -5.838  50.991 -23.521  1.00  0.00    -0.284 N 
ATOM      6  H4  UNL     1      -6.644  50.925 -24.142  1.00  0.00     0.188 HD
HETATM    7  C7  UNL     1      -4.544  50.943 -23.853  1.00  0.00     0.130 A 
HETATM    8  N5  UNL     1      -4.249  50.774 -25.160  1.00  0.00    -0.370 N 
HETATM    9  C16 UNL     1      -3.709  51.061 -22.698  1.00  0.00     0.052 A 
HETATM   10  C17 UNL     1      -2.348  51.071 -22.384  1.00  0.00     0.107 A 
HETATM   11  N7  UNL     1      -1.925  51.205 -21.096  1.00  0.00    -0.351 N 
ATOM     12  H7  UNL     1      -0.927  51.219 -20.887  1.00  0.00     0.166 HD
HETATM   13  H8  UNL     1      -6.736  51.209 -21.720  1.00  0.00     0.187 HD
HETATM   14  H9  UNL     1      -5.090  50.766 -25.735  1.00  0.00     0.161 HD
ENDROOT
BRANCH   1  15
HETATM   15  N2  UNL     1      -2.231  51.441 -18.840  1.00  0.00    -0.295 N 
HETATM   16  C3  UNL     1      -1.432  50.545 -18.184  1.00  0.00     0.322 C 
HETATM   17  N1  UNL     1      -1.028  51.036 -16.962  1.00  0.00    -0.335 N 
HETATM   18  O1  UNL     1      -1.099  49.438 -18.590  1.00  0.00    -0.247 OA
HETATM   19  H5  UNL     1      -1.009  52.038 -16.865  1.00  0.00     0.165 HD
HETATM   20  H6  UNL     1      -2.483  52.299 -18.376  1.00  0.00     0.172 HD
BRANCH  17  21
HETATM   21  C2  UNL     1      -0.097  50.292 -16.126  1.00  0.00     0.115 C 
HETATM   22  C1  UNL     1      -0.729  49.912 -14.784  1.00  0.00     0.037 C 
BRANCH  21  23
HETATM   23  C18 UNL     1       1.188  51.091 -15.981  1.00  0.00    -0.036 A 
HETATM   24  C19 UNL     1       1.578  52.067 -16.911  1.00  0.00     0.009 A 
HETATM   25  C20 UNL     1       2.777  52.765 -16.751  1.00  0.00     0.001 A 
HETATM   26  C21 UNL     1       3.607  52.490 -15.670  1.00  0.00     0.000 A 
HETATM   27  C22 UNL     1       3.247  51.504 -14.755  1.00  0.00     0.001 A 
HETATM   28  C23 UNL     1       2.048  50.810 -14.908  1.00  0.00     0.009 A 
ENDBRANCH  21  23
ENDBRANCH  17  21
ENDBRANCH   1  15
BRANCH   8  29
HETATM   29  C8  UNL     1      -3.049  51.077 -25.913  1.00  0.00     0.083 C 
HETATM   30  C9  UNL     1      -1.982  49.997 -25.737  1.00  0.00     0.027 C 
HETATM   31  C10 UNL     1      -0.712  50.312 -26.529  1.00  0.00     0.038 C 
HETATM   32  C11 UNL     1      -0.184  51.729 -26.230  1.00  0.00     0.222 C 
HETATM   33  C14 UNL     1      -1.277  52.774 -26.531  1.00  0.00     0.038 C 
HETATM   34  C15 UNL     1      -2.548  52.507 -25.719  1.00  0.00     0.027 C 
BRANCH  32  35
HETATM   35  N6  UNL     1       1.074  52.092 -26.909  1.00  0.00     0.084 N 
HETATM   36  C12 UNL     1       1.082  51.883 -28.355  1.00  0.00     0.309 C 
HETATM   37  C13 UNL     1       2.234  51.440 -26.302  1.00  0.00     0.309 C 
ENDBRANCH  32  35
ENDBRANCH   8  29
TORSDOF 5
ENDMDL
MODEL 8
REMARK minimizedAffinity -8.80020905
REMARK  5 active torsions:
REMARK  status: ('A' for Active; 'I' for Inactive)
REMARK    1  A    between atoms: C2_2  and  N1_3 
REMARK    2  A    between atoms: C2_2  and  C18_28 
REMARK       I    between atoms: N1_3  and  C3_4 
REMARK       I    between atoms: C3_4  and  N2_6 
REMARK    3  A    between atoms: N2_6  and  C4_7 
REMARK    4  A    between atoms: N5_14  and  C8_15 
REMARK    5  A    between atoms: C11_18  and  N6_19 
ROOT
HETATM    1  C4  UNL     1      -3.751  49.183 -27.594  1.00  0.00     0.111 A 
HETATM    2  C5  UNL     1      -3.465  50.380 -28.230  1.00  0.00     0.080 A 
HETATM    3  C6  UNL     1      -2.622  51.244 -27.528  1.00  0.00     0.067 A 
HETATM    4  N3  UNL     1      -2.142  52.482 -27.843  1.00  0.00    -0.298 N 
HETATM    5  N4  UNL     1      -1.334  53.006 -26.918  1.00  0.00    -0.284 N 
ATOM      6  H4  UNL     1      -0.857  53.907 -26.947  1.00  0.00     0.188 HD
HETATM    7  C7  UNL     1      -1.288  52.088 -25.948  1.00  0.00     0.130 A 
HETATM    8  N5  UNL     1      -0.512  52.360 -24.877  1.00  0.00    -0.370 N 
HETATM    9  C16 UNL     1      -2.086  50.948 -26.277  1.00  0.00     0.052 A 
HETATM   10  C17 UNL     1      -2.430  49.712 -25.724  1.00  0.00     0.107 A 
HETATM   11  N7  UNL     1      -3.257  48.853 -26.382  1.00  0.00    -0.351 N 
ATOM     12  H7  UNL     1      -3.504  47.959 -25.959  1.00  0.00     0.166 HD
HETATM   13  H8  UNL     1      -2.327  53.022 -28.681  1.00  0.00     0.187 HD
HETATM   14  H9  UNL     1      -0.104  53.291 -24.939  1.00  0.00     0.161 HD
ENDROOT
BRANCH   1  15
HETATM   15  N2  UNL     1      -4.575  48.196 -28.135  1.00  0.00    -0.295 N 
HETATM   16  C3  UNL     1      -5.157  48.156 -29.372  1.00  0.00     0.322 C 
HETATM   17  N1  UNL     1      -5.894  47.004 -29.541  1.00  0.00    -0.335 N 
HETATM   18  O1  UNL     1      -5.066  49.011 -30.245  1.00  0.00    -0.247 OA
HETATM   19  H5  UNL     1      -5.624  46.212 -28.980  1.00  0.00     0.165 HD
HETATM   20  H6  UNL     1      -4.773  47.457 -27.480  1.00  0.00     0.172 HD
BRANCH  17  21
HETATM   21  C2  UNL     1      -6.530  46.701 -30.815  1.00  0.00     0.115 C 
HETATM   22  C1  UNL     1      -8.055  46.663 -30.686  1.00  0.00     0.037 C 
BRANCH  21  23
HETATM   23  C18 UNL     1      -5.942  45.414 -31.370  1.00  0.00    -0.036 A 
HETATM   24  C19 UNL     1      -4.750  45.388 -32.110  1.00  0.00     0.009 A 
HETATM   25  C20 UNL     1      -4.253  44.186 -32.620  1.00  0.00     0.001 A 
HETATM   26  C21 UNL     1      -4.946  42.999 -32.410  1.00  0.00     0.000 A 
HETATM   27  C22 UNL     1      -6.145  43.013 -31.703  1.00  0.00     0.001 A 
HETATM   28  C23 UNL     1      -6.640  44.210 -31.187  1.00  0.00     0.009 A 
ENDBRANCH  21  23
ENDBRANCH  17  21
ENDBRANCH   1  15
BRANCH   8  29
HETATM   29  C8  UNL     1      -0.537  51.840 -23.525  1.00  0.00     0.083 C 
HETATM   30  C9  UNL     1      -1.891  52.069 -22.855  1.00  0.00     0.027 C 
HETATM   31  C10 UNL     1      -1.924  51.523 -21.427  1.00  0.00     0.038 C 
HETATM   32  C11 UNL     1      -0.744  52.046 -20.584  1.00  0.00     0.222 C 
HETATM   33  C14 UNL     1       0.592  51.687 -21.266  1.00  0.00     0.038 C 
HETATM   34  C15 UNL     1       0.669  52.257 -22.685  1.00  0.00     0.027 C 
BRANCH  32  35
HETATM   35  N6  UNL     1      -0.733  51.614 -19.174  1.00  0.00     0.084 N 
HETATM   36  C12 UNL     1       0.321  52.204 -18.352  1.00  0.00     0.309 C 
HETATM   37  C13 UNL     1      -0.712  50.157 -19.045  1.00  0.00     0.309 C 
ENDBRANCH  32  35
ENDBRANCH   8  29
TORSDOF 5
ENDMDL
MODEL 9
REMARK minimizedAffinity -8.61180878
REMARK  5 active torsions:
REMARK  status: ('A' for Active; 'I' for Inactive)
REMARK    1  A    between atoms: C2_2  and  N1_3 
REMARK    2  A    between atoms: C2_2  and  C18_28 
REMARK       I    between atoms: N1_3  and  C3_4 
REMARK       I    between atoms: C3_4  and  N2_6 
REMARK    3  A    between atoms: N2_6  and  C4_7 
REMARK    4  A    between atoms: N5_14  and  C8_15 
REMARK    5  A    between atoms: C11_18  and  N6_19 
ROOT
HETATM    1  C4  UNL     1       0.631  51.708 -15.306  1.00  0.00     0.111 A 
HETATM    2  C5  UNL     1       0.096  50.432 -15.237  1.00  0.00     0.080 A 
HETATM    3  C6  UNL     1      -0.267  49.868 -16.462  1.00  0.00     0.067 A 
HETATM    4  N3  UNL     1      -0.816  48.656 -16.764  1.00  0.00    -0.298 N 
HETATM    5  N4  UNL     1      -1.013  48.455 -18.069  1.00  0.00    -0.284 N 
ATOM      6  H4  UNL     1      -1.398  47.626 -18.521  1.00  0.00     0.188 HD
HETATM    7  C7  UNL     1      -0.593  49.582 -18.652  1.00  0.00     0.130 A 
HETATM    8  N5  UNL     1      -0.665  49.644 -19.999  1.00  0.00    -0.370 N 
HETATM    9  C16 UNL     1      -0.109  50.517 -17.684  1.00  0.00     0.052 A 
HETATM   10  C17 UNL     1       0.446  51.798 -17.647  1.00  0.00     0.107 A 
HETATM   11  N7  UNL     1       0.801  52.377 -16.467  1.00  0.00    -0.351 N 
ATOM     12  H7  UNL     1       1.197  53.317 -16.459  1.00  0.00     0.166 HD
HETATM   13  H8  UNL     1      -1.074  47.916 -16.120  1.00  0.00     0.187 HD
HETATM   14  H9  UNL     1      -1.103  48.810 -20.389  1.00  0.00     0.161 HD
ENDROOT
BRANCH   1  15
HETATM   15  N2  UNL     1       1.049  52.435 -14.192  1.00  0.00    -0.295 N 
HETATM   16  C3  UNL     1       0.354  52.714 -13.047  1.00  0.00     0.322 C 
HETATM   17  N1  UNL     1       1.116  53.452 -12.167  1.00  0.00    -0.335 N 
HETATM   18  O1  UNL     1      -0.797  52.378 -12.797  1.00  0.00    -0.247 OA
HETATM   19  H5  UNL     1       2.115  53.363 -12.254  1.00  0.00     0.165 HD
HETATM   20  H6  UNL     1       1.973  52.819 -14.306  1.00  0.00     0.172 HD
BRANCH  17  21
HETATM   21  C2  UNL     1       0.614  53.790 -10.843  1.00  0.00     0.115 C 
HETATM   22  C1  UNL     1      -0.832  54.289 -10.901  1.00  0.00     0.037 C 
BRANCH  21  23
HETATM   23  C18 UNL     1       1.566  54.778 -10.188  1.00  0.00    -0.036 A 
HETATM   24  C19 UNL     1       2.709  55.268 -10.838  1.00  0.00     0.009 A 
HETATM   25  C20 UNL     1       3.569  56.160 -10.194  1.00  0.00     0.001 A 
HETATM   26  C21 UNL     1       3.306  56.565  -8.890  1.00  0.00     0.000 A 
HETATM   27  C22 UNL     1       2.190  56.066  -8.222  1.00  0.00     0.001 A 
HETATM   28  C23 UNL     1       1.327  55.180  -8.865  1.00  0.00     0.009 A 
ENDBRANCH  21  23
ENDBRANCH  17  21
ENDBRANCH   1  15
BRANCH   8  29
HETATM   29  C8  UNL     1      -0.700  50.777 -20.902  1.00  0.00     0.083 C 
HETATM   30  C9  UNL     1      -1.538  50.484 -22.146  1.00  0.00     0.027 C 
HETATM   31  C10 UNL     1      -1.579  51.676 -23.103  1.00  0.00     0.038 C 
HETATM   32  C11 UNL     1      -0.166  52.190 -23.441  1.00  0.00     0.222 C 
HETATM   33  C14 UNL     1       0.584  52.567 -22.147  1.00  0.00     0.038 C 
HETATM   34  C15 UNL     1       0.675  51.378 -21.186  1.00  0.00     0.027 C 
BRANCH  32  35
HETATM   35  N6  UNL     1      -0.112  53.303 -24.408  1.00  0.00     0.084 N 
HETATM   36  C12 UNL     1       0.050  52.906 -25.804  1.00  0.00     0.309 C 
HETATM   37  C13 UNL     1       0.902  54.294 -24.049  1.00  0.00     0.309 C 
ENDBRANCH  32  35
ENDBRANCH   8  29
TORSDOF 5
ENDMDL
