MODEL 1
REMARK minimizedAffinity -9.40148067
REMARK  4 active torsions:
REMARK  status: ('A' for Active; 'I' for Inactive)
REMARK    1  A    between atoms: C2_2  and  N1_3 
REMARK    2  A    between atoms: C2_2  and  C16_25 
REMARK       I    between atoms: N1_3  and  C3_4 
REMARK       I    between atoms: C3_4  and  N2_6 
REMARK    3  A    between atoms: N2_6  and  C4_7 
REMARK    4  A    between atoms: C7_13  and  C8_14 
ROOT
HETATM    1  C4  UNL     1       0.651  52.694 -19.852  1.00  0.00     0.111 A 
HETATM    2  C5  UNL     1       1.203  53.897 -20.291  1.00  0.00     0.080 A 
HETATM    3  C6  UNL     1       1.244  54.072 -21.675  1.00  0.00     0.065 A 
HETATM    4  N3  UNL     1       1.687  55.101 -22.455  1.00  0.00    -0.299 N 
HETATM    5  N4  UNL     1       1.545  54.894 -23.771  1.00  0.00    -0.299 N 
ATOM      6  H4  UNL     1       1.791  55.527 -24.532  1.00  0.00     0.187 HD
HETATM    7  C7  UNL     1       1.007  53.664 -23.864  1.00  0.00     0.072 A 
HETATM    8  C14 UNL     1       0.781  53.113 -22.565  1.00  0.00     0.036 A 
HETATM    9  C15 UNL     1       0.235  51.942 -22.038  1.00  0.00     0.105 A 
HETATM   10  N5  UNL     1       0.194  51.750 -20.696  1.00  0.00    -0.351 N 
ATOM     11  H5  UNL     1      -0.186  50.881 -20.321  1.00  0.00     0.166 HD
HETATM   12  H8  UNL     1       2.092  55.981 -22.153  1.00  0.00     0.187 HD
ENDROOT
BRANCH   1  13
HETATM   13  N2  UNL     1       0.619  52.484 -18.467  1.00  0.00    -0.295 N 
HETATM   14  C3  UNL     1       0.308  51.296 -17.846  1.00  0.00     0.322 C 
HETATM   15  N1  UNL     1       0.511  51.405 -16.479  1.00  0.00    -0.338 N 
HETATM   16  O1  UNL     1      -0.117  50.274 -18.366  1.00  0.00    -0.247 OA
HETATM   17  H5  UNL     1       1.196  52.086 -16.187  1.00  0.00     0.164 HD
HETATM   18  H6  UNL     1       0.661  53.293 -17.874  1.00  0.00     0.172 HD
BRANCH  15  19
HETATM   19  C2  UNL     1       0.291  50.278 -15.570  1.00  0.00     0.086 C 
HETATM   20  C1  UNL     1      -0.080  49.064 -16.424  1.00  0.00     0.032 C 
BRANCH  19  21
HETATM   21  C16 UNL     1      -0.797  50.629 -14.511  1.00  0.00     0.008 C 
HETATM   22  C17 UNL     1      -2.206  50.683 -15.148  1.00  0.00     0.007 C 
HETATM   23  C18 UNL     1      -3.235  51.481 -14.342  1.00  0.00     0.000 C 
HETATM   24  C19 UNL     1      -2.886  51.535 -12.865  1.00  0.00     0.000 C 
HETATM   25  C20 UNL     1      -1.529  52.197 -12.638  1.00  0.00     0.000 C 
HETATM   26  C21 UNL     1      -0.519  51.941 -13.763  1.00  0.00     0.007 C 
ENDBRANCH  19  21
ENDBRANCH  15  19
ENDBRANCH   1  13
BRANCH   7  27
HETATM   27  C8  UNL     1       0.723  53.071 -25.170  1.00  0.00    -0.007 A 
HETATM   28  C9  UNL     1       1.198  51.793 -25.505  1.00  0.00     0.017 A 
HETATM   29  C10 UNL     1       0.917  51.240 -26.757  1.00  0.00     0.043 A 
HETATM   30  C11 UNL     1       0.167  51.966 -27.676  1.00  0.00     0.116 A 
HETATM   31  F1  UNL     1      -0.098  51.434 -28.876  1.00  0.00    -0.206 F 
HETATM   32  C12 UNL     1      -0.303  53.236 -27.370  1.00  0.00     0.043 A 
HETATM   33  C13 UNL     1      -0.022  53.790 -26.119  1.00  0.00     0.017 A 
ENDBRANCH   7  27
TORSDOF 4
ENDMDL
MODEL 2
REMARK minimizedAffinity -9.39158249
REMARK  4 active torsions:
REMARK  status: ('A' for Active; 'I' for Inactive)
REMARK    1  A    between atoms: C2_2  and  N1_3 
REMARK    2  A    between atoms: C2_2  and  C16_25 
REMARK       I    between atoms: N1_3  and  C3_4 
REMARK       I    between atoms: C3_4  and  N2_6 
REMARK    3  A    between atoms: N2_6  and  C4_7 
REMARK    4  A    between atoms: C7_13  and  C8_14 
ROOT
HETATM    1  C4  UNL     1      -2.284  50.757 -26.890  1.00  0.00     0.111 A 
HETATM    2  C5  UNL     1      -1.231  51.579 -27.289  1.00  0.00     0.080 A 
HETATM    3  C6  UNL     1      -0.455  52.108 -26.257  1.00  0.00     0.065 A 
HETATM    4  N3  UNL     1       0.642  52.921 -26.260  1.00  0.00    -0.299 N 
HETATM    5  N4  UNL     1       1.118  53.207 -25.041  1.00  0.00    -0.299 N 
ATOM      6  H4  UNL     1       1.931  53.777 -24.806  1.00  0.00     0.187 HD
HETATM    7  C7  UNL     1       0.285  52.574 -24.195  1.00  0.00     0.072 A 
HETATM    8  C14 UNL     1      -0.714  51.850 -24.918  1.00  0.00     0.036 A 
HETATM    9  C15 UNL     1      -1.783  51.008 -24.609  1.00  0.00     0.105 A 
HETATM   10  N5  UNL     1      -2.554  50.492 -25.599  1.00  0.00    -0.351 N 
ATOM     11  H5  UNL     1      -3.347  49.896 -25.362  1.00  0.00     0.166 HD
HETATM   12  H8  UNL     1       1.123  53.313 -27.062  1.00  0.00     0.187 HD
ENDROOT
BRANCH   1  13
HETATM   13  N2  UNL     1      -3.093  50.232 -27.907  1.00  0.00    -0.295 N 
HETATM   14  C3  UNL     1      -4.043  49.249 -27.744  1.00  0.00     0.322 C 
HETATM   15  N1  UNL     1      -4.751  49.072 -28.923  1.00  0.00    -0.338 N 
HETATM   16  O1  UNL     1      -4.256  48.578 -26.745  1.00  0.00    -0.247 OA
HETATM   17  H5  UNL     1      -4.798  49.872 -29.535  1.00  0.00     0.164 HD
HETATM   18  H6  UNL     1      -2.854  50.461 -28.855  1.00  0.00     0.172 HD
BRANCH  15  19
HETATM   19  C2  UNL     1      -5.850  48.109 -29.030  1.00  0.00     0.086 C 
HETATM   20  C1  UNL     1      -6.132  47.574 -27.625  1.00  0.00     0.032 C 
BRANCH  19  21
HETATM   21  C16 UNL     1      -5.499  46.984 -30.048  1.00  0.00     0.008 C 
HETATM   22  C17 UNL     1      -5.073  47.572 -31.414  1.00  0.00     0.007 C 
HETATM   23  C18 UNL     1      -5.190  46.596 -32.588  1.00  0.00     0.000 C 
HETATM   24  C19 UNL     1      -5.103  45.148 -32.139  1.00  0.00     0.000 C 
HETATM   25  C20 UNL     1      -6.221  44.803 -31.157  1.00  0.00     0.000 C 
HETATM   26  C21 UNL     1      -6.636  45.972 -30.255  1.00  0.00     0.007 C 
ENDBRANCH  19  21
ENDBRANCH  15  19
ENDBRANCH   1  13
BRANCH   7  27
HETATM   27  C8  UNL     1       0.474  52.672 -22.748  1.00  0.00    -0.007 A 
HETATM   28  C9  UNL     1      -0.041  51.695 -21.882  1.00  0.00     0.017 A 
HETATM   29  C10 UNL     1       0.149  51.802 -20.502  1.00  0.00     0.043 A 
HETATM   30  C11 UNL     1       0.847  52.889 -19.987  1.00  0.00     0.116 A 
HETATM   31  F1  UNL     1       1.026  52.990 -18.664  1.00  0.00    -0.206 F 
HETATM   32  C12 UNL     1       1.355  53.873 -20.825  1.00  0.00     0.043 A 
HETATM   33  C13 UNL     1       1.165  53.766 -22.204  1.00  0.00     0.017 A 
ENDBRANCH   7  27
TORSDOF 4
ENDMDL
MODEL 3
REMARK minimizedAffinity -9.24060822
REMARK  4 active torsions:
REMARK  status: ('A' for Active; 'I' for Inactive)
REMARK    1  A    between atoms: C2_2  and  N1_3 
REMARK    2  A    between atoms: C2_2  and  C16_25 
REMARK       I    between atoms: N1_3  and  C3_4 
REMARK       I    between atoms: C3_4  and  N2_6 
REMARK    3  A    between atoms: N2_6  and  C4_7 
REMARK    4  A    between atoms: C7_13  and  C8_14 
ROOT
HETATM    1  C4  UNL     1       0.421  52.681 -19.837  1.00  0.00     0.111 A 
HETATM    2  C5  UNL     1       1.047  53.857 -20.245  1.00  0.00     0.080 A 
HETATM    3  C6  UNL     1       1.164  54.031 -21.625  1.00  0.00     0.065 A 
HETATM    4  N3  UNL     1       1.690  55.039 -22.381  1.00  0.00    -0.299 N 
HETATM    5  N4  UNL     1       1.604  54.839 -23.703  1.00  0.00    -0.299 N 
ATOM      6  H4  UNL     1       1.915  55.461 -24.450  1.00  0.00     0.187 HD
HETATM    7  C7  UNL     1       1.015  53.635 -23.824  1.00  0.00     0.072 A 
HETATM    8  C14 UNL     1       0.701  53.094 -22.539  1.00  0.00     0.036 A 
HETATM    9  C15 UNL     1       0.077  51.949 -22.043  1.00  0.00     0.105 A 
HETATM   10  N5  UNL     1      -0.037  51.759 -20.704  1.00  0.00    -0.351 N 
ATOM     11  H5  UNL     1      -0.475  50.909 -20.351  1.00  0.00     0.166 HD
HETATM   12  H8  UNL     1       2.120  55.899 -22.057  1.00  0.00     0.187 HD
ENDROOT
BRANCH   1  13
HETATM   13  N2  UNL     1       0.312  52.472 -18.456  1.00  0.00    -0.295 N 
HETATM   14  C3  UNL     1       0.100  51.257 -17.846  1.00  0.00     0.322 C 
HETATM   15  N1  UNL     1       0.187  51.393 -16.469  1.00  0.00    -0.338 N 
HETATM   16  O1  UNL     1      -0.161  50.190 -18.383  1.00  0.00    -0.247 OA
HETATM   17  H5  UNL     1       0.762  52.152 -16.135  1.00  0.00     0.164 HD
HETATM   18  H6  UNL     1       0.213  53.282 -17.870  1.00  0.00     0.172 HD
BRANCH  15  19
HETATM   19  C2  UNL     1       0.036  50.250 -15.565  1.00  0.00     0.086 C 
HETATM   20  C1  UNL     1      -1.345  50.355 -14.917  1.00  0.00     0.032 C 
BRANCH  19  21
HETATM   21  C16 UNL     1       1.194  50.216 -14.523  1.00  0.00     0.008 C 
HETATM   22  C17 UNL     1       2.325  51.200 -14.905  1.00  0.00     0.007 C 
HETATM   23  C18 UNL     1       3.677  50.893 -14.255  1.00  0.00     0.000 C 
HETATM   24  C19 UNL     1       3.525  50.121 -12.957  1.00  0.00     0.000 C 
HETATM   25  C20 UNL     1       2.825  48.783 -13.186  1.00  0.00     0.000 C 
HETATM   26  C21 UNL     1       1.781  48.814 -14.308  1.00  0.00     0.007 C 
ENDBRANCH  19  21
ENDBRANCH  15  19
ENDBRANCH   1  13
BRANCH   7  27
HETATM   27  C8  UNL     1       0.768  53.056 -25.144  1.00  0.00    -0.007 A 
HETATM   28  C9  UNL     1       1.313  51.813 -25.505  1.00  0.00     0.017 A 
HETATM   29  C10 UNL     1       1.066  51.273 -26.769  1.00  0.00     0.043 A 
HETATM   30  C11 UNL     1       0.282  51.977 -27.676  1.00  0.00     0.116 A 
HETATM   31  F1  UNL     1       0.050  51.457 -28.888  1.00  0.00    -0.206 F 
HETATM   32  C12 UNL     1      -0.258  53.213 -27.345  1.00  0.00     0.043 A 
HETATM   33  C13 UNL     1      -0.011  53.754 -26.082  1.00  0.00     0.017 A 
ENDBRANCH   7  27
TORSDOF 4
ENDMDL
MODEL 4
REMARK minimizedAffinity -9.23345566
REMARK  4 active torsions:
REMARK  status: ('A' for Active; 'I' for Inactive)
REMARK    1  A    between atoms: C2_2  and  N1_3 
REMARK    2  A    between atoms: C2_2  and  C16_25 
REMARK       I    between atoms: N1_3  and  C3_4 
REMARK       I    between atoms: C3_4  and  N2_6 
REMARK    3  A    between atoms: N2_6  and  C4_7 
REMARK    4  A    between atoms: C7_13  and  C8_14 
ROOT
HETATM    1  C4  UNL     1      -2.391  50.942 -26.721  1.00  0.00     0.111 A 
HETATM    2  C5  UNL     1      -1.398  51.824 -27.142  1.00  0.00     0.080 A 
HETATM    3  C6  UNL     1      -0.596  52.357 -26.131  1.00  0.00     0.065 A 
HETATM    4  N3  UNL     1       0.462  53.220 -26.159  1.00  0.00    -0.299 N 
HETATM    5  N4  UNL     1       0.984  53.489 -24.955  1.00  0.00    -0.299 N 
ATOM      6  H4  UNL     1       1.781  54.089 -24.741  1.00  0.00     0.187 HD
HETATM    7  C7  UNL     1       0.223  52.791 -24.093  1.00  0.00     0.072 A 
HETATM    8  C14 UNL     1      -0.777  52.045 -24.790  1.00  0.00     0.036 A 
HETATM    9  C15 UNL     1      -1.790  51.145 -24.460  1.00  0.00     0.105 A 
HETATM   10  N5  UNL     1      -2.584  50.624 -25.428  1.00  0.00    -0.351 N 
ATOM     11  H5  UNL     1      -3.337  49.984 -25.174  1.00  0.00     0.166 HD
HETATM   12  H8  UNL     1       0.884  53.658 -26.970  1.00  0.00     0.187 HD
ENDROOT
BRANCH   1  13
HETATM   13  N2  UNL     1      -3.224  50.411 -27.715  1.00  0.00    -0.295 N 
HETATM   14  C3  UNL     1      -3.814  49.168 -27.684  1.00  0.00     0.322 C 
HETATM   15  N1  UNL     1      -4.682  49.025 -28.755  1.00  0.00    -0.338 N 
HETATM   16  O1  UNL     1      -3.618  48.272 -26.875  1.00  0.00    -0.247 OA
HETATM   17  H5  UNL     1      -5.074  49.878 -29.123  1.00  0.00     0.164 HD
HETATM   18  H6  UNL     1      -3.265  50.896 -28.594  1.00  0.00     0.172 HD
BRANCH  15  19
HETATM   19  C2  UNL     1      -5.475  47.809 -28.954  1.00  0.00     0.086 C 
HETATM   20  C1  UNL     1      -5.443  47.479 -30.448  1.00  0.00     0.032 C 
BRANCH  19  21
HETATM   21  C16 UNL     1      -6.920  47.999 -28.406  1.00  0.00     0.008 C 
HETATM   22  C17 UNL     1      -7.126  47.228 -27.080  1.00  0.00     0.007 C 
HETATM   23  C18 UNL     1      -8.591  46.943 -26.735  1.00  0.00     0.000 C 
HETATM   24  C19 UNL     1      -9.535  47.945 -27.377  1.00  0.00     0.000 C 
HETATM   25  C20 UNL     1      -9.421  47.917 -28.899  1.00  0.00     0.000 C 
HETATM   26  C21 UNL     1      -8.011  47.598 -29.410  1.00  0.00     0.007 C 
ENDBRANCH  19  21
ENDBRANCH  15  19
ENDBRANCH   1  13
BRANCH   7  27
HETATM   27  C8  UNL     1       0.478  52.853 -22.654  1.00  0.00    -0.007 A 
HETATM   28  C9  UNL     1       1.173  53.932 -22.086  1.00  0.00     0.017 A 
HETATM   29  C10 UNL     1       1.408  53.976 -20.710  1.00  0.00     0.043 A 
HETATM   30  C11 UNL     1       0.956  52.940 -19.902  1.00  0.00     0.116 A 
HETATM   31  F1  UNL     1       1.185  52.984 -18.583  1.00  0.00    -0.206 F 
HETATM   32  C12 UNL     1       0.277  51.856 -20.443  1.00  0.00     0.043 A 
HETATM   33  C13 UNL     1       0.041  51.811 -21.819  1.00  0.00     0.017 A 
ENDBRANCH   7  27
TORSDOF 4
ENDMDL
MODEL 5
REMARK minimizedAffinity -9.21938324
REMARK  4 active torsions:
REMARK  status: ('A' for Active; 'I' for Inactive)
REMARK    1  A    between atoms: C2_2  and  N1_3 
REMARK    2  A    between atoms: C2_2  and  C16_25 
REMARK       I    between atoms: N1_3  and  C3_4 
REMARK       I    between atoms: C3_4  and  N2_6 
REMARK    3  A    between atoms: N2_6  and  C4_7 
REMARK    4  A    between atoms: C7_13  and  C8_14 
ROOT
HETATM    1  C4  UNL     1      -2.558  51.095 -26.967  1.00  0.00     0.111 A 
HETATM    2  C5  UNL     1      -1.662  52.057 -27.430  1.00  0.00     0.080 A 
HETATM    3  C6  UNL     1      -0.814  52.604 -26.466  1.00  0.00     0.065 A 
HETATM    4  N3  UNL     1       0.180  53.537 -26.543  1.00  0.00    -0.299 N 
HETATM    5  N4  UNL     1       0.784  53.795 -25.376  1.00  0.00    -0.299 N 
ATOM      6  H4  UNL     1       1.556  54.439 -25.202  1.00  0.00     0.187 HD
HETATM    7  C7  UNL     1       0.145  53.016 -24.485  1.00  0.00     0.072 A 
HETATM    8  C14 UNL     1      -0.860  52.231 -25.130  1.00  0.00     0.036 A 
HETATM    9  C15 UNL     1      -1.782  51.252 -24.756  1.00  0.00     0.105 A 
HETATM   10  N5  UNL     1      -2.620  50.716 -25.677  1.00  0.00    -0.351 N 
ATOM     11  H5  UNL     1      -3.305  50.017 -25.390  1.00  0.00     0.166 HD
HETATM   12  H8  UNL     1       0.503  54.033 -27.366  1.00  0.00     0.187 HD
ENDROOT
BRANCH   1  13
HETATM   13  N2  UNL     1      -3.437  50.547 -27.911  1.00  0.00    -0.295 N 
HETATM   14  C3  UNL     1      -3.874  49.242 -27.933  1.00  0.00     0.322 C 
HETATM   15  N1  UNL     1      -4.840  49.080 -28.914  1.00  0.00    -0.338 N 
HETATM   16  O1  UNL     1      -3.485  48.315 -27.238  1.00  0.00    -0.247 OA
HETATM   17  H5  UNL     1      -5.367  49.905 -29.157  1.00  0.00     0.164 HD
HETATM   18  H6  UNL     1      -3.635  51.092 -28.731  1.00  0.00     0.172 HD
BRANCH  15  19
HETATM   19  C2  UNL     1      -5.508  47.795 -29.140  1.00  0.00     0.086 C 
HETATM   20  C1  UNL     1      -5.108  47.307 -30.533  1.00  0.00     0.032 C 
BRANCH  19  21
HETATM   21  C16 UNL     1      -7.050  47.940 -28.969  1.00  0.00     0.008 C 
HETATM   22  C17 UNL     1      -7.679  46.641 -28.411  1.00  0.00     0.007 C 
HETATM   23  C18 UNL     1      -9.182  46.503 -28.671  1.00  0.00     0.000 C 
HETATM   24  C19 UNL     1      -9.856  47.851 -28.853  1.00  0.00     0.000 C 
HETATM   25  C20 UNL     1      -9.266  48.612 -30.038  1.00  0.00     0.000 C 
HETATM   26  C21 UNL     1      -7.772  48.348 -30.262  1.00  0.00     0.007 C 
ENDBRANCH  19  21
ENDBRANCH  15  19
ENDBRANCH   1  13
BRANCH   7  27
HETATM   27  C8  UNL     1       0.518  53.040 -23.070  1.00  0.00    -0.007 A 
HETATM   28  C9  UNL     1       0.152  51.995 -22.207  1.00  0.00     0.017 A 
HETATM   29  C10 UNL     1       0.517  52.033 -20.858  1.00  0.00     0.043 A 
HETATM   30  C11 UNL     1       1.239  53.117 -20.372  1.00  0.00     0.116 A 
HETATM   31  F1  UNL     1       1.584  53.151 -19.078  1.00  0.00    -0.206 F 
HETATM   32  C12 UNL     1       1.601  54.167 -21.206  1.00  0.00     0.043 A 
HETATM   33  C13 UNL     1       1.237  54.130 -22.553  1.00  0.00     0.017 A 
ENDBRANCH   7  27
TORSDOF 4
ENDMDL
MODEL 6
REMARK minimizedAffinity -9.13615417
REMARK  4 active torsions:
REMARK  status: ('A' for Active; 'I' for Inactive)
REMARK    1  A    between atoms: C2_2  and  N1_3 
REMARK    2  A    between atoms: C2_2  and  C16_25 
REMARK       I    between atoms: N1_3  and  C3_4 
REMARK       I    between atoms: C3_4  and  N2_6 
REMARK    3  A    between atoms: N2_6  and  C4_7 
REMARK    4  A    between atoms: C7_13  and  C8_14 
ROOT
HETATM    1  C4  UNL     1       0.979  53.285 -20.155  1.00  0.00     0.111 A 
HETATM    2  C5  UNL     1       1.530  54.195 -21.055  1.00  0.00     0.080 A 
HETATM    3  C6  UNL     1       1.169  54.016 -22.392  1.00  0.00     0.065 A 
HETATM    4  N3  UNL     1       1.489  54.703 -23.528  1.00  0.00    -0.299 N 
HETATM    5  N4  UNL     1       0.924  54.218 -24.641  1.00  0.00    -0.299 N 
ATOM      6  H4  UNL     1       1.009  54.578 -25.592  1.00  0.00     0.187 HD
HETATM    7  C7  UNL     1       0.218  53.151 -24.225  1.00  0.00     0.072 A 
HETATM    8  C14 UNL     1       0.327  52.994 -22.809  1.00  0.00     0.036 A 
HETATM    9  C15 UNL     1      -0.187  52.134 -21.838  1.00  0.00     0.105 A 
HETATM   10  N5  UNL     1       0.160  52.287 -20.536  1.00  0.00    -0.351 N 
ATOM     11  H5  UNL     1      -0.204  51.640 -19.837  1.00  0.00     0.166 HD
HETATM   12  H8  UNL     1       2.084  55.519 -23.613  1.00  0.00     0.187 HD
ENDROOT
BRANCH   1  13
HETATM   13  N2  UNL     1       1.345  53.429 -18.810  1.00  0.00    -0.295 N 
HETATM   14  C3  UNL     1       1.021  52.557 -17.796  1.00  0.00     0.322 C 
HETATM   15  N1  UNL     1       1.661  52.930 -16.625  1.00  0.00    -0.338 N 
HETATM   16  O1  UNL     1       0.265  51.598 -17.853  1.00  0.00    -0.247 OA
HETATM   17  H5  UNL     1       2.521  53.447 -16.735  1.00  0.00     0.164 HD
HETATM   18  H6  UNL     1       1.726  54.314 -18.526  1.00  0.00     0.172 HD
BRANCH  15  19
HETATM   19  C2  UNL     1       1.525  52.159 -15.386  1.00  0.00     0.086 C 
HETATM   20  C1  UNL     1       2.921  51.672 -14.992  1.00  0.00     0.032 C 
BRANCH  19  21
HETATM   21  C16 UNL     1       0.508  50.994 -15.573  1.00  0.00     0.008 C 
HETATM   22  C17 UNL     1      -0.746  51.193 -14.687  1.00  0.00     0.007 C 
HETATM   23  C18 UNL     1      -1.543  49.912 -14.422  1.00  0.00     0.000 C 
HETATM   24  C19 UNL     1      -1.337  48.875 -15.511  1.00  0.00     0.000 C 
HETATM   25  C20 UNL     1       0.131  48.472 -15.625  1.00  0.00     0.000 C 
HETATM   26  C21 UNL     1       1.112  49.607 -15.307  1.00  0.00     0.007 C 
ENDBRANCH  19  21
ENDBRANCH  15  19
ENDBRANCH   1  13
BRANCH   7  27
HETATM   27  C8  UNL     1      -0.532  52.334 -25.179  1.00  0.00    -0.007 A 
HETATM   28  C9  UNL     1       0.073  51.256 -25.845  1.00  0.00     0.017 A 
HETATM   29  C10 UNL     1      -0.657  50.486 -26.753  1.00  0.00     0.043 A 
HETATM   30  C11 UNL     1      -1.990  50.796 -27.001  1.00  0.00     0.116 A 
HETATM   31  F1  UNL     1      -2.687  50.057 -27.873  1.00  0.00    -0.206 F 
HETATM   32  C12 UNL     1      -2.606  51.865 -26.363  1.00  0.00     0.043 A 
HETATM   33  C13 UNL     1      -1.876  52.636 -25.456  1.00  0.00     0.017 A 
ENDBRANCH   7  27
TORSDOF 4
ENDMDL
MODEL 7
REMARK minimizedAffinity -8.97191048
REMARK  4 active torsions:
REMARK  status: ('A' for Active; 'I' for Inactive)
REMARK    1  A    between atoms: C2_2  and  N1_3 
REMARK    2  A    between atoms: C2_2  and  C16_25 
REMARK       I    between atoms: N1_3  and  C3_4 
REMARK       I    between atoms: C3_4  and  N2_6 
REMARK    3  A    between atoms: N2_6  and  C4_7 
REMARK    4  A    between atoms: C7_13  and  C8_14 
ROOT
HETATM    1  C4  UNL     1      -4.254  48.878 -26.990  1.00  0.00     0.111 A 
HETATM    2  C5  UNL     1      -3.585  49.697 -27.899  1.00  0.00     0.080 A 
HETATM    3  C6  UNL     1      -2.615  50.538 -27.351  1.00  0.00     0.065 A 
HETATM    4  N3  UNL     1      -1.766  51.447 -27.915  1.00  0.00    -0.299 N 
HETATM    5  N4  UNL     1      -0.959  52.062 -27.041  1.00  0.00    -0.299 N 
ATOM      6  H4  UNL     1      -0.242  52.760 -27.238  1.00  0.00     0.187 HD
HETATM    7  C7  UNL     1      -1.308  51.555 -25.844  1.00  0.00     0.072 A 
HETATM    8  C14 UNL     1      -2.337  50.574 -25.991  1.00  0.00     0.036 A 
HETATM    9  C15 UNL     1      -3.048  49.712 -25.156  1.00  0.00     0.105 A 
HETATM   10  N5  UNL     1      -4.000  48.894 -25.669  1.00  0.00    -0.351 N 
ATOM     11  H5  UNL     1      -4.531  48.284 -25.047  1.00  0.00     0.166 HD
HETATM   12  H8  UNL     1      -1.679  51.691 -28.895  1.00  0.00     0.187 HD
ENDROOT
BRANCH   1  13
HETATM   13  N2  UNL     1      -5.249  48.040 -27.512  1.00  0.00    -0.295 N 
HETATM   14  C3  UNL     1      -5.494  47.828 -28.850  1.00  0.00     0.322 C 
HETATM   15  N1  UNL     1      -6.451  46.837 -29.008  1.00  0.00    -0.338 N 
HETATM   16  O1  UNL     1      -4.996  48.415 -29.800  1.00  0.00    -0.247 OA
HETATM   17  H5  UNL     1      -6.517  46.163 -28.260  1.00  0.00     0.164 HD
HETATM   18  H6  UNL     1      -5.947  47.696 -26.877  1.00  0.00     0.172 HD
BRANCH  15  19
HETATM   19  C2  UNL     1      -6.883  46.380 -30.331  1.00  0.00     0.086 C 
HETATM   20  C1  UNL     1      -6.922  44.851 -30.300  1.00  0.00     0.032 C 
BRANCH  19  21
HETATM   21  C16 UNL     1      -5.944  46.940 -31.441  1.00  0.00     0.008 C 
HETATM   22  C17 UNL     1      -6.752  47.605 -32.581  1.00  0.00     0.007 C 
HETATM   23  C18 UNL     1      -5.993  47.731 -33.905  1.00  0.00     0.000 C 
HETATM   24  C19 UNL     1      -4.489  47.761 -33.700  1.00  0.00     0.000 C 
HETATM   25  C20 UNL     1      -3.995  46.485 -33.022  1.00  0.00     0.000 C 
HETATM   26  C21 UNL     1      -4.997  45.884 -32.029  1.00  0.00     0.007 C 
ENDBRANCH  19  21
ENDBRANCH  15  19
ENDBRANCH   1  13
BRANCH   7  27
HETATM   27  C8  UNL     1      -0.649  52.011 -24.620  1.00  0.00    -0.007 A 
HETATM   28  C9  UNL     1       0.236  53.100 -24.636  1.00  0.00     0.017 A 
HETATM   29  C10 UNL     1       0.857  53.523 -23.458  1.00  0.00     0.043 A 
HETATM   30  C11 UNL     1       0.598  52.855 -22.266  1.00  0.00     0.116 A 
HETATM   31  F1  UNL     1       1.196  53.262 -21.139  1.00  0.00    -0.206 F 
HETATM   32  C12 UNL     1      -0.266  51.768 -22.229  1.00  0.00     0.043 A 
HETATM   33  C13 UNL     1      -0.886  51.344 -23.407  1.00  0.00     0.017 A 
ENDBRANCH   7  27
TORSDOF 4
ENDMDL
MODEL 8
REMARK minimizedAffinity -8.96465015
REMARK  4 active torsions:
REMARK  status: ('A' for Active; 'I' for Inactive)
REMARK    1  A    between atoms: C2_2  and  N1_3 
REMARK    2  A    between atoms: C2_2  and  C16_25 
REMARK       I    between atoms: N1_3  and  C3_4 
REMARK       I    between atoms: C3_4  and  N2_6 
REMARK    3  A    between atoms: N2_6  and  C4_7 
REMARK    4  A    between atoms: C7_13  and  C8_14 
ROOT
HETATM    1  C4  UNL     1       0.725  52.940 -19.738  1.00  0.00     0.111 A 
HETATM    2  C5  UNL     1      -0.212  51.927 -19.938  1.00  0.00     0.080 A 
HETATM    3  C6  UNL     1      -0.502  51.628 -21.270  1.00  0.00     0.065 A 
HETATM    4  N3  UNL     1      -1.334  50.709 -21.843  1.00  0.00    -0.299 N 
HETATM    5  N4  UNL     1      -1.329  50.722 -23.182  1.00  0.00    -0.299 N 
ATOM      6  H4  UNL     1      -1.856  50.118 -23.814  1.00  0.00     0.187 HD
HETATM    7  C7  UNL     1      -0.473  51.708 -23.507  1.00  0.00     0.072 A 
HETATM    8  C14 UNL     1       0.089  52.297 -22.333  1.00  0.00     0.036 A 
HETATM    9  C15 UNL     1       1.024  53.291 -22.041  1.00  0.00     0.105 A 
HETATM   10  N5  UNL     1       1.311  53.601 -20.753  1.00  0.00    -0.351 N 
ATOM     11  H5  UNL     1       1.979  54.345 -20.550  1.00  0.00     0.166 HD
HETATM   12  H8  UNL     1      -1.930  50.035 -21.376  1.00  0.00     0.187 HD
ENDROOT
BRANCH   1  13
HETATM   13  N2  UNL     1       1.015  53.276 -18.409  1.00  0.00    -0.295 N 
HETATM   14  C3  UNL     1       1.171  52.381 -17.375  1.00  0.00     0.322 C 
HETATM   15  N1  UNL     1       1.590  53.043 -16.231  1.00  0.00    -0.338 N 
HETATM   16  O1  UNL     1       0.958  51.178 -17.394  1.00  0.00    -0.247 OA
HETATM   17  H5  UNL     1       2.099  53.901 -16.379  1.00  0.00     0.164 HD
HETATM   18  H6  UNL     1       0.940  54.243 -18.148  1.00  0.00     0.172 HD
BRANCH  15  19
HETATM   19  C2  UNL     1       1.869  52.332 -14.981  1.00  0.00     0.086 C 
HETATM   20  C1  UNL     1       3.239  51.666 -15.127  1.00  0.00     0.032 C 
BRANCH  19  21
HETATM   21  C16 UNL     1       0.733  51.316 -14.661  1.00  0.00     0.008 C 
HETATM   22  C17 UNL     1      -0.315  51.926 -13.699  1.00  0.00     0.007 C 
HETATM   23  C18 UNL     1      -1.164  50.895 -12.950  1.00  0.00     0.000 C 
HETATM   24  C19 UNL     1      -1.256  49.577 -13.700  1.00  0.00     0.000 C 
HETATM   25  C20 UNL     1       0.125  48.957 -13.904  1.00  0.00     0.000 C 
HETATM   26  C21 UNL     1       1.246  49.987 -14.087  1.00  0.00     0.007 C 
ENDBRANCH  19  21
ENDBRANCH  15  19
ENDBRANCH   1  13
BRANCH   7  27
HETATM   27  C8  UNL     1      -0.218  52.042 -24.909  1.00  0.00    -0.007 A 
HETATM   28  C9  UNL     1       0.020  51.040 -25.862  1.00  0.00     0.017 A 
HETATM   29  C10 UNL     1       0.260  51.376 -27.196  1.00  0.00     0.043 A 
HETATM   30  C11 UNL     1       0.270  52.713 -27.577  1.00  0.00     0.116 A 
HETATM   31  F1  UNL     1       0.503  53.032 -28.857  1.00  0.00    -0.206 F 
HETATM   32  C12 UNL     1       0.049  53.722 -26.649  1.00  0.00     0.043 A 
HETATM   33  C13 UNL     1      -0.191  53.387 -25.315  1.00  0.00     0.017 A 
ENDBRANCH   7  27
TORSDOF 4
ENDMDL
MODEL 9
REMARK minimizedAffinity -8.70559692
REMARK  4 active torsions:
REMARK  status: ('A' for Active; 'I' for Inactive)
REMARK    1  A    between atoms: C2_2  and  N1_3 
REMARK    2  A    between atoms: C2_2  and  C16_25 
REMARK       I    between atoms: N1_3  and  C3_4 
REMARK       I    between atoms: C3_4  and  N2_6 
REMARK    3  A    between atoms: N2_6  and  C4_7 
REMARK    4  A    between atoms: C7_13  and  C8_14 
ROOT
HETATM    1  C4  UNL     1      -4.562  48.721 -27.527  1.00  0.00     0.111 A 
HETATM    2  C5  UNL     1      -4.473  48.173 -26.248  1.00  0.00     0.080 A 
HETATM    3  C6  UNL     1      -3.620  48.838 -25.366  1.00  0.00     0.065 A 
HETATM    4  N3  UNL     1      -3.297  48.612 -24.059  1.00  0.00    -0.299 N 
HETATM    5  N4  UNL     1      -2.430  49.495 -23.546  1.00  0.00    -0.299 N 
ATOM      6  H4  UNL     1      -2.063  49.529 -22.594  1.00  0.00     0.187 HD
HETATM    7  C7  UNL     1      -2.152  50.327 -24.566  1.00  0.00     0.072 A 
HETATM    8  C14 UNL     1      -2.894  49.964 -25.731  1.00  0.00     0.036 A 
HETATM    9  C15 UNL     1      -3.052  50.450 -27.030  1.00  0.00     0.105 A 
HETATM   10  N5  UNL     1      -3.870  49.811 -27.904  1.00  0.00    -0.351 N 
ATOM     11  H5  UNL     1      -3.961  50.162 -28.857  1.00  0.00     0.166 HD
HETATM   12  H8  UNL     1      -3.638  47.874 -23.453  1.00  0.00     0.187 HD
ENDROOT
BRANCH   1  13
HETATM   13  N2  UNL     1      -5.394  48.058 -28.439  1.00  0.00    -0.295 N 
HETATM   14  C3  UNL     1      -5.308  48.147 -29.810  1.00  0.00     0.322 C 
HETATM   15  N1  UNL     1      -6.189  47.255 -30.401  1.00  0.00    -0.338 N 
HETATM   16  O1  UNL     1      -4.602  48.902 -30.463  1.00  0.00    -0.247 OA
HETATM   17  H5  UNL     1      -6.427  46.441 -29.856  1.00  0.00     0.164 HD
HETATM   18  H6  UNL     1      -6.221  47.617 -28.077  1.00  0.00     0.172 HD
BRANCH  15  19
HETATM   19  C2  UNL     1      -6.286  47.111 -31.856  1.00  0.00     0.086 C 
HETATM   20  C1  UNL     1      -7.648  47.663 -32.284  1.00  0.00     0.032 C 
BRANCH  19  21
HETATM   21  C16 UNL     1      -6.077  45.625 -32.277  1.00  0.00     0.008 C 
HETATM   22  C17 UNL     1      -6.963  44.672 -31.439  1.00  0.00     0.007 C 
HETATM   23  C18 UNL     1      -6.485  43.217 -31.420  1.00  0.00     0.000 C 
HETATM   24  C19 UNL     1      -5.658  42.871 -32.645  1.00  0.00     0.000 C 
HETATM   25  C20 UNL     1      -4.413  43.749 -32.740  1.00  0.00     0.000 C 
HETATM   26  C21 UNL     1      -4.612  45.169 -32.197  1.00  0.00     0.007 C 
ENDBRANCH  19  21
ENDBRANCH  15  19
ENDBRANCH   1  13
BRANCH   7  27
HETATM   27  C8  UNL     1      -1.207  51.430 -24.392  1.00  0.00    -0.007 A 
HETATM   28  C9  UNL     1      -0.927  52.317 -25.443  1.00  0.00     0.017 A 
HETATM   29  C10 UNL     1      -0.022  53.366 -25.261  1.00  0.00     0.043 A 
HETATM   30  C11 UNL     1       0.607  53.525 -24.032  1.00  0.00     0.116 A 
HETATM   31  F1  UNL     1       1.475  54.531 -23.861  1.00  0.00    -0.206 F 
HETATM   32  C12 UNL     1       0.354  52.652 -22.981  1.00  0.00     0.043 A 
HETATM   33  C13 UNL     1      -0.549  51.603 -23.163  1.00  0.00     0.017 A 
ENDBRANCH   7  27
TORSDOF 4
ENDMDL
