MODEL 1
REMARK minimizedAffinity -9.57947159
REMARK  4 active torsions:
REMARK  status: ('A' for Active; 'I' for Inactive)
REMARK    1  A    between atoms: O1_2  and  C2_3 
REMARK    2  A    between atoms: C6_7  and  N1_8 
REMARK    3  A    between atoms: C10_19  and  N6_20 
REMARK    4  A    between atoms: N6_20  and  C11_21 
ROOT
HETATM    1  N1  UNL     1      -1.308  50.965 -25.685  1.00  0.00    -0.340 N 
HETATM    2  C7  UNL     1      -1.054  52.150 -26.310  1.00  0.00     0.138 A 
HETATM    3  N2  UNL     1      -1.497  52.427 -27.586  1.00  0.00    -0.283 N 
HETATM    4  N3  UNL     1      -1.255  53.685 -28.003  1.00  0.00    -0.283 N 
ATOM      5  H3  UNL     1      -1.537  54.126 -28.878  1.00  0.00     0.188 HD
HETATM    6  C8  UNL     1      -0.558  54.218 -26.997  1.00  0.00     0.139 A 
HETATM    7  N4  UNL     1      -0.069  55.477 -26.934  1.00  0.00    -0.337 N 
ATOM      8  H4  UNL     1      -0.182  56.180 -27.664  1.00  0.00     0.168 HD
HETATM    9  C9  UNL     1       0.593  55.675 -25.768  1.00  0.00     0.183 A 
HETATM   10  N5  UNL     1       0.831  54.817 -24.726  1.00  0.00    -0.338 N 
ATOM     11  H5  UNL     1       1.355  55.137 -23.912  1.00  0.00     0.168 HD
HETATM   12  C10 UNL     1       0.367  53.533 -24.777  1.00  0.00     0.124 A 
HETATM   13  C17 UNL     1      -0.360  53.280 -25.948  1.00  0.00     0.099 A 
HETATM   14  H7  UNL     1      -1.218  50.967 -24.666  1.00  0.00     0.167 HD
HETATM   15  H8  UNL     1      -2.010  51.805 -28.200  1.00  0.00     0.188 HD
ENDROOT
BRANCH   1  16
HETATM   16  C6  UNL     1      -2.401  50.117 -26.012  1.00  0.00     0.036 A 
HETATM   17  C5  UNL     1      -3.006  49.288 -25.060  1.00  0.00     0.029 A 
HETATM   18  C4  UNL     1      -4.021  48.409 -25.434  1.00  0.00     0.005 A 
HETATM   19  C3  UNL     1      -4.416  48.334 -26.770  1.00  0.00     0.037 A 
HETATM   20  C2  UNL     1      -3.795  49.122 -27.740  1.00  0.00     0.070 A 
HETATM   21  C18 UNL     1      -2.777  49.999 -27.359  1.00  0.00     0.066 A 
BRANCH  20  22
HETATM   22  O1  UNL     1      -4.265  48.937 -29.011  1.00  0.00    -0.356 OA
HETATM   23  C1  UNL     1      -5.395  48.087 -29.163  1.00  0.00     0.210 C 
ENDBRANCH  20  22
ENDBRANCH   1  16
BRANCH  12  24
HETATM   24  N6  UNL     1       0.656  52.563 -23.806  1.00  0.00    -0.342 N 
HETATM   25  H10 UNL     1       1.282  51.860 -24.181  1.00  0.00     0.167 HD
BRANCH  24  26
HETATM   26  C11 UNL     1       0.670  52.649 -22.401  1.00  0.00     0.035 A 
HETATM   27  C12 UNL     1       1.159  53.760 -21.704  1.00  0.00     0.029 A 
HETATM   28  C13 UNL     1       1.113  53.820 -20.306  1.00  0.00     0.004 A 
HETATM   29  C14 UNL     1       0.557  52.770 -19.581  1.00  0.00     0.024 A 
HETATM   30  C15 UNL     1       0.045  51.670 -20.261  1.00  0.00     0.036 A 
HETATM   31 CL1  UNL     1      -0.659  50.371 -19.377  1.00  0.00    -0.084 Cl
HETATM   32  C16 UNL     1       0.092  51.610 -21.656  1.00  0.00     0.053 A 
ENDBRANCH  24  26
ENDBRANCH  12  24
TORSDOF 4
ENDMDL
MODEL 2
REMARK minimizedAffinity -9.10671425
REMARK  4 active torsions:
REMARK  status: ('A' for Active; 'I' for Inactive)
REMARK    1  A    between atoms: O1_2  and  C2_3 
REMARK    2  A    between atoms: C6_7  and  N1_8 
REMARK    3  A    between atoms: C10_19  and  N6_20 
REMARK    4  A    between atoms: N6_20  and  C11_21 
ROOT
HETATM    1  N1  UNL     1      -1.292  50.747 -25.586  1.00  0.00    -0.340 N 
HETATM    2  C7  UNL     1      -1.112  51.903 -26.288  1.00  0.00     0.138 A 
HETATM    3  N2  UNL     1      -1.622  52.089 -27.556  1.00  0.00    -0.283 N 
HETATM    4  N3  UNL     1      -1.449  53.328 -28.054  1.00  0.00    -0.283 N 
ATOM      5  H3  UNL     1      -1.786  53.706 -28.939  1.00  0.00     0.188 HD
HETATM    6  C8  UNL     1      -0.728  53.943 -27.114  1.00  0.00     0.139 A 
HETATM    7  N4  UNL     1      -0.287  55.221 -27.145  1.00  0.00    -0.337 N 
ATOM      8  H4  UNL     1      -0.460  55.876 -27.908  1.00  0.00     0.168 HD
HETATM    9  C9  UNL     1       0.418  55.511 -26.024  1.00  0.00     0.183 A 
HETATM   10  N5  UNL     1       0.736  54.724 -24.948  1.00  0.00    -0.338 N 
ATOM     11  H5  UNL     1       1.283  55.110 -24.178  1.00  0.00     0.168 HD
HETATM   12  C10 UNL     1       0.320  53.423 -24.904  1.00  0.00     0.124 A 
HETATM   13  C17 UNL     1      -0.448  53.077 -26.023  1.00  0.00     0.099 A 
HETATM   14  H7  UNL     1      -1.156  50.813 -24.573  1.00  0.00     0.167 HD
HETATM   15  H8  UNL     1      -2.138  51.413 -28.109  1.00  0.00     0.188 HD
ENDROOT
BRANCH   1  16
HETATM   16  C6  UNL     1      -2.364  49.843 -25.813  1.00  0.00     0.036 A 
HETATM   17  C5  UNL     1      -2.712  49.414 -27.099  1.00  0.00     0.029 A 
HETATM   18  C4  UNL     1      -3.821  48.592 -27.293  1.00  0.00     0.005 A 
HETATM   19  C3  UNL     1      -4.605  48.217 -26.202  1.00  0.00     0.037 A 
HETATM   20  C2  UNL     1      -4.297  48.669 -24.917  1.00  0.00     0.070 A 
HETATM   21  C18 UNL     1      -3.187  49.495 -24.731  1.00  0.00     0.066 A 
BRANCH  20  22
HETATM   22  O1  UNL     1      -5.157  48.242 -23.943  1.00  0.00    -0.356 OA
HETATM   23  C1  UNL     1      -4.619  48.069 -22.637  1.00  0.00     0.210 C 
ENDBRANCH  20  22
ENDBRANCH   1  16
BRANCH  12  24
HETATM   24  N6  UNL     1       0.690  52.523 -23.894  1.00  0.00    -0.342 N 
HETATM   25  H10 UNL     1       1.410  51.893 -24.226  1.00  0.00     0.167 HD
BRANCH  24  26
HETATM   26  C11 UNL     1       0.643  52.648 -22.493  1.00  0.00     0.035 A 
HETATM   27  C12 UNL     1       1.169  53.746 -21.801  1.00  0.00     0.029 A 
HETATM   28  C13 UNL     1       1.060  53.848 -20.409  1.00  0.00     0.004 A 
HETATM   29  C14 UNL     1       0.403  52.857 -19.686  1.00  0.00     0.024 A 
HETATM   30  C15 UNL     1      -0.146  51.773 -20.362  1.00  0.00     0.036 A 
HETATM   31 CL1  UNL     1      -0.975  50.548 -19.481  1.00  0.00    -0.084 Cl
HETATM   32  C16 UNL     1      -0.037  51.670 -21.751  1.00  0.00     0.053 A 
ENDBRANCH  24  26
ENDBRANCH  12  24
TORSDOF 4
ENDMDL
MODEL 3
REMARK minimizedAffinity -9.1061573
REMARK  4 active torsions:
REMARK  status: ('A' for Active; 'I' for Inactive)
REMARK    1  A    between atoms: O1_2  and  C2_3 
REMARK    2  A    between atoms: C6_7  and  N1_8 
REMARK    3  A    between atoms: C10_19  and  N6_20 
REMARK    4  A    between atoms: N6_20  and  C11_21 
ROOT
HETATM    1  N1  UNL     1      -0.384  52.181 -23.616  1.00  0.00    -0.340 N 
HETATM    2  C7  UNL     1      -0.297  52.942 -24.744  1.00  0.00     0.138 A 
HETATM    3  N2  UNL     1      -0.164  54.314 -24.707  1.00  0.00    -0.283 N 
HETATM    4  N3  UNL     1       0.023  54.892 -25.909  1.00  0.00    -0.283 N 
ATOM      5  H3  UNL     1       0.199  55.875 -26.117  1.00  0.00     0.188 HD
HETATM    6  C8  UNL     1      -0.076  53.872 -26.764  1.00  0.00     0.139 A 
HETATM    7  N4  UNL     1       0.034  53.936 -28.110  1.00  0.00    -0.337 N 
ATOM      8  H4  UNL     1       0.212  54.790 -28.637  1.00  0.00     0.168 HD
HETATM    9  C9  UNL     1      -0.125  52.708 -28.662  1.00  0.00     0.183 A 
HETATM   10  N5  UNL     1      -0.386  51.498 -28.073  1.00  0.00    -0.338 N 
ATOM     11  H5  UNL     1      -0.476  50.660 -28.648  1.00  0.00     0.168 HD
HETATM   12  C10 UNL     1      -0.524  51.413 -26.716  1.00  0.00     0.124 A 
HETATM   13  C17 UNL     1      -0.332  52.649 -26.087  1.00  0.00     0.099 A 
HETATM   14  H7  UNL     1      -0.171  51.186 -23.728  1.00  0.00     0.167 HD
HETATM   15  H8  UNL     1      -0.149  54.901 -23.880  1.00  0.00     0.188 HD
ENDROOT
BRANCH   1  16
HETATM   16  C6  UNL     1       0.122  52.583 -22.350  1.00  0.00     0.036 A 
HETATM   17  C5  UNL     1       1.099  53.578 -22.225  1.00  0.00     0.029 A 
HETATM   18  C4  UNL     1       1.632  53.889 -20.975  1.00  0.00     0.005 A 
HETATM   19  C3  UNL     1       1.211  53.186 -19.847  1.00  0.00     0.037 A 
HETATM   20  C2  UNL     1       0.268  52.162 -19.959  1.00  0.00     0.070 A 
HETATM   21  C18 UNL     1      -0.260  51.853 -21.214  1.00  0.00     0.066 A 
BRANCH  20  22
HETATM   22  O1  UNL     1      -0.042  51.543 -18.779  1.00  0.00    -0.356 OA
HETATM   23  C1  UNL     1       0.553  52.067 -17.599  1.00  0.00     0.210 C 
ENDBRANCH  20  22
ENDBRANCH   1  16
BRANCH  12  24
HETATM   24  N6  UNL     1      -0.895  50.237 -26.046  1.00  0.00    -0.342 N 
HETATM   25  H10 UNL     1      -0.268  50.057 -25.271  1.00  0.00     0.167 HD
BRANCH  24  26
HETATM   26  C11 UNL     1      -2.148  49.609 -25.922  1.00  0.00     0.035 A 
HETATM   27  C12 UNL     1      -2.806  49.440 -24.698  1.00  0.00     0.029 A 
HETATM   28  C13 UNL     1      -4.073  48.848 -24.629  1.00  0.00     0.004 A 
HETATM   29  C14 UNL     1      -4.713  48.430 -25.792  1.00  0.00     0.024 A 
HETATM   30  C15 UNL     1      -4.083  48.614 -27.018  1.00  0.00     0.036 A 
HETATM   31 CL1  UNL     1      -4.869  48.116 -28.466  1.00  0.00    -0.084 Cl
HETATM   32  C16 UNL     1      -2.818  49.204 -27.088  1.00  0.00     0.053 A 
ENDBRANCH  24  26
ENDBRANCH  12  24
TORSDOF 4
ENDMDL
MODEL 4
REMARK minimizedAffinity -8.73649311
REMARK  4 active torsions:
REMARK  status: ('A' for Active; 'I' for Inactive)
REMARK    1  A    between atoms: O1_2  and  C2_3 
REMARK    2  A    between atoms: C6_7  and  N1_8 
REMARK    3  A    between atoms: C10_19  and  N6_20 
REMARK    4  A    between atoms: N6_20  and  C11_21 
ROOT
HETATM    1  N1  UNL     1      -1.929  50.335 -24.698  1.00  0.00    -0.340 N 
HETATM    2  C7  UNL     1      -1.910  51.128 -25.809  1.00  0.00     0.138 A 
HETATM    3  N2  UNL     1      -2.773  50.944 -26.867  1.00  0.00    -0.283 N 
HETATM    4  N3  UNL     1      -2.693  51.885 -27.827  1.00  0.00    -0.283 N 
ATOM      5  H3  UNL     1      -3.265  51.983 -28.666  1.00  0.00     0.188 HD
HETATM    6  C8  UNL     1      -1.686  52.660 -27.419  1.00  0.00     0.139 A 
HETATM    7  N4  UNL     1      -1.206  53.755 -28.050  1.00  0.00    -0.337 N 
ATOM      8  H4  UNL     1      -1.568  54.123 -28.930  1.00  0.00     0.168 HD
HETATM    9  C9  UNL     1      -0.176  54.296 -27.354  1.00  0.00     0.183 A 
HETATM   10  N5  UNL     1       0.413  53.890 -26.184  1.00  0.00    -0.338 N 
ATOM     11  H5  UNL     1       1.190  54.423 -25.794  1.00  0.00     0.168 HD
HETATM   12  C10 UNL     1      -0.040  52.774 -25.540  1.00  0.00     0.124 A 
HETATM   13  C17 UNL     1      -1.133  52.193 -26.197  1.00  0.00     0.099 A 
HETATM   14  H7  UNL     1      -1.486  50.725 -23.862  1.00  0.00     0.167 HD
HETATM   15  H8  UNL     1      -3.470  50.213 -26.964  1.00  0.00     0.188 HD
ENDROOT
BRANCH   1  16
HETATM   16  C6  UNL     1      -3.067  49.600 -24.271  1.00  0.00     0.036 A 
HETATM   17  C5  UNL     1      -3.865  48.881 -25.170  1.00  0.00     0.029 A 
HETATM   18  C4  UNL     1      -5.021  48.239 -24.729  1.00  0.00     0.005 A 
HETATM   19  C3  UNL     1      -5.400  48.336 -23.391  1.00  0.00     0.037 A 
HETATM   20  C2  UNL     1      -4.640  49.083 -22.489  1.00  0.00     0.070 A 
HETATM   21  C18 UNL     1      -3.485  49.726 -22.938  1.00  0.00     0.066 A 
BRANCH  20  22
HETATM   22  O1  UNL     1      -5.134  49.110 -21.214  1.00  0.00    -0.356 OA
HETATM   23  C1  UNL     1      -5.573  50.369 -20.718  1.00  0.00     0.210 C 
ENDBRANCH  20  22
ENDBRANCH   1  16
BRANCH  12  24
HETATM   24  N6  UNL     1       0.572  52.233 -24.400  1.00  0.00    -0.342 N 
HETATM   25  H10 UNL     1       1.361  51.653 -24.661  1.00  0.00     0.167 HD
BRANCH  24  26
HETATM   26  C11 UNL     1       0.627  52.709 -23.076  1.00  0.00     0.035 A 
HETATM   27  C12 UNL     1       1.275  53.896 -22.713  1.00  0.00     0.029 A 
HETATM   28  C13 UNL     1       1.267  54.352 -21.389  1.00  0.00     0.004 A 
HETATM   29  C14 UNL     1       0.591  53.635 -20.407  1.00  0.00     0.024 A 
HETATM   30  C15 UNL     1      -0.079  52.467 -20.758  1.00  0.00     0.036 A 
HETATM   31 CL1  UNL     1      -0.933  51.578 -19.556  1.00  0.00    -0.084 Cl
HETATM   32  C16 UNL     1      -0.070  52.010 -22.079  1.00  0.00     0.053 A 
ENDBRANCH  24  26
ENDBRANCH  12  24
TORSDOF 4
ENDMDL
MODEL 5
REMARK minimizedAffinity -8.4638567
REMARK  4 active torsions:
REMARK  status: ('A' for Active; 'I' for Inactive)
REMARK    1  A    between atoms: O1_2  and  C2_3 
REMARK    2  A    between atoms: C6_7  and  N1_8 
REMARK    3  A    between atoms: C10_19  and  N6_20 
REMARK    4  A    between atoms: N6_20  and  C11_21 
ROOT
HETATM    1  N1  UNL     1      -1.712  51.168 -23.262  1.00  0.00    -0.340 N 
HETATM    2  C7  UNL     1      -3.039  51.260 -22.958  1.00  0.00     0.138 A 
HETATM    3  N2  UNL     1      -3.946  51.902 -23.774  1.00  0.00    -0.283 N 
HETATM    4  N3  UNL     1      -5.229  51.797 -23.378  1.00  0.00    -0.283 N 
ATOM      5  H3  UNL     1      -6.066  52.141 -23.850  1.00  0.00     0.188 HD
HETATM    6  C8  UNL     1      -5.144  51.137 -22.221  1.00  0.00     0.139 A 
HETATM    7  N4  UNL     1      -6.174  50.785 -21.419  1.00  0.00    -0.337 N 
ATOM      8  H4  UNL     1      -7.155  50.986 -21.611  1.00  0.00     0.168 HD
HETATM    9  C9  UNL     1      -5.722  50.127 -20.322  1.00  0.00     0.183 A 
HETATM   10  N5  UNL     1      -4.444  49.815 -19.940  1.00  0.00    -0.338 N 
ATOM     11  H5  UNL     1      -4.282  49.308 -19.070  1.00  0.00     0.168 HD
HETATM   12  C10 UNL     1      -3.386  50.181 -20.723  1.00  0.00     0.124 A 
HETATM   13  C17 UNL     1      -3.796  50.833 -21.893  1.00  0.00     0.099 A 
HETATM   14  H7  UNL     1      -1.191  50.432 -22.779  1.00  0.00     0.167 HD
HETATM   15  H8  UNL     1      -3.745  52.390 -24.640  1.00  0.00     0.188 HD
ENDROOT
BRANCH   1  16
HETATM   16  C6  UNL     1      -1.196  51.255 -24.584  1.00  0.00     0.036 A 
HETATM   17  C5  UNL     1      -1.838  50.649 -25.671  1.00  0.00     0.029 A 
HETATM   18  C4  UNL     1      -1.261  50.684 -26.939  1.00  0.00     0.005 A 
HETATM   19  C3  UNL     1      -0.024  51.301 -27.121  1.00  0.00     0.037 A 
HETATM   20  C2  UNL     1       0.651  51.873 -26.041  1.00  0.00     0.070 A 
HETATM   21  C18 UNL     1       0.068  51.832 -24.772  1.00  0.00     0.066 A 
BRANCH  20  22
HETATM   22  O1  UNL     1       1.861  52.427 -26.354  1.00  0.00    -0.356 OA
HETATM   23  C1  UNL     1       2.662  51.734 -27.304  1.00  0.00     0.210 C 
ENDBRANCH  20  22
ENDBRANCH   1  16
BRANCH  12  24
HETATM   24  N6  UNL     1      -2.045  49.995 -20.355  1.00  0.00    -0.342 N 
HETATM   25  H10 UNL     1      -1.570  49.405 -21.028  1.00  0.00     0.167 HD
BRANCH  24  26
HETATM   26  C11 UNL     1      -1.180  50.809 -19.600  1.00  0.00     0.035 A 
HETATM   27  C12 UNL     1      -0.812  50.522 -18.280  1.00  0.00     0.029 A 
HETATM   28  C13 UNL     1       0.086  51.339 -17.582  1.00  0.00     0.004 A 
HETATM   29  C14 UNL     1       0.648  52.450 -18.204  1.00  0.00     0.024 A 
HETATM   30  C15 UNL     1       0.310  52.733 -19.524  1.00  0.00     0.036 A 
HETATM   31 CL1  UNL     1       1.009  54.096 -20.310  1.00  0.00    -0.084 Cl
HETATM   32  C16 UNL     1      -0.587  51.919 -20.220  1.00  0.00     0.053 A 
ENDBRANCH  24  26
ENDBRANCH  12  24
TORSDOF 4
ENDMDL
MODEL 6
REMARK minimizedAffinity -8.41644859
REMARK  4 active torsions:
REMARK  status: ('A' for Active; 'I' for Inactive)
REMARK    1  A    between atoms: O1_2  and  C2_3 
REMARK    2  A    between atoms: C6_7  and  N1_8 
REMARK    3  A    between atoms: C10_19  and  N6_20 
REMARK    4  A    between atoms: N6_20  and  C11_21 
ROOT
HETATM    1  N1  UNL     1      -1.668  51.866 -23.112  1.00  0.00    -0.340 N 
HETATM    2  C7  UNL     1      -0.867  52.465 -24.040  1.00  0.00     0.138 A 
HETATM    3  N2  UNL     1       0.393  52.936 -23.742  1.00  0.00    -0.283 N 
HETATM    4  N3  UNL     1       1.087  53.394 -24.802  1.00  0.00    -0.283 N 
ATOM      5  H3  UNL     1       2.048  53.734 -24.829  1.00  0.00     0.188 HD
HETATM    6  C8  UNL     1       0.216  53.295 -25.809  1.00  0.00     0.139 A 
HETATM    7  N4  UNL     1       0.435  53.638 -27.098  1.00  0.00    -0.337 N 
ATOM      8  H4  UNL     1       1.311  54.018 -27.457  1.00  0.00     0.168 HD
HETATM    9  C9  UNL     1      -0.670  53.409 -27.849  1.00  0.00     0.183 A 
HETATM   10  N5  UNL     1      -1.902  52.926 -27.488  1.00  0.00    -0.338 N 
ATOM     11  H5  UNL     1      -2.631  52.815 -28.192  1.00  0.00     0.168 HD
HETATM   12  C10 UNL     1      -2.153  52.595 -26.187  1.00  0.00     0.124 A 
HETATM   13  C17 UNL     1      -1.031  52.776 -25.369  1.00  0.00     0.099 A 
HETATM   14  H7  UNL     1      -2.427  51.288 -23.481  1.00  0.00     0.167 HD
HETATM   15  H8  UNL     1       0.847  52.927 -22.835  1.00  0.00     0.188 HD
ENDROOT
BRANCH   1  16
HETATM   16  C6  UNL     1      -1.178  51.227 -21.941  1.00  0.00     0.036 A 
HETATM   17  C5  UNL     1      -1.116  49.832 -21.830  1.00  0.00     0.029 A 
HETATM   18  C4  UNL     1      -0.707  49.238 -20.637  1.00  0.00     0.005 A 
HETATM   19  C3  UNL     1      -0.386  50.036 -19.539  1.00  0.00     0.037 A 
HETATM   20  C2  UNL     1      -0.483  51.426 -19.619  1.00  0.00     0.070 A 
HETATM   21  C18 UNL     1      -0.895  52.015 -20.816  1.00  0.00     0.066 A 
BRANCH  20  22
HETATM   22  O1  UNL     1      -0.157  52.087 -18.466  1.00  0.00    -0.356 OA
HETATM   23  C1  UNL     1       0.328  51.299 -17.386  1.00  0.00     0.210 C 
ENDBRANCH  20  22
ENDBRANCH   1  16
BRANCH  12  24
HETATM   24  N6  UNL     1      -3.414  52.196 -25.717  1.00  0.00    -0.342 N 
HETATM   25  H10 UNL     1      -4.133  52.829 -26.046  1.00  0.00     0.167 HD
BRANCH  24  26
HETATM   26  C11 UNL     1      -3.896  50.925 -25.354  1.00  0.00     0.035 A 
HETATM   27  C12 UNL     1      -3.428  49.734 -25.923  1.00  0.00     0.029 A 
HETATM   28  C13 UNL     1      -3.907  48.488 -25.499  1.00  0.00     0.004 A 
HETATM   29  C14 UNL     1      -4.852  48.413 -24.481  1.00  0.00     0.024 A 
HETATM   30  C15 UNL     1      -5.308  49.586 -23.889  1.00  0.00     0.036 A 
HETATM   31 CL1  UNL     1      -6.466  49.508 -22.617  1.00  0.00    -0.084 Cl
HETATM   32  C16 UNL     1      -4.831  50.830 -24.312  1.00  0.00     0.053 A 
ENDBRANCH  24  26
ENDBRANCH  12  24
TORSDOF 4
ENDMDL
MODEL 7
REMARK minimizedAffinity -8.35933781
REMARK  4 active torsions:
REMARK  status: ('A' for Active; 'I' for Inactive)
REMARK    1  A    between atoms: O1_2  and  C2_3 
REMARK    2  A    between atoms: C6_7  and  N1_8 
REMARK    3  A    between atoms: C10_19  and  N6_20 
REMARK    4  A    between atoms: N6_20  and  C11_21 
ROOT
HETATM    1  N1  UNL     1      -4.552  49.276 -25.212  1.00  0.00    -0.340 N 
HETATM    2  C7  UNL     1      -5.210  49.768 -24.122  1.00  0.00     0.138 A 
HETATM    3  N2  UNL     1      -6.545  50.110 -24.153  1.00  0.00    -0.283 N 
HETATM    4  N3  UNL     1      -7.058  50.471 -22.960  1.00  0.00    -0.283 N 
ATOM      5  H3  UNL     1      -8.024  50.709 -22.734  1.00  0.00     0.188 HD
HETATM    6  C8  UNL     1      -6.001  50.443 -22.145  1.00  0.00     0.139 A 
HETATM    7  N4  UNL     1      -5.996  50.734 -20.825  1.00  0.00    -0.337 N 
ATOM      8  H4  UNL     1      -6.817  51.013 -20.289  1.00  0.00     0.168 HD
HETATM    9  C9  UNL     1      -4.747  50.605 -20.312  1.00  0.00     0.183 A 
HETATM   10  N5  UNL     1      -3.569  50.262 -20.923  1.00  0.00    -0.338 N 
ATOM     11  H5  UNL     1      -2.708  50.212 -20.378  1.00  0.00     0.168 HD
HETATM   12  C10 UNL     1      -3.546  49.986 -22.261  1.00  0.00     0.124 A 
HETATM   13  C17 UNL     1      -4.820  50.066 -22.838  1.00  0.00     0.099 A 
HETATM   14  H7  UNL     1      -3.682  48.772 -25.020  1.00  0.00     0.167 HD
HETATM   15  H8  UNL     1      -7.164  50.073 -24.955  1.00  0.00     0.188 HD
ENDROOT
BRANCH   1  16
HETATM   16  C6  UNL     1      -5.197  48.613 -26.291  1.00  0.00     0.036 A 
HETATM   17  C5  UNL     1      -6.342  47.830 -26.102  1.00  0.00     0.029 A 
HETATM   18  C4  UNL     1      -6.900  47.128 -27.169  1.00  0.00     0.005 A 
HETATM   19  C3  UNL     1      -6.298  47.183 -28.426  1.00  0.00     0.037 A 
HETATM   20  C2  UNL     1      -5.132  47.925 -28.623  1.00  0.00     0.070 A 
HETATM   21  C18 UNL     1      -4.577  48.624 -27.549  1.00  0.00     0.066 A 
BRANCH  20  22
HETATM   22  O1  UNL     1      -4.637  47.878 -29.897  1.00  0.00    -0.356 OA
HETATM   23  C1  UNL     1      -5.538  48.189 -30.952  1.00  0.00     0.210 C 
ENDBRANCH  20  22
ENDBRANCH   1  16
BRANCH  12  24
HETATM   24  N6  UNL     1      -2.370  49.731 -22.982  1.00  0.00    -0.342 N 
HETATM   25  H10 UNL     1      -2.433  48.841 -23.462  1.00  0.00     0.167 HD
BRANCH  24  26
HETATM   26  C11 UNL     1      -1.427  50.614 -23.540  1.00  0.00     0.035 A 
HETATM   27  C12 UNL     1      -0.670  51.512 -22.777  1.00  0.00     0.029 A 
HETATM   28  C13 UNL     1       0.288  52.342 -23.371  1.00  0.00     0.004 A 
HETATM   29  C14 UNL     1       0.518  52.273 -24.742  1.00  0.00     0.024 A 
HETATM   30  C15 UNL     1      -0.209  51.369 -25.509  1.00  0.00     0.036 A 
HETATM   31 CL1  UNL     1       0.077  51.262 -27.203  1.00  0.00    -0.084 Cl
HETATM   32  C16 UNL     1      -1.166  50.541 -24.916  1.00  0.00     0.053 A 
ENDBRANCH  24  26
ENDBRANCH  12  24
TORSDOF 4
ENDMDL
MODEL 8
REMARK minimizedAffinity -8.35893059
REMARK  4 active torsions:
REMARK  status: ('A' for Active; 'I' for Inactive)
REMARK    1  A    between atoms: O1_2  and  C2_3 
REMARK    2  A    between atoms: C6_7  and  N1_8 
REMARK    3  A    between atoms: C10_19  and  N6_20 
REMARK    4  A    between atoms: N6_20  and  C11_21 
ROOT
HETATM    1  N1  UNL     1      -2.360  49.990 -25.742  1.00  0.00    -0.340 N 
HETATM    2  C7  UNL     1      -1.807  51.089 -26.332  1.00  0.00     0.138 A 
HETATM    3  N2  UNL     1      -1.964  51.371 -27.672  1.00  0.00    -0.283 N 
HETATM    4  N3  UNL     1      -1.448  52.553 -28.061  1.00  0.00    -0.283 N 
ATOM      5  H3  UNL     1      -1.493  52.990 -28.981  1.00  0.00     0.188 HD
HETATM    6  C8  UNL     1      -0.863  53.016 -26.954  1.00  0.00     0.139 A 
HETATM    7  N4  UNL     1      -0.193  54.183 -26.825  1.00  0.00    -0.337 N 
ATOM      8  H4  UNL     1      -0.057  54.859 -27.576  1.00  0.00     0.168 HD
HETATM    9  C9  UNL     1       0.274  54.330 -25.561  1.00  0.00     0.183 A 
HETATM   10  N5  UNL     1       0.178  53.496 -24.478  1.00  0.00    -0.338 N 
ATOM     11  H5  UNL     1       0.594  53.767 -23.587  1.00  0.00     0.168 HD
HETATM   12  C10 UNL     1      -0.474  52.300 -24.590  1.00  0.00     0.124 A 
HETATM   13  C17 UNL     1      -1.013  52.111 -25.869  1.00  0.00     0.099 A 
HETATM   14  H7  UNL     1      -2.454  50.027 -24.724  1.00  0.00     0.167 HD
HETATM   15  H8  UNL     1      -2.455  50.808 -28.358  1.00  0.00     0.188 HD
ENDROOT
BRANCH   1  16
HETATM   16  C6  UNL     1      -3.501  49.311 -26.249  1.00  0.00     0.036 A 
HETATM   17  C5  UNL     1      -4.518  48.841 -25.408  1.00  0.00     0.029 A 
HETATM   18  C4  UNL     1      -5.581  48.108 -25.930  1.00  0.00     0.005 A 
HETATM   19  C3  UNL     1      -5.620  47.816 -27.294  1.00  0.00     0.037 A 
HETATM   20  C2  UNL     1      -4.594  48.241 -28.140  1.00  0.00     0.070 A 
HETATM   21  C18 UNL     1      -3.529  48.973 -27.610  1.00  0.00     0.066 A 
BRANCH  20  22
HETATM   22  O1  UNL     1      -4.746  47.872 -29.448  1.00  0.00    -0.356 OA
HETATM   23  C1  UNL     1      -6.058  47.949 -29.992  1.00  0.00     0.210 C 
ENDBRANCH  20  22
ENDBRANCH   1  16
BRANCH  12  24
HETATM   24  N6  UNL     1      -0.526  51.345 -23.564  1.00  0.00    -0.342 N 
HETATM   25  H10 UNL     1       0.205  50.654 -23.684  1.00  0.00     0.167 HD
BRANCH  24  26
HETATM   26  C11 UNL     1      -1.008  51.441 -22.246  1.00  0.00     0.035 A 
HETATM   27  C12 UNL     1      -2.312  51.086 -21.876  1.00  0.00     0.029 A 
HETATM   28  C13 UNL     1      -2.734  51.157 -20.543  1.00  0.00     0.004 A 
HETATM   29  C14 UNL     1      -1.849  51.570 -19.551  1.00  0.00     0.024 A 
HETATM   30  C15 UNL     1      -0.544  51.902 -19.900  1.00  0.00     0.036 A 
HETATM   31 CL1  UNL     1       0.566  52.399 -18.681  1.00  0.00    -0.084 Cl
HETATM   32  C16 UNL     1      -0.122  51.832 -21.230  1.00  0.00     0.053 A 
ENDBRANCH  24  26
ENDBRANCH  12  24
TORSDOF 4
ENDMDL
MODEL 9
REMARK minimizedAffinity -8.33795357
REMARK  4 active torsions:
REMARK  status: ('A' for Active; 'I' for Inactive)
REMARK    1  A    between atoms: O1_2  and  C2_3 
REMARK    2  A    between atoms: C6_7  and  N1_8 
REMARK    3  A    between atoms: C10_19  and  N6_20 
REMARK    4  A    between atoms: N6_20  and  C11_21 
ROOT
HETATM    1  N1  UNL     1      -0.971  50.942 -23.937  1.00  0.00    -0.340 N 
HETATM    2  C7  UNL     1      -2.142  50.262 -23.770  1.00  0.00     0.138 A 
HETATM    3  N2  UNL     1      -3.236  50.455 -24.586  1.00  0.00    -0.283 N 
HETATM    4  N3  UNL     1      -4.266  49.619 -24.350  1.00  0.00    -0.283 N 
ATOM      5  H3  UNL     1      -5.146  49.542 -24.859  1.00  0.00     0.188 HD
HETATM    6  C8  UNL     1      -3.860  48.917 -23.290  1.00  0.00     0.139 A 
HETATM    7  N4  UNL     1      -4.550  47.941 -22.659  1.00  0.00    -0.337 N 
ATOM      8  H4  UNL     1      -5.481  47.621 -22.929  1.00  0.00     0.168 HD
HETATM    9  C9  UNL     1      -3.837  47.446 -21.618  1.00  0.00     0.183 A 
HETATM   10  N5  UNL     1      -2.600  47.799 -21.144  1.00  0.00    -0.338 N 
ATOM     11  H5  UNL     1      -2.206  47.315 -20.337  1.00  0.00     0.168 HD
HETATM   12  C10 UNL     1      -1.893  48.799 -21.751  1.00  0.00     0.124 A 
HETATM   13  C17 UNL     1      -2.568  49.323 -22.861  1.00  0.00     0.099 A 
HETATM   14  H7  UNL     1      -0.144  50.524 -23.502  1.00  0.00     0.167 HD
HETATM   15  H8  UNL     1      -3.315  51.116 -25.351  1.00  0.00     0.188 HD
ENDROOT
BRANCH   1  16
HETATM   16  C6  UNL     1      -0.559  51.514 -25.171  1.00  0.00     0.036 A 
HETATM   17  C5  UNL     1      -0.123  50.727 -26.244  1.00  0.00     0.029 A 
HETATM   18  C4  UNL     1       0.352  51.326 -27.409  1.00  0.00     0.005 A 
HETATM   19  C3  UNL     1       0.421  52.716 -27.497  1.00  0.00     0.037 A 
HETATM   20  C2  UNL     1       0.031  53.516 -26.421  1.00  0.00     0.070 A 
HETATM   21  C18 UNL     1      -0.442  52.910 -25.255  1.00  0.00     0.066 A 
BRANCH  20  22
HETATM   22  O1  UNL     1       0.167  54.860 -26.633  1.00  0.00    -0.356 OA
HETATM   23  C1  UNL     1       0.392  55.675 -25.489  1.00  0.00     0.210 C 
ENDBRANCH  20  22
ENDBRANCH   1  16
BRANCH  12  24
HETATM   24  N6  UNL     1      -0.672  49.292 -21.267  1.00  0.00    -0.342 N 
HETATM   25  H10 UNL     1       0.056  49.180 -21.962  1.00  0.00     0.167 HD
BRANCH  24  26
HETATM   26  C11 UNL     1      -0.400  50.287 -20.310  1.00  0.00     0.035 A 
HETATM   27  C12 UNL     1      -0.520  50.080 -18.930  1.00  0.00     0.029 A 
HETATM   28  C13 UNL     1      -0.197  51.087 -18.013  1.00  0.00     0.004 A 
HETATM   29  C14 UNL     1       0.272  52.318 -18.464  1.00  0.00     0.024 A 
HETATM   30  C15 UNL     1       0.420  52.530 -19.831  1.00  0.00     0.036 A 
HETATM   31 CL1  UNL     1       1.014  54.041 -20.402  1.00  0.00    -0.084 Cl
HETATM   32  C16 UNL     1       0.096  51.525 -20.747  1.00  0.00     0.053 A 
ENDBRANCH  24  26
ENDBRANCH  12  24
TORSDOF 4
ENDMDL
