MODEL 1
REMARK minimizedAffinity -9.88528061
REMARK CNNscore 0.415053397
REMARK CNNaffinity 8.05637741
REMARK  7 active torsions:
REMARK  status: ('A' for Active; 'I' for Inactive)
REMARK    1  A    between atoms: O1_2  and  C2_3 
REMARK    2  A    between atoms: C2_3  and  C3_4 
REMARK       I    between atoms: C3_4  and  N1_6 
REMARK    3  A    between atoms: C7_10  and  C8_11 
REMARK    4  A    between atoms: C13_18  and  C14_19 
REMARK       I    between atoms: C14_19  and  N3_21 
REMARK    5  A    between atoms: N3_21  and  C15_22 
REMARK    6  A    between atoms: C17_24  and  C18_25 
REMARK    7  A    between atoms: C24_37  and  N5_38 
ROOT
HETATM    1  C8  UNL     1      -3.994   4.747  13.279  1.00  0.00     0.094 A 
HETATM    2  N2  UNL     1      -4.953   5.517  13.765  1.00  0.00    -0.342 N 
ATOM      3  H2  UNL     1      -4.840   6.401  14.261  1.00  0.00     0.167 HD
HETATM    4  C9  UNL     1      -6.134   4.881  13.465  1.00  0.00     0.077 A 
HETATM    5  C10 UNL     1      -7.417   5.443  13.809  1.00  0.00     0.032 A 
HETATM    6  C11 UNL     1      -7.797   5.531  15.153  1.00  0.00     0.018 A 
HETATM    7  C12 UNL     1      -9.034   6.085  15.500  1.00  0.00     0.018 A 
HETATM    8  C13 UNL     1      -9.891   6.581  14.504  1.00  0.00     0.035 A 
HETATM    9  C21 UNL     1      -9.509   6.486  13.160  1.00  0.00     0.060 A 
HETATM   10  C22 UNL     1      -8.280   5.925  12.823  1.00  0.00     0.130 A 
HETATM   11  F4  UNL     1      -7.933   5.871  11.527  1.00  0.00    -0.205 F 
HETATM   12  C23 UNL     1      -5.896   3.676  12.843  1.00  0.00     0.106 A 
HETATM   13  C24 UNL     1      -6.701   2.587  12.342  1.00  0.00     0.107 A 
HETATM   14  N6  UNL     1      -6.126   1.566  11.748  1.00  0.00    -0.354 N 
ATOM     15  H6  UNL     1      -6.687   0.790  11.396  1.00  0.00     0.166 HD
HETATM   16  C25 UNL     1      -4.753   1.558  11.606  1.00  0.00     0.107 A 
HETATM   17  C26 UNL     1      -3.948   2.528  12.064  1.00  0.00     0.116 A 
HETATM   18  N7  UNL     1      -4.527   3.610  12.703  1.00  0.00    -0.305 N 
ENDROOT
BRANCH   1  19
HETATM   19  C7  UNL     1      -2.522   5.066  13.287  1.00  0.00     0.072 C 
HETATM   20  C6  UNL     1      -2.249   6.516  13.750  1.00  0.00     0.015 C 
HETATM   21  C5  UNL     1      -1.897   7.433  12.579  1.00  0.00     0.021 C 
HETATM   22  C4  UNL     1      -0.655   6.916  11.850  1.00  0.00     0.126 C 
HETATM   23  N1  UNL     1      -0.660   5.462  11.685  1.00  0.00    -0.350 N 
HETATM   24  C3  UNL     1       0.441   4.721  11.258  1.00  0.00     0.243 C 
HETATM   25  C27 UNL     1      -1.939   4.787  11.888  1.00  0.00     0.138 C 
HETATM   26  O2  UNL     1       0.402   3.493  11.176  1.00  0.00    -0.271 OA
BRANCH  24  27
HETATM   27  C2  UNL     1       1.713   5.519  10.891  1.00  0.00     0.269 C 
BRANCH  27  28
HETATM   28  O1  UNL     1       2.059   5.602   9.516  1.00  0.00    -0.387 OA
HETATM   29  C1  UNL     1       2.847   6.746   9.214  1.00  0.00     0.202 C 
ENDBRANCH  27  28
ENDBRANCH  24  27
ENDBRANCH   1  19
BRANCH  13  30
HETATM   30  N5  UNL     1      -8.059   2.521  12.463  1.00  0.00    -0.287 NA
HETATM   31  H20 UNL     1      -8.405   1.589  12.266  1.00  0.00     0.125 HD
HETATM   32  H21 UNL     1      -8.454   2.930  13.301  1.00  0.00     0.125 HD
ENDBRANCH  13  30
BRANCH   8  33
HETATM   33  C14 UNL     1     -11.214   7.204  14.814  1.00  0.00     0.257 C 
HETATM   34  O3  UNL     1     -11.232   8.358  15.234  1.00  0.00    -0.267 OA
HETATM   35  N3  UNL     1     -12.312   6.397  14.640  1.00  0.00    -0.309 N 
HETATM   36  H15 UNL     1     -12.200   5.415  14.428  1.00  0.00     0.170 HD
BRANCH  35  37
HETATM   37  C15 UNL     1     -13.658   6.716  14.827  1.00  0.00     0.108 A 
HETATM   38  C16 UNL     1     -14.676   6.386  13.943  1.00  0.00     0.064 A 
HETATM   39  C17 UNL     1     -15.992   6.758  14.250  1.00  0.00     0.052 A 
HETATM   40  C19 UNL     1     -16.231   7.458  15.434  1.00  0.00     0.033 A 
HETATM   41  C20 UNL     1     -15.155   7.746  16.256  1.00  0.00     0.090 A 
HETATM   42  N4  UNL     1     -13.885   7.385  15.978  1.00  0.00    -0.352 N 
ATOM     43  H4  UNL     1     -13.122   7.608  16.616  1.00  0.00     0.166 HD
BRANCH  39  44
HETATM   44  C18 UNL     1     -17.127   6.454  13.308  1.00  0.00     0.417 C 
HETATM   45  F1  UNL     1     -17.758   7.584  12.886  1.00  0.00    -0.166 F 
HETATM   46  F2  UNL     1     -18.090   5.683  13.888  1.00  0.00    -0.166 F 
HETATM   47  F3  UNL     1     -16.746   5.790  12.183  1.00  0.00    -0.166 F 
ENDBRANCH  39  44
ENDBRANCH  35  37
ENDBRANCH   8  33
TORSDOF 7
ENDMDL
MODEL 2
REMARK minimizedAffinity -8.96221638
REMARK CNNscore 0.243742853
REMARK CNNaffinity 7.83664322
REMARK  7 active torsions:
REMARK  status: ('A' for Active; 'I' for Inactive)
REMARK    1  A    between atoms: O1_2  and  C2_3 
REMARK    2  A    between atoms: C2_3  and  C3_4 
REMARK       I    between atoms: C3_4  and  N1_6 
REMARK    3  A    between atoms: C7_10  and  C8_11 
REMARK    4  A    between atoms: C13_18  and  C14_19 
REMARK       I    between atoms: C14_19  and  N3_21 
REMARK    5  A    between atoms: N3_21  and  C15_22 
REMARK    6  A    between atoms: C17_24  and  C18_25 
REMARK    7  A    between atoms: C24_37  and  N5_38 
ROOT
HETATM    1  C8  UNL     1      -4.566   5.409  12.911  1.00  0.00     0.094 A 
HETATM    2  N2  UNL     1      -5.508   6.194  13.406  1.00  0.00    -0.342 N 
ATOM      3  H2  UNL     1      -5.392   7.140  13.770  1.00  0.00     0.167 HD
HETATM    4  C9  UNL     1      -6.676   5.473  13.327  1.00  0.00     0.077 A 
HETATM    5  C10 UNL     1      -7.944   6.020  13.745  1.00  0.00     0.032 A 
HETATM    6  C11 UNL     1      -8.177   6.267  15.103  1.00  0.00     0.018 A 
HETATM    7  C12 UNL     1      -9.399   6.807  15.519  1.00  0.00     0.018 A 
HETATM    8  C13 UNL     1     -10.388   7.132  14.576  1.00  0.00     0.035 A 
HETATM    9  C21 UNL     1     -10.151   6.877  13.219  1.00  0.00     0.060 A 
HETATM   10  C22 UNL     1      -8.936   6.331  12.814  1.00  0.00     0.130 A 
HETATM   11  F4  UNL     1      -8.732   6.122  11.503  1.00  0.00    -0.205 F 
HETATM   12  C23 UNL     1      -6.438   4.209  12.838  1.00  0.00     0.106 A 
HETATM   13  C24 UNL     1      -7.229   3.030  12.575  1.00  0.00     0.107 A 
HETATM   14  N6  UNL     1      -6.666   1.965  12.050  1.00  0.00    -0.354 N 
ATOM     15  H6  UNL     1      -7.216   1.126  11.866  1.00  0.00     0.166 HD
HETATM   16  C25 UNL     1      -5.318   1.998  11.752  1.00  0.00     0.107 A 
HETATM   17  C26 UNL     1      -4.525   3.054  11.987  1.00  0.00     0.116 A 
HETATM   18  N7  UNL     1      -5.092   4.184  12.548  1.00  0.00    -0.305 N 
ENDROOT
BRANCH   1  19
HETATM   19  C7  UNL     1      -3.122   5.789  12.708  1.00  0.00     0.072 C 
HETATM   20  C6  UNL     1      -2.172   4.921  13.566  1.00  0.00     0.015 C 
HETATM   21  C5  UNL     1      -1.646   5.681  14.783  1.00  0.00     0.021 C 
HETATM   22  C4  UNL     1      -0.890   6.936  14.342  1.00  0.00     0.126 C 
HETATM   23  N1  UNL     1      -1.556   7.645  13.249  1.00  0.00    -0.350 N 
HETATM   24  C3  UNL     1      -0.974   8.682  12.522  1.00  0.00     0.243 C 
HETATM   25  C27 UNL     1      -2.951   7.293  13.000  1.00  0.00     0.138 C 
HETATM   26  O2  UNL     1      -1.559   9.220  11.581  1.00  0.00    -0.271 OA
BRANCH  24  27
HETATM   27  C2  UNL     1       0.442   9.123  12.956  1.00  0.00     0.269 C 
BRANCH  27  28
HETATM   28  O1  UNL     1       1.519   8.821  12.080  1.00  0.00    -0.387 OA
HETATM   29  C1  UNL     1       2.316   7.738  12.540  1.00  0.00     0.202 C 
ENDBRANCH  27  28
ENDBRANCH  24  27
ENDBRANCH   1  19
BRANCH  13  30
HETATM   30  N5  UNL     1      -8.560   2.922  12.860  1.00  0.00    -0.287 NA
HETATM   31  H20 UNL     1      -8.871   1.958  12.823  1.00  0.00     0.125 HD
HETATM   32  H21 UNL     1      -8.884   3.419  13.680  1.00  0.00     0.125 HD
ENDBRANCH  13  30
BRANCH   8  33
HETATM   33  C14 UNL     1     -11.702   7.732  14.957  1.00  0.00     0.257 C 
HETATM   34  O3  UNL     1     -12.675   7.509  14.242  1.00  0.00    -0.267 OA
HETATM   35  N3  UNL     1     -11.694   8.535  16.073  1.00  0.00    -0.309 N 
HETATM   36  H15 UNL     1     -10.823   8.782  16.521  1.00  0.00     0.170 HD
BRANCH  35  37
HETATM   37  C15 UNL     1     -12.767   9.200  16.668  1.00  0.00     0.108 A 
HETATM   38  C16 UNL     1     -12.825  10.570  16.881  1.00  0.00     0.064 A 
HETATM   39  C17 UNL     1     -13.967  11.118  17.483  1.00  0.00     0.052 A 
HETATM   40  C19 UNL     1     -15.004  10.261  17.855  1.00  0.00     0.033 A 
HETATM   41  C20 UNL     1     -14.860   8.907  17.605  1.00  0.00     0.090 A 
HETATM   42  N4  UNL     1     -13.772   8.368  17.017  1.00  0.00    -0.352 N 
ATOM     43  H4  UNL     1     -13.710   7.365  16.842  1.00  0.00     0.166 HD
BRANCH  39  44
HETATM   44  C18 UNL     1     -14.064  12.593  17.767  1.00  0.00     0.417 C 
HETATM   45  F1  UNL     1     -13.599  13.345  16.730  1.00  0.00    -0.166 F 
HETATM   46  F2  UNL     1     -13.329  12.962  18.854  1.00  0.00    -0.166 F 
HETATM   47  F3  UNL     1     -15.330  13.026  18.010  1.00  0.00    -0.166 F 
ENDBRANCH  39  44
ENDBRANCH  35  37
ENDBRANCH   8  33
TORSDOF 7
ENDMDL
MODEL 3
REMARK minimizedAffinity -7.83794975
REMARK CNNscore 0.189207956
REMARK CNNaffinity 6.50812387
REMARK  7 active torsions:
REMARK  status: ('A' for Active; 'I' for Inactive)
REMARK    1  A    between atoms: O1_2  and  C2_3 
REMARK    2  A    between atoms: C2_3  and  C3_4 
REMARK       I    between atoms: C3_4  and  N1_6 
REMARK    3  A    between atoms: C7_10  and  C8_11 
REMARK    4  A    between atoms: C13_18  and  C14_19 
REMARK       I    between atoms: C14_19  and  N3_21 
REMARK    5  A    between atoms: N3_21  and  C15_22 
REMARK    6  A    between atoms: C17_24  and  C18_25 
REMARK    7  A    between atoms: C24_37  and  N5_38 
ROOT
HETATM    1  C8  UNL     1      -9.192   7.054  15.604  1.00  0.00     0.094 A 
HETATM    2  N2  UNL     1      -9.272   7.799  16.693  1.00  0.00    -0.342 N 
ATOM      3  H2  UNL     1      -8.712   7.711  17.541  1.00  0.00     0.167 HD
HETATM    4  C9  UNL     1     -10.265   8.717  16.448  1.00  0.00     0.077 A 
HETATM    5  C10 UNL     1     -10.621   9.736  17.405  1.00  0.00     0.032 A 
HETATM    6  C11 UNL     1     -11.243   9.372  18.605  1.00  0.00     0.018 A 
HETATM    7  C12 UNL     1     -11.584  10.350  19.546  1.00  0.00     0.018 A 
HETATM    8  C13 UNL     1     -11.279  11.699  19.306  1.00  0.00     0.035 A 
HETATM    9  C21 UNL     1     -10.661  12.059  18.101  1.00  0.00     0.060 A 
HETATM   10  C22 UNL     1     -10.334  11.081  17.166  1.00  0.00     0.130 A 
HETATM   11  F4  UNL     1      -9.721  11.457  16.032  1.00  0.00    -0.205 F 
HETATM   12  C23 UNL     1     -10.844   8.494  15.219  1.00  0.00     0.106 A 
HETATM   13  C24 UNL     1     -11.919   9.081  14.454  1.00  0.00     0.107 A 
HETATM   14  N6  UNL     1     -12.193   8.627  13.252  1.00  0.00    -0.354 N 
ATOM     15  H6  UNL     1     -12.954   9.032  12.707  1.00  0.00     0.166 HD
HETATM   16  C25 UNL     1     -11.436   7.594  12.737  1.00  0.00     0.107 A 
HETATM   17  C26 UNL     1     -10.437   6.995  13.402  1.00  0.00     0.116 A 
HETATM   18  N7  UNL     1     -10.135   7.447  14.674  1.00  0.00    -0.305 N 
ENDROOT
BRANCH   1  19
HETATM   19  C7  UNL     1      -8.186   5.959  15.359  1.00  0.00     0.072 C 
HETATM   20  C6  UNL     1      -6.751   6.404  15.726  1.00  0.00     0.015 C 
HETATM   21  C5  UNL     1      -5.915   6.717  14.486  1.00  0.00     0.021 C 
HETATM   22  C4  UNL     1      -5.824   5.489  13.579  1.00  0.00     0.126 C 
HETATM   23  N1  UNL     1      -7.097   4.776  13.461  1.00  0.00    -0.350 N 
HETATM   24  C3  UNL     1      -7.235   3.517  12.880  1.00  0.00     0.243 C 
HETATM   25  C27 UNL     1      -8.290   5.499  13.892  1.00  0.00     0.138 C 
HETATM   26  O2  UNL     1      -8.321   2.937  12.844  1.00  0.00    -0.271 OA
BRANCH  24  27
HETATM   27  C2  UNL     1      -5.957   2.884  12.284  1.00  0.00     0.269 C 
BRANCH  27  28
HETATM   28  O1  UNL     1      -5.597   3.258  10.962  1.00  0.00    -0.387 OA
HETATM   29  C1  UNL     1      -4.202   3.485  10.814  1.00  0.00     0.202 C 
ENDBRANCH  27  28
ENDBRANCH  24  27
ENDBRANCH   1  19
BRANCH  13  30
HETATM   30  N5  UNL     1     -12.718  10.092  14.907  1.00  0.00    -0.287 NA
HETATM   31  H20 UNL     1     -13.545  10.198  14.331  1.00  0.00     0.125 HD
HETATM   32  H21 UNL     1     -12.914  10.096  15.900  1.00  0.00     0.125 HD
ENDBRANCH  13  30
BRANCH   8  33
HETATM   33  C14 UNL     1     -11.596  12.786  20.282  1.00  0.00     0.257 C 
HETATM   34  O3  UNL     1     -12.393  13.657  19.947  1.00  0.00    -0.267 OA
HETATM   35  N3  UNL     1     -10.917  12.736  21.476  1.00  0.00    -0.309 N 
HETATM   36  H15 UNL     1     -10.172  12.067  21.616  1.00  0.00     0.170 HD
BRANCH  35  37
HETATM   37  C15 UNL     1     -11.028  13.595  22.570  1.00  0.00     0.108 A 
HETATM   38  C16 UNL     1      -9.957  14.216  23.196  1.00  0.00     0.064 A 
HETATM   39  C17 UNL     1     -10.203  15.065  24.285  1.00  0.00     0.052 A 
HETATM   40  C19 UNL     1     -11.521  15.249  24.706  1.00  0.00     0.033 A 
HETATM   41  C20 UNL     1     -12.528  14.588  24.023  1.00  0.00     0.090 A 
HETATM   42  N4  UNL     1     -12.306  13.777  22.968  1.00  0.00    -0.352 N 
ATOM     43  H4  UNL     1     -13.078  13.316  22.486  1.00  0.00     0.166 HD
BRANCH  39  44
HETATM   44  C18 UNL     1      -9.072  15.735  25.019  1.00  0.00     0.417 C 
HETATM   45  F1  UNL     1      -8.424  16.644  24.239  1.00  0.00    -0.166 F 
HETATM   46  F2  UNL     1      -8.121  14.848  25.428  1.00  0.00    -0.166 F 
HETATM   47  F3  UNL     1      -9.461  16.406  26.137  1.00  0.00    -0.166 F 
ENDBRANCH  39  44
ENDBRANCH  35  37
ENDBRANCH   8  33
TORSDOF 7
ENDMDL
MODEL 4
REMARK minimizedAffinity -7.93787241
REMARK CNNscore 0.142316341
REMARK CNNaffinity 6.01909447
REMARK  7 active torsions:
REMARK  status: ('A' for Active; 'I' for Inactive)
REMARK    1  A    between atoms: O1_2  and  C2_3 
REMARK    2  A    between atoms: C2_3  and  C3_4 
REMARK       I    between atoms: C3_4  and  N1_6 
REMARK    3  A    between atoms: C7_10  and  C8_11 
REMARK    4  A    between atoms: C13_18  and  C14_19 
REMARK       I    between atoms: C14_19  and  N3_21 
REMARK    5  A    between atoms: N3_21  and  C15_22 
REMARK    6  A    between atoms: C17_24  and  C18_25 
REMARK    7  A    between atoms: C24_37  and  N5_38 
ROOT
HETATM    1  C8  UNL     1      -7.025 -10.784   0.060  1.00  0.00     0.094 A 
HETATM    2  N2  UNL     1      -7.354  -9.544  -0.261  1.00  0.00    -0.342 N 
ATOM      3  H2  UNL     1      -7.205  -8.704   0.297  1.00  0.00     0.167 HD
HETATM    4  C9  UNL     1      -7.939  -9.622  -1.503  1.00  0.00     0.077 A 
HETATM    5  C10 UNL     1      -8.402  -8.451  -2.207  1.00  0.00     0.032 A 
HETATM    6  C11 UNL     1      -9.508  -7.743  -1.721  1.00  0.00     0.018 A 
HETATM    7  C12 UNL     1      -9.960  -6.599  -2.388  1.00  0.00     0.018 A 
HETATM    8  C13 UNL     1      -9.290  -6.137  -3.533  1.00  0.00     0.035 A 
HETATM    9  C21 UNL     1      -8.188  -6.852  -4.019  1.00  0.00     0.060 A 
HETATM   10  C22 UNL     1      -7.750  -7.995  -3.354  1.00  0.00     0.130 A 
HETATM   11  F4  UNL     1      -6.676  -8.643  -3.831  1.00  0.00    -0.205 F 
HETATM   12  C23 UNL     1      -8.027 -10.930  -1.922  1.00  0.00     0.106 A 
HETATM   13  C24 UNL     1      -8.556 -11.620  -3.075  1.00  0.00     0.107 A 
HETATM   14  N6  UNL     1      -8.433 -12.924  -3.172  1.00  0.00    -0.354 N 
ATOM     15  H6  UNL     1      -8.809 -13.420  -3.981  1.00  0.00     0.166 HD
HETATM   16  C25 UNL     1      -7.788 -13.614  -2.166  1.00  0.00     0.107 A 
HETATM   17  C26 UNL     1      -7.290 -13.036  -1.063  1.00  0.00     0.116 A 
HETATM   18  N7  UNL     1      -7.416 -11.665  -0.930  1.00  0.00    -0.305 N 
ENDROOT
BRANCH   1  19
HETATM   19  C7  UNL     1      -6.277 -11.202   1.299  1.00  0.00     0.072 C 
HETATM   20  C6  UNL     1      -7.230 -11.744   2.390  1.00  0.00     0.015 C 
HETATM   21  C5  UNL     1      -7.451 -10.730   3.512  1.00  0.00     0.021 C 
HETATM   22  C4  UNL     1      -6.120 -10.364   4.170  1.00  0.00     0.126 C 
HETATM   23  N1  UNL     1      -5.039 -10.181   3.200  1.00  0.00    -0.350 N 
HETATM   24  C3  UNL     1      -3.693 -10.062   3.544  1.00  0.00     0.243 C 
HETATM   25  C27 UNL     1      -5.437 -10.013   1.806  1.00  0.00     0.138 C 
HETATM   26  O2  UNL     1      -2.814  -9.953   2.688  1.00  0.00    -0.271 OA
BRANCH  24  27
HETATM   27  C2  UNL     1      -3.360 -10.072   5.054  1.00  0.00     0.269 C 
BRANCH  27  28
HETATM   28  O1  UNL     1      -3.584 -11.281   5.765  1.00  0.00    -0.387 OA
HETATM   29  C1  UNL     1      -3.283 -11.169   7.149  1.00  0.00     0.202 C 
ENDBRANCH  27  28
ENDBRANCH  24  27
ENDBRANCH   1  19
BRANCH  13  30
HETATM   30  N5  UNL     1      -9.220 -11.004  -4.097  1.00  0.00    -0.287 NA
HETATM   31  H20 UNL     1      -9.709 -11.674  -4.679  1.00  0.00     0.125 HD
HETATM   32  H21 UNL     1      -9.781 -10.200  -3.846  1.00  0.00     0.125 HD
ENDBRANCH  13  30
BRANCH   8  33
HETATM   33  C14 UNL     1      -9.711  -4.910  -4.275  1.00  0.00     0.257 C 
HETATM   34  O3  UNL     1     -10.839  -4.878  -4.758  1.00  0.00    -0.267 OA
HETATM   35  N3  UNL     1      -8.760  -3.925  -4.392  1.00  0.00    -0.309 N 
HETATM   36  H15 UNL     1      -7.810  -4.089  -4.089  1.00  0.00     0.170 HD
BRANCH  35  37
HETATM   37  C15 UNL     1      -8.880  -2.676  -5.004  1.00  0.00     0.108 A 
HETATM   38  C16 UNL     1      -7.968  -2.152  -5.909  1.00  0.00     0.064 A 
HETATM   39  C17 UNL     1      -8.207  -0.885  -6.461  1.00  0.00     0.052 A 
HETATM   40  C19 UNL     1      -9.354  -0.191  -6.072  1.00  0.00     0.033 A 
HETATM   41  C20 UNL     1     -10.208  -0.790  -5.162  1.00  0.00     0.090 A 
HETATM   42  N4  UNL     1      -9.996  -2.013  -4.631  1.00  0.00    -0.352 N 
ATOM     43  H4  UNL     1     -10.656  -2.422  -3.971  1.00  0.00     0.166 HD
BRANCH  39  44
HETATM   44  C18 UNL     1      -7.231  -0.258  -7.421  1.00  0.00     0.417 C 
HETATM   45  F1  UNL     1      -6.838  -1.129  -8.391  1.00  0.00    -0.166 F 
HETATM   46  F2  UNL     1      -6.088   0.154  -6.803  1.00  0.00    -0.166 F 
HETATM   47  F3  UNL     1      -7.719   0.835  -8.068  1.00  0.00    -0.166 F 
ENDBRANCH  39  44
ENDBRANCH  35  37
ENDBRANCH   8  33
TORSDOF 7
ENDMDL
MODEL 5
REMARK minimizedAffinity -8.68377686
REMARK CNNscore 0.134334758
REMARK CNNaffinity 5.83922529
REMARK  7 active torsions:
REMARK  status: ('A' for Active; 'I' for Inactive)
REMARK    1  A    between atoms: O1_2  and  C2_3 
REMARK    2  A    between atoms: C2_3  and  C3_4 
REMARK       I    between atoms: C3_4  and  N1_6 
REMARK    3  A    between atoms: C7_10  and  C8_11 
REMARK    4  A    between atoms: C13_18  and  C14_19 
REMARK       I    between atoms: C14_19  and  N3_21 
REMARK    5  A    between atoms: N3_21  and  C15_22 
REMARK    6  A    between atoms: C17_24  and  C18_25 
REMARK    7  A    between atoms: C24_37  and  N5_38 
ROOT
HETATM    1  C8  UNL     1     -10.607 -12.921  26.558  1.00  0.00     0.094 A 
HETATM    2  N2  UNL     1     -10.880 -12.163  25.510  1.00  0.00    -0.342 N 
ATOM      3  H2  UNL     1     -11.646 -11.496  25.416  1.00  0.00     0.167 HD
HETATM    4  C9  UNL     1      -9.918 -12.459  24.573  1.00  0.00     0.077 A 
HETATM    5  C10 UNL     1      -9.865 -11.795  23.293  1.00  0.00     0.032 A 
HETATM    6  C11 UNL     1     -10.870 -12.032  22.348  1.00  0.00     0.018 A 
HETATM    7  C12 UNL     1     -10.835 -11.386  21.107  1.00  0.00     0.018 A 
HETATM    8  C13 UNL     1      -9.808 -10.475  20.813  1.00  0.00     0.035 A 
HETATM    9  C21 UNL     1      -8.801 -10.245  21.760  1.00  0.00     0.060 A 
HETATM   10  C22 UNL     1      -8.839 -10.899  22.988  1.00  0.00     0.130 A 
HETATM   11  F4  UNL     1      -7.872 -10.639  23.883  1.00  0.00    -0.205 F 
HETATM   12  C23 UNL     1      -9.083 -13.454  25.027  1.00  0.00     0.106 A 
HETATM   13  C24 UNL     1      -7.955 -14.186  24.500  1.00  0.00     0.107 A 
HETATM   14  N6  UNL     1      -7.346 -15.079  25.247  1.00  0.00    -0.354 N 
ATOM     15  H6  UNL     1      -6.551 -15.604  24.881  1.00  0.00     0.166 HD
HETATM   16  C25 UNL     1      -7.795 -15.296  26.534  1.00  0.00     0.107 A 
HETATM   17  C26 UNL     1      -8.847 -14.663  27.076  1.00  0.00     0.116 A 
HETATM   18  N7  UNL     1      -9.512 -13.726  26.307  1.00  0.00    -0.305 N 
ENDROOT
BRANCH   1  19
HETATM   19  C7  UNL     1     -11.335 -12.893  27.877  1.00  0.00     0.072 C 
HETATM   20  C6  UNL     1     -12.156 -14.184  28.108  1.00  0.00     0.015 C 
HETATM   21  C5  UNL     1     -13.651 -13.959  27.884  1.00  0.00     0.021 C 
HETATM   22  C4  UNL     1     -14.175 -12.876  28.830  1.00  0.00     0.126 C 
HETATM   23  N1  UNL     1     -13.259 -11.742  28.955  1.00  0.00    -0.350 N 
HETATM   24  C3  UNL     1     -13.390 -10.735  29.910  1.00  0.00     0.243 C 
HETATM   25  C27 UNL     1     -12.217 -11.631  27.939  1.00  0.00     0.138 C 
HETATM   26  O2  UNL     1     -12.568  -9.822  30.004  1.00  0.00    -0.271 OA
BRANCH  24  27
HETATM   27  C2  UNL     1     -14.619 -10.820  30.844  1.00  0.00     0.269 C 
BRANCH  27  28
HETATM   28  O1  UNL     1     -14.616 -10.002  32.005  1.00  0.00    -0.387 OA
HETATM   29  C1  UNL     1     -15.472 -10.493  33.027  1.00  0.00     0.202 C 
ENDBRANCH  27  28
ENDBRANCH  24  27
ENDBRANCH   1  19
BRANCH  13  30
HETATM   30  N5  UNL     1      -7.469 -14.034  23.233  1.00  0.00    -0.287 NA
HETATM   31  H20 UNL     1      -6.841 -14.790  22.983  1.00  0.00     0.125 HD
HETATM   32  H21 UNL     1      -8.149 -13.821  22.515  1.00  0.00     0.125 HD
ENDBRANCH  13  30
BRANCH   8  33
HETATM   33  C14 UNL     1      -9.730  -9.737  19.515  1.00  0.00     0.257 C 
HETATM   34  O3  UNL     1      -8.702  -9.117  19.257  1.00  0.00    -0.267 OA
HETATM   35  N3  UNL     1     -10.858  -9.782  18.731  1.00  0.00    -0.309 N 
HETATM   36  H15 UNL     1     -11.711 -10.195  19.081  1.00  0.00     0.170 HD
BRANCH  35  37
HETATM   37  C15 UNL     1     -11.059  -9.212  17.473  1.00  0.00     0.108 A 
HETATM   38  C16 UNL     1     -11.440  -7.896  17.256  1.00  0.00     0.064 A 
HETATM   39  C17 UNL     1     -11.602  -7.440  15.940  1.00  0.00     0.052 A 
HETATM   40  C19 UNL     1     -11.382  -8.335  14.891  1.00  0.00     0.033 A 
HETATM   41  C20 UNL     1     -11.006  -9.631  15.200  1.00  0.00     0.090 A 
HETATM   42  N4  UNL     1     -10.836 -10.079  16.461  1.00  0.00    -0.352 N 
ATOM     43  H4  UNL     1     -10.549 -11.040  16.645  1.00  0.00     0.166 HD
BRANCH  39  44
HETATM   44  C18 UNL     1     -12.046  -6.031  15.653  1.00  0.00     0.417 C 
HETATM   45  F1  UNL     1     -11.858  -5.692  14.347  1.00  0.00    -0.166 F 
HETATM   46  F2  UNL     1     -11.353  -5.110  16.381  1.00  0.00    -0.166 F 
HETATM   47  F3  UNL     1     -13.361  -5.802  15.918  1.00  0.00    -0.166 F 
ENDBRANCH  39  44
ENDBRANCH  35  37
ENDBRANCH   8  33
TORSDOF 7
ENDMDL
MODEL 6
REMARK minimizedAffinity -8.25955296
REMARK CNNscore 0.133196086
REMARK CNNaffinity 6.67250967
REMARK  7 active torsions:
REMARK  status: ('A' for Active; 'I' for Inactive)
REMARK    1  A    between atoms: O1_2  and  C2_3 
REMARK    2  A    between atoms: C2_3  and  C3_4 
REMARK       I    between atoms: C3_4  and  N1_6 
REMARK    3  A    between atoms: C7_10  and  C8_11 
REMARK    4  A    between atoms: C13_18  and  C14_19 
REMARK       I    between atoms: C14_19  and  N3_21 
REMARK    5  A    between atoms: N3_21  and  C15_22 
REMARK    6  A    between atoms: C17_24  and  C18_25 
REMARK    7  A    between atoms: C24_37  and  N5_38 
ROOT
HETATM    1  C8  UNL     1       2.017  11.317  19.437  1.00  0.00     0.094 A 
HETATM    2  N2  UNL     1       1.254  10.405  18.860  1.00  0.00    -0.342 N 
ATOM      3  H2  UNL     1       1.359   9.392  18.914  1.00  0.00     0.167 HD
HETATM    4  C9  UNL     1       0.291  11.103  18.171  1.00  0.00     0.077 A 
HETATM    5  C10 UNL     1      -0.758  10.440  17.435  1.00  0.00     0.032 A 
HETATM    6  C11 UNL     1      -0.442   9.718  16.278  1.00  0.00     0.018 A 
HETATM    7  C12 UNL     1      -1.449   9.062  15.562  1.00  0.00     0.018 A 
HETATM    8  C13 UNL     1      -2.778   9.098  16.014  1.00  0.00     0.035 A 
HETATM    9  C21 UNL     1      -3.090   9.826  17.169  1.00  0.00     0.060 A 
HETATM   10  C22 UNL     1      -2.083  10.485  17.871  1.00  0.00     0.130 A 
HETATM   11  F4  UNL     1      -2.412  11.153  18.988  1.00  0.00    -0.205 F 
HETATM   12  C23 UNL     1       0.501  12.459  18.275  1.00  0.00     0.106 A 
HETATM   13  C24 UNL     1      -0.128  13.652  17.759  1.00  0.00     0.107 A 
HETATM   14  N6  UNL     1       0.328  14.835  18.102  1.00  0.00    -0.354 N 
ATOM     15  H6  UNL     1      -0.107  15.683  17.739  1.00  0.00     0.166 HD
HETATM   16  C25 UNL     1       1.405  14.915  18.962  1.00  0.00     0.107 A 
HETATM   17  C26 UNL     1       2.045  13.847  19.462  1.00  0.00     0.116 A 
HETATM   18  N7  UNL     1       1.590  12.590  19.108  1.00  0.00    -0.305 N 
ENDROOT
BRANCH   1  19
HETATM   19  C7  UNL     1       3.164  11.039  20.373  1.00  0.00     0.072 C 
HETATM   20  C6  UNL     1       2.701  10.968  21.847  1.00  0.00     0.015 C 
HETATM   21  C5  UNL     1       3.070  12.231  22.624  1.00  0.00     0.021 C 
HETATM   22  C4  UNL     1       4.584  12.447  22.603  1.00  0.00     0.126 C 
HETATM   23  N1  UNL     1       5.177  12.176  21.293  1.00  0.00    -0.350 N 
HETATM   24  C3  UNL     1       6.549  12.084  21.062  1.00  0.00     0.243 C 
HETATM   25  C27 UNL     1       4.256  12.107  20.163  1.00  0.00     0.138 C 
HETATM   26  O2  UNL     1       7.000  11.810  19.948  1.00  0.00    -0.271 OA
BRANCH  24  27
HETATM   27  C2  UNL     1       7.475  12.342  22.271  1.00  0.00     0.269 C 
BRANCH  27  28
HETATM   28  O1  UNL     1       8.255  13.529  22.256  1.00  0.00    -0.387 OA
HETATM   29  C1  UNL     1       7.895  14.438  23.287  1.00  0.00     0.202 C 
ENDBRANCH  27  28
ENDBRANCH  24  27
ENDBRANCH   1  19
BRANCH  13  30
HETATM   30  N5  UNL     1      -1.184  13.647  16.893  1.00  0.00    -0.287 NA
HETATM   31  H20 UNL     1      -1.324  14.559  16.473  1.00  0.00     0.125 HD
HETATM   32  H21 UNL     1      -1.212  12.886  16.226  1.00  0.00     0.125 HD
ENDBRANCH  13  30
BRANCH   8  33
HETATM   33  C14 UNL     1      -3.892   8.398  15.305  1.00  0.00     0.257 C 
HETATM   34  O3  UNL     1      -4.331   8.895  14.272  1.00  0.00    -0.267 OA
HETATM   35  N3  UNL     1      -4.367   7.260  15.912  1.00  0.00    -0.309 N 
HETATM   36  H15 UNL     1      -4.048   6.998  16.834  1.00  0.00     0.170 HD
BRANCH  35  37
HETATM   37  C15 UNL     1      -5.374   6.400  15.470  1.00  0.00     0.108 A 
HETATM   38  C16 UNL     1      -5.285   5.599  14.341  1.00  0.00     0.064 A 
HETATM   39  C17 UNL     1      -6.365   4.770  14.006  1.00  0.00     0.052 A 
HETATM   40  C19 UNL     1      -7.499   4.789  14.820  1.00  0.00     0.033 A 
HETATM   41  C20 UNL     1      -7.502   5.621  15.926  1.00  0.00     0.090 A 
HETATM   42  N4  UNL     1      -6.465   6.415  16.265  1.00  0.00    -0.352 N 
ATOM     43  H4  UNL     1      -6.503   7.006  17.095  1.00  0.00     0.166 HD
BRANCH  39  44
HETATM   44  C18 UNL     1      -6.332   3.907  12.773  1.00  0.00     0.417 C 
HETATM   45  F1  UNL     1      -6.970   4.494  11.722  1.00  0.00    -0.166 F 
HETATM   46  F2  UNL     1      -6.950   2.707  12.962  1.00  0.00    -0.166 F 
HETATM   47  F3  UNL     1      -5.076   3.615  12.338  1.00  0.00    -0.166 F 
ENDBRANCH  39  44
ENDBRANCH  35  37
ENDBRANCH   8  33
TORSDOF 7
ENDMDL
MODEL 7
REMARK minimizedAffinity -9.33489227
REMARK CNNscore 0.111771934
REMARK CNNaffinity 6.72903872
REMARK  7 active torsions:
REMARK  status: ('A' for Active; 'I' for Inactive)
REMARK    1  A    between atoms: O1_2  and  C2_3 
REMARK    2  A    between atoms: C2_3  and  C3_4 
REMARK       I    between atoms: C3_4  and  N1_6 
REMARK    3  A    between atoms: C7_10  and  C8_11 
REMARK    4  A    between atoms: C13_18  and  C14_19 
REMARK       I    between atoms: C14_19  and  N3_21 
REMARK    5  A    between atoms: N3_21  and  C15_22 
REMARK    6  A    between atoms: C17_24  and  C18_25 
REMARK    7  A    between atoms: C24_37  and  N5_38 
ROOT
HETATM    1  C8  UNL     1     -11.569  10.289  18.754  1.00  0.00     0.094 A 
HETATM    2  N2  UNL     1     -10.931   9.264  18.214  1.00  0.00    -0.342 N 
ATOM      3  H2  UNL     1     -10.563   8.445  18.698  1.00  0.00     0.167 HD
HETATM    4  C9  UNL     1     -10.866   9.530  16.867  1.00  0.00     0.077 A 
HETATM    5  C10 UNL     1     -10.266   8.611  15.932  1.00  0.00     0.032 A 
HETATM    6  C11 UNL     1      -8.883   8.395  15.964  1.00  0.00     0.018 A 
HETATM    7  C12 UNL     1      -8.290   7.498  15.069  1.00  0.00     0.018 A 
HETATM    8  C13 UNL     1      -9.081   6.786  14.152  1.00  0.00     0.035 A 
HETATM    9  C21 UNL     1     -10.464   7.010  14.120  1.00  0.00     0.060 A 
HETATM   10  C22 UNL     1     -11.044   7.912  15.008  1.00  0.00     0.130 A 
HETATM   11  F4  UNL     1     -12.375   8.085  14.968  1.00  0.00    -0.205 F 
HETATM   12  C23 UNL     1     -11.414  10.761  16.585  1.00  0.00     0.106 A 
HETATM   13  C24 UNL     1     -11.595  11.573  15.405  1.00  0.00     0.107 A 
HETATM   14  N6  UNL     1     -12.217  12.727  15.492  1.00  0.00    -0.354 N 
ATOM     15  H6  UNL     1     -12.345  13.310  14.664  1.00  0.00     0.166 HD
HETATM   16  C25 UNL     1     -12.697  13.140  16.718  1.00  0.00     0.107 A 
HETATM   17  C26 UNL     1     -12.547  12.442  17.854  1.00  0.00     0.116 A 
HETATM   18  N7  UNL     1     -11.886  11.229  17.792  1.00  0.00    -0.305 N 
ENDROOT
BRANCH   1  19
HETATM   19  C7  UNL     1     -11.959  10.417  20.204  1.00  0.00     0.072 C 
HETATM   20  C6  UNL     1     -11.819  11.872  20.711  1.00  0.00     0.015 C 
HETATM   21  C5  UNL     1     -10.576  12.057  21.581  1.00  0.00     0.021 C 
HETATM   22  C4  UNL     1     -10.630  11.125  22.793  1.00  0.00     0.126 C 
HETATM   23  N1  UNL     1     -11.113   9.785  22.457  1.00  0.00    -0.350 N 
HETATM   24  C3  UNL     1     -11.462   8.821  23.402  1.00  0.00     0.243 C 
HETATM   25  C27 UNL     1     -11.119   9.432  21.040  1.00  0.00     0.138 C 
HETATM   26  O2  UNL     1     -11.907   7.721  23.070  1.00  0.00    -0.271 OA
BRANCH  24  27
HETATM   27  C2  UNL     1     -11.264   9.202  24.886  1.00  0.00     0.269 C 
BRANCH  27  28
HETATM   28  O1  UNL     1     -12.431   9.432  25.664  1.00  0.00    -0.387 OA
HETATM   29  C1  UNL     1     -13.168  10.566  25.229  1.00  0.00     0.202 C 
ENDBRANCH  27  28
ENDBRANCH  24  27
ENDBRANCH   1  19
BRANCH  13  30
HETATM   30  N5  UNL     1     -11.133  11.236  14.165  1.00  0.00    -0.287 NA
HETATM   31  H20 UNL     1     -11.150  12.028  13.533  1.00  0.00     0.125 HD
HETATM   32  H21 UNL     1     -10.264  10.717  14.138  1.00  0.00     0.125 HD
ENDBRANCH  13  30
BRANCH   8  33
HETATM   33  C14 UNL     1      -8.509   5.798  13.188  1.00  0.00     0.257 C 
HETATM   34  O3  UNL     1      -9.096   5.612  12.126  1.00  0.00    -0.267 OA
HETATM   35  N3  UNL     1      -7.378   5.138  13.606  1.00  0.00    -0.309 N 
HETATM   36  H15 UNL     1      -7.041   5.246  14.553  1.00  0.00     0.170 HD
BRANCH  35  37
HETATM   37  C15 UNL     1      -6.624   4.190  12.912  1.00  0.00     0.108 A 
HETATM   38  C16 UNL     1      -5.313   4.377  12.498  1.00  0.00     0.064 A 
HETATM   39  C17 UNL     1      -4.660   3.342  11.813  1.00  0.00     0.052 A 
HETATM   40  C19 UNL     1      -5.360   2.159  11.566  1.00  0.00     0.033 A 
HETATM   41  C20 UNL     1      -6.665   2.060  12.015  1.00  0.00     0.090 A 
HETATM   42  N4  UNL     1      -7.301   3.045  12.684  1.00  0.00    -0.352 N 
ATOM     43  H4  UNL     1      -8.262   2.927  13.006  1.00  0.00     0.166 HD
BRANCH  39  44
HETATM   44  C18 UNL     1      -3.250   3.507  11.313  1.00  0.00     0.417 C 
HETATM   45  F1  UNL     1      -3.187   3.501   9.952  1.00  0.00    -0.166 F 
HETATM   46  F2  UNL     1      -2.431   2.501  11.729  1.00  0.00    -0.166 F 
HETATM   47  F3  UNL     1      -2.655   4.663  11.714  1.00  0.00    -0.166 F 
ENDBRANCH  39  44
ENDBRANCH  35  37
ENDBRANCH   8  33
TORSDOF 7
ENDMDL
MODEL 8
REMARK minimizedAffinity -8.05873299
REMARK CNNscore 0.108663455
REMARK CNNaffinity 5.68203402
REMARK  7 active torsions:
REMARK  status: ('A' for Active; 'I' for Inactive)
REMARK    1  A    between atoms: O1_2  and  C2_3 
REMARK    2  A    between atoms: C2_3  and  C3_4 
REMARK       I    between atoms: C3_4  and  N1_6 
REMARK    3  A    between atoms: C7_10  and  C8_11 
REMARK    4  A    between atoms: C13_18  and  C14_19 
REMARK       I    between atoms: C14_19  and  N3_21 
REMARK    5  A    between atoms: N3_21  and  C15_22 
REMARK    6  A    between atoms: C17_24  and  C18_25 
REMARK    7  A    between atoms: C24_37  and  N5_38 
ROOT
HETATM    1  C8  UNL     1     -11.223  -8.543  15.842  1.00  0.00     0.094 A 
HETATM    2  N2  UNL     1     -11.923  -7.481  16.201  1.00  0.00    -0.342 N 
ATOM      3  H2  UNL     1     -12.115  -7.163  17.150  1.00  0.00     0.167 HD
HETATM    4  C9  UNL     1     -12.337  -6.892  15.030  1.00  0.00     0.077 A 
HETATM    5  C10 UNL     1     -13.106  -5.671  15.015  1.00  0.00     0.032 A 
HETATM    6  C11 UNL     1     -14.424  -5.678  15.488  1.00  0.00     0.018 A 
HETATM    7  C12 UNL     1     -15.176  -4.498  15.489  1.00  0.00     0.018 A 
HETATM    8  C13 UNL     1     -14.606  -3.294  15.043  1.00  0.00     0.035 A 
HETATM    9  C21 UNL     1     -13.288  -3.295  14.566  1.00  0.00     0.060 A 
HETATM   10  C22 UNL     1     -12.550  -4.475  14.559  1.00  0.00     0.130 A 
HETATM   11  F4  UNL     1     -11.283  -4.436  14.118  1.00  0.00    -0.205 F 
HETATM   12  C23 UNL     1     -11.941  -7.635  13.941  1.00  0.00     0.106 A 
HETATM   13  C24 UNL     1     -12.104  -7.551  12.509  1.00  0.00     0.107 A 
HETATM   14  N6  UNL     1     -11.539  -8.447  11.731  1.00  0.00    -0.354 N 
ATOM     15  H6  UNL     1     -11.653  -8.398  10.718  1.00  0.00     0.166 HD
HETATM   16  C25 UNL     1     -10.788  -9.454  12.302  1.00  0.00     0.107 A 
HETATM   17  C26 UNL     1     -10.613  -9.598  13.624  1.00  0.00     0.116 A 
HETATM   18  N7  UNL     1     -11.206  -8.675  14.466  1.00  0.00    -0.305 N 
ENDROOT
BRANCH   1  19
HETATM   19  C7  UNL     1     -10.488  -9.469  16.776  1.00  0.00     0.072 C 
HETATM   20  C6  UNL     1     -11.178 -10.849  16.880  1.00  0.00     0.015 C 
HETATM   21  C5  UNL     1     -11.951 -11.006  18.189  1.00  0.00     0.021 C 
HETATM   22  C4  UNL     1     -11.012 -10.844  19.385  1.00  0.00     0.126 C 
HETATM   23  N1  UNL     1     -10.054  -9.752  19.210  1.00  0.00    -0.350 N 
HETATM   24  C3  UNL     1      -8.958  -9.534  20.043  1.00  0.00     0.243 C 
HETATM   25  C27 UNL     1     -10.350  -8.789  18.153  1.00  0.00     0.138 C 
HETATM   26  O2  UNL     1      -8.153  -8.626  19.829  1.00  0.00    -0.271 OA
BRANCH  24  27
HETATM   27  C2  UNL     1      -8.803 -10.488  21.249  1.00  0.00     0.269 C 
BRANCH  27  28
HETATM   28  O1  UNL     1      -7.484 -10.854  21.629  1.00  0.00    -0.387 OA
HETATM   29  C1  UNL     1      -7.341 -11.017  23.033  1.00  0.00     0.202 C 
ENDBRANCH  27  28
ENDBRANCH  24  27
ENDBRANCH   1  19
BRANCH  13  30
HETATM   30  N5  UNL     1     -12.845  -6.594  11.878  1.00  0.00    -0.287 NA
HETATM   31  H20 UNL     1     -13.027  -6.841  10.912  1.00  0.00     0.125 HD
HETATM   32  H21 UNL     1     -13.665  -6.265  12.372  1.00  0.00     0.125 HD
ENDBRANCH  13  30
BRANCH   8  33
HETATM   33  C14 UNL     1     -15.351  -1.998  15.042  1.00  0.00     0.257 C 
HETATM   34  O3  UNL     1     -15.617  -1.478  16.122  1.00  0.00    -0.267 OA
HETATM   35  N3  UNL     1     -15.718  -1.519  13.808  1.00  0.00    -0.309 N 
HETATM   36  H15 UNL     1     -15.585  -2.081  12.978  1.00  0.00     0.170 HD
BRANCH  35  37
HETATM   37  C15 UNL     1     -16.393  -0.335  13.506  1.00  0.00     0.108 A 
HETATM   38  C16 UNL     1     -17.607  -0.269  12.838  1.00  0.00     0.064 A 
HETATM   39  C17 UNL     1     -18.188   0.985  12.601  1.00  0.00     0.052 A 
HETATM   40  C19 UNL     1     -17.516   2.127  13.043  1.00  0.00     0.033 A 
HETATM   41  C20 UNL     1     -16.309   1.967  13.700  1.00  0.00     0.090 A 
HETATM   42  N4  UNL     1     -15.744   0.765  13.943  1.00  0.00    -0.352 N 
ATOM     43  H4  UNL     1     -14.857   0.691  14.440  1.00  0.00     0.166 HD
BRANCH  39  44
HETATM   44  C18 UNL     1     -19.487   1.112  11.851  1.00  0.00     0.417 C 
HETATM   45  F1  UNL     1     -20.244   2.147  12.312  1.00  0.00    -0.166 F 
HETATM   46  F2  UNL     1     -20.265  -0.001  11.968  1.00  0.00    -0.166 F 
HETATM   47  F3  UNL     1     -19.334   1.321  10.515  1.00  0.00    -0.166 F 
ENDBRANCH  39  44
ENDBRANCH  35  37
ENDBRANCH   8  33
TORSDOF 7
ENDMDL
MODEL 9
REMARK minimizedAffinity -7.71574879
REMARK CNNscore 0.0847012103
REMARK CNNaffinity 6.07160378
REMARK  7 active torsions:
REMARK  status: ('A' for Active; 'I' for Inactive)
REMARK    1  A    between atoms: O1_2  and  C2_3 
REMARK    2  A    between atoms: C2_3  and  C3_4 
REMARK       I    between atoms: C3_4  and  N1_6 
REMARK    3  A    between atoms: C7_10  and  C8_11 
REMARK    4  A    between atoms: C13_18  and  C14_19 
REMARK       I    between atoms: C14_19  and  N3_21 
REMARK    5  A    between atoms: N3_21  and  C15_22 
REMARK    6  A    between atoms: C17_24  and  C18_25 
REMARK    7  A    between atoms: C24_37  and  N5_38 
ROOT
HETATM    1  C8  UNL     1      -5.325  13.662  16.730  1.00  0.00     0.094 A 
HETATM    2  N2  UNL     1      -5.331  12.610  15.929  1.00  0.00    -0.342 N 
ATOM      3  H2  UNL     1      -6.042  12.365  15.240  1.00  0.00     0.167 HD
HETATM    4  C9  UNL     1      -4.181  11.913  16.217  1.00  0.00     0.077 A 
HETATM    5  C10 UNL     1      -3.818  10.709  15.511  1.00  0.00     0.032 A 
HETATM    6  C11 UNL     1      -4.576   9.546  15.689  1.00  0.00     0.018 A 
HETATM    7  C12 UNL     1      -4.240   8.374  15.001  1.00  0.00     0.018 A 
HETATM    8  C13 UNL     1      -3.157   8.365  14.107  1.00  0.00     0.035 A 
HETATM    9  C21 UNL     1      -2.397   9.530  13.937  1.00  0.00     0.060 A 
HETATM   10  C22 UNL     1      -2.733  10.688  14.632  1.00  0.00     0.130 A 
HETATM   11  F4  UNL     1      -1.999  11.794  14.428  1.00  0.00    -0.205 F 
HETATM   12  C23 UNL     1      -3.493  12.510  17.248  1.00  0.00     0.106 A 
HETATM   13  C24 UNL     1      -2.285  12.233  17.991  1.00  0.00     0.107 A 
HETATM   14  N6  UNL     1      -1.884  13.066  18.924  1.00  0.00    -0.354 N 
ATOM     15  H6  UNL     1      -1.035  12.875  19.457  1.00  0.00     0.166 HD
HETATM   16  C25 UNL     1      -2.627  14.202  19.174  1.00  0.00     0.107 A 
HETATM   17  C26 UNL     1      -3.765  14.507  18.534  1.00  0.00     0.116 A 
HETATM   18  N7  UNL     1      -4.216  13.642  17.554  1.00  0.00    -0.305 N 
ENDROOT
BRANCH   1  19
HETATM   19  C7  UNL     1      -6.342  14.773  16.729  1.00  0.00     0.072 C 
HETATM   20  C6  UNL     1      -7.474  14.517  17.752  1.00  0.00     0.015 C 
HETATM   21  C5  UNL     1      -8.764  14.057  17.074  1.00  0.00     0.021 C 
HETATM   22  C4  UNL     1      -9.245  15.108  16.072  1.00  0.00     0.126 C 
HETATM   23  N1  UNL     1      -8.153  15.684  15.287  1.00  0.00    -0.350 N 
HETATM   24  C3  UNL     1      -8.287  16.805  14.469  1.00  0.00     0.243 C 
HETATM   25  C27 UNL     1      -6.888  14.956  15.299  1.00  0.00     0.138 C 
HETATM   26  O2  UNL     1      -7.327  17.279  13.860  1.00  0.00    -0.271 OA
BRANCH  24  27
HETATM   27  C2  UNL     1      -9.700  17.422  14.365  1.00  0.00     0.269 C 
BRANCH  27  28
HETATM   28  O1  UNL     1     -10.092  17.948  13.105  1.00  0.00    -0.387 OA
HETATM   29  C1  UNL     1     -11.380  17.504  12.700  1.00  0.00     0.202 C 
ENDBRANCH  27  28
ENDBRANCH  24  27
ENDBRANCH   1  19
BRANCH  13  30
HETATM   30  N5  UNL     1      -1.512  11.122  17.808  1.00  0.00    -0.287 NA
HETATM   31  H20 UNL     1      -0.856  10.997  18.571  1.00  0.00     0.125 HD
HETATM   32  H21 UNL     1      -2.001  10.274  17.552  1.00  0.00     0.125 HD
ENDBRANCH  13  30
BRANCH   8  33
HETATM   33  C14 UNL     1      -2.764   7.152  13.327  1.00  0.00     0.257 C 
HETATM   34  O3  UNL     1      -1.691   7.164  12.732  1.00  0.00    -0.267 OA
HETATM   35  N3  UNL     1      -3.681   6.128  13.308  1.00  0.00    -0.309 N 
HETATM   36  H15 UNL     1      -4.601   6.255  13.706  1.00  0.00     0.170 HD
BRANCH  35  37
HETATM   37  C15 UNL     1      -3.572   4.882  12.689  1.00  0.00     0.108 A 
HETATM   38  C16 UNL     1      -4.650   4.093  12.312  1.00  0.00     0.064 A 
HETATM   39  C17 UNL     1      -4.408   2.861  11.688  1.00  0.00     0.052 A 
HETATM   40  C19 UNL     1      -3.085   2.468  11.475  1.00  0.00     0.033 A 
HETATM   41  C20 UNL     1      -2.072   3.318  11.884  1.00  0.00     0.090 A 
HETATM   42  N4  UNL     1      -2.291   4.510  12.476  1.00  0.00    -0.352 N 
ATOM     43  H4  UNL     1      -1.516   5.112  12.753  1.00  0.00     0.166 HD
BRANCH  39  44
HETATM   44  C18 UNL     1      -5.542   1.953  11.292  1.00  0.00     0.417 C 
HETATM   45  F1  UNL     1      -6.039   2.264  10.063  1.00  0.00    -0.166 F 
HETATM   46  F2  UNL     1      -6.596   2.034  12.153  1.00  0.00    -0.166 F 
HETATM   47  F3  UNL     1      -5.203   0.637  11.241  1.00  0.00    -0.166 F 
ENDBRANCH  39  44
ENDBRANCH  35  37
ENDBRANCH   8  33
TORSDOF 7
ENDMDL
