MODEL 1
REMARK minimizedAffinity -9.49960327
REMARK  4 active torsions:
REMARK  status: ('A' for Active; 'I' for Inactive)
REMARK    1  A    between atoms: C5_6  and  C6_7 
REMARK    2  A    between atoms: C6_7  and  N1_8 
REMARK    3  A    between atoms: C10_19  and  N6_20 
REMARK    4  A    between atoms: N6_20  and  C11_21 
ROOT
HETATM    1  N1  UNL     1      -1.263  50.627 -25.881  1.00  0.00    -0.370 N 
HETATM    2  C7  UNL     1      -0.927  51.771 -26.545  1.00  0.00     0.134 A 
HETATM    3  N2  UNL     1      -1.102  51.960 -27.899  1.00  0.00    -0.283 N 
HETATM    4  N3  UNL     1      -0.817  53.202 -28.337  1.00  0.00    -0.283 N 
ATOM      5  H3  UNL     1      -0.912  53.576 -29.282  1.00  0.00     0.188 HD
HETATM    6  C8  UNL     1      -0.381  53.828 -27.241  1.00  0.00     0.138 A 
HETATM    7  N4  UNL     1       0.037  55.110 -27.156  1.00  0.00    -0.337 N 
ATOM      8  H4  UNL     1       0.063  55.765 -27.937  1.00  0.00     0.168 HD
HETATM    9  C9  UNL     1       0.417  55.406 -25.888  1.00  0.00     0.183 A 
HETATM   10  N5  UNL     1       0.448  54.621 -24.764  1.00  0.00    -0.338 N 
ATOM     11  H5  UNL     1       0.770  55.011 -23.878  1.00  0.00     0.168 HD
HETATM   12  C10 UNL     1       0.048  53.316 -24.832  1.00  0.00     0.124 A 
HETATM   13  C17 UNL     1      -0.393  52.965 -26.114  1.00  0.00     0.098 A 
HETATM   14  H6  UNL     1      -1.573  50.740 -24.912  1.00  0.00     0.161 HD
HETATM   15  H7  UNL     1      -1.449  51.293 -28.577  1.00  0.00     0.188 HD
ENDROOT
BRANCH   1  16
HETATM   16  C6  UNL     1      -1.959  49.521 -26.527  1.00  0.00     0.160 C 
BRANCH  16  17
HETATM   17  C5  UNL     1      -3.067  49.048 -25.618  1.00  0.00    -0.039 A 
HETATM   18  C4  UNL     1      -2.908  49.093 -24.225  1.00  0.00     0.009 A 
HETATM   19  C3  UNL     1      -3.938  48.683 -23.377  1.00  0.00     0.002 A 
HETATM   20  C2  UNL     1      -5.142  48.226 -23.913  1.00  0.00     0.024 A 
HETATM   21  C1  UNL     1      -5.311  48.187 -25.295  1.00  0.00     0.034 A 
HETATM   22 CL1  UNL     1      -6.798  47.631 -25.958  1.00  0.00    -0.084 Cl
HETATM   23  C18 UNL     1      -4.285  48.597 -26.148  1.00  0.00     0.032 A 
ENDBRANCH  16  17
ENDBRANCH   1  16
BRANCH  12  24
HETATM   24  N6  UNL     1       0.131  52.413 -23.765  1.00  0.00    -0.342 N 
HETATM   25  H9  UNL     1       0.304  51.473 -24.104  1.00  0.00     0.167 HD
BRANCH  24  26
HETATM   26  C11 UNL     1       0.386  52.595 -22.396  1.00  0.00     0.035 A 
HETATM   27  C12 UNL     1       1.082  53.694 -21.876  1.00  0.00     0.029 A 
HETATM   28  C13 UNL     1       1.276  53.846 -20.499  1.00  0.00     0.004 A 
HETATM   29  C14 UNL     1       0.762  52.905 -19.612  1.00  0.00     0.024 A 
HETATM   30  C15 UNL     1       0.050  51.819 -20.110  1.00  0.00     0.036 A 
HETATM   31 CL2  UNL     1      -0.604  50.654 -19.024  1.00  0.00    -0.084 Cl
HETATM   32  C16 UNL     1      -0.144  51.667 -21.485  1.00  0.00     0.053 A 
ENDBRANCH  24  26
ENDBRANCH  12  24
TORSDOF 4
ENDMDL
MODEL 2
REMARK minimizedAffinity -9.38327122
REMARK  4 active torsions:
REMARK  status: ('A' for Active; 'I' for Inactive)
REMARK    1  A    between atoms: C5_6  and  C6_7 
REMARK    2  A    between atoms: C6_7  and  N1_8 
REMARK    3  A    between atoms: C10_19  and  N6_20 
REMARK    4  A    between atoms: N6_20  and  C11_21 
ROOT
HETATM    1  N1  UNL     1      -0.898  50.849 -25.916  1.00  0.00    -0.370 N 
HETATM    2  C7  UNL     1      -0.690  52.049 -26.531  1.00  0.00     0.134 A 
HETATM    3  N2  UNL     1      -1.002  52.309 -27.848  1.00  0.00    -0.283 N 
HETATM    4  N3  UNL     1      -0.828  53.590 -28.227  1.00  0.00    -0.283 N 
ATOM      5  H3  UNL     1      -1.032  54.014 -29.133  1.00  0.00     0.188 HD
HETATM    6  C8  UNL     1      -0.325  54.174 -27.136  1.00  0.00     0.138 A 
HETATM    7  N4  UNL     1       0.029  55.472 -27.005  1.00  0.00    -0.337 N 
ATOM      8  H4  UNL     1      -0.055  56.173 -27.741  1.00  0.00     0.168 HD
HETATM    9  C9  UNL     1       0.511  55.713 -25.761  1.00  0.00     0.183 A 
HETATM   10  N5  UNL     1       0.691  54.863 -24.698  1.00  0.00    -0.338 N 
ATOM     11  H5  UNL     1       1.073  55.218 -23.821  1.00  0.00     0.168 HD
HETATM   12  C10 UNL     1       0.357  53.544 -24.815  1.00  0.00     0.124 A 
HETATM   13  C17 UNL     1      -0.183  53.245 -26.073  1.00  0.00     0.098 A 
HETATM   14  H6  UNL     1      -1.121  50.884 -24.918  1.00  0.00     0.161 HD
HETATM   15  H7  UNL     1      -1.374  51.665 -28.534  1.00  0.00     0.188 HD
ENDROOT
BRANCH   1  16
HETATM   16  C6  UNL     1      -1.591  49.744 -26.568  1.00  0.00     0.160 C 
BRANCH  16  17
HETATM   17  C5  UNL     1      -2.736  49.304 -25.689  1.00  0.00    -0.039 A 
HETATM   18  C4  UNL     1      -3.875  48.709 -26.255  1.00  0.00     0.009 A 
HETATM   19  C3  UNL     1      -4.927  48.274 -25.447  1.00  0.00     0.002 A 
HETATM   20  C2  UNL     1      -4.850  48.423 -24.062  1.00  0.00     0.024 A 
HETATM   21  C1  UNL     1      -3.719  49.004 -23.492  1.00  0.00     0.034 A 
HETATM   22 CL1  UNL     1      -3.619  49.182 -21.784  1.00  0.00    -0.084 Cl
HETATM   23  C18 UNL     1      -2.664  49.440 -24.295  1.00  0.00     0.032 A 
ENDBRANCH  16  17
ENDBRANCH   1  16
BRANCH  12  24
HETATM   24  N6  UNL     1       0.590  52.584 -23.822  1.00  0.00    -0.342 N 
HETATM   25  H9  UNL     1       1.116  51.802 -24.196  1.00  0.00     0.167 HD
BRANCH  24  26
HETATM   26  C11 UNL     1       0.573  52.659 -22.420  1.00  0.00     0.035 A 
HETATM   27  C12 UNL     1       1.180  53.689 -21.691  1.00  0.00     0.029 A 
HETATM   28  C13 UNL     1       1.102  53.736 -20.295  1.00  0.00     0.004 A 
HETATM   29  C14 UNL     1       0.400  52.755 -19.601  1.00  0.00     0.024 A 
HETATM   30  C15 UNL     1      -0.226  51.735 -20.311  1.00  0.00     0.036 A 
HETATM   31 CL2  UNL     1      -1.110  50.523 -19.466  1.00  0.00    -0.084 Cl
HETATM   32  C16 UNL     1      -0.148  51.689 -21.704  1.00  0.00     0.053 A 
ENDBRANCH  24  26
ENDBRANCH  12  24
TORSDOF 4
ENDMDL
MODEL 3
REMARK minimizedAffinity -9.32445335
REMARK  4 active torsions:
REMARK  status: ('A' for Active; 'I' for Inactive)
REMARK    1  A    between atoms: C5_6  and  C6_7 
REMARK    2  A    between atoms: C6_7  and  N1_8 
REMARK    3  A    between atoms: C10_19  and  N6_20 
REMARK    4  A    between atoms: N6_20  and  C11_21 
ROOT
HETATM    1  N1  UNL     1       0.585  52.823 -23.406  1.00  0.00    -0.370 N 
HETATM    2  C7  UNL     1       0.354  53.620 -24.490  1.00  0.00     0.134 A 
HETATM    3  N2  UNL     1       0.542  54.985 -24.502  1.00  0.00    -0.283 N 
HETATM    4  N3  UNL     1       0.371  55.568 -25.705  1.00  0.00    -0.283 N 
ATOM      5  H3  UNL     1       0.498  56.549 -25.954  1.00  0.00     0.188 HD
HETATM    6  C8  UNL     1      -0.004  54.557 -26.492  1.00  0.00     0.138 A 
HETATM    7  N4  UNL     1      -0.304  54.627 -27.808  1.00  0.00    -0.337 N 
ATOM      8  H4  UNL     1      -0.272  55.480 -28.366  1.00  0.00     0.168 HD
HETATM    9  C9  UNL     1      -0.654  53.406 -28.284  1.00  0.00     0.183 A 
HETATM   10  N5  UNL     1      -0.754  52.197 -27.642  1.00  0.00    -0.338 N 
ATOM     11  H5  UNL     1      -1.037  51.366 -28.161  1.00  0.00     0.168 HD
HETATM   12  C10 UNL     1      -0.474  52.108 -26.308  1.00  0.00     0.124 A 
HETATM   13  C17 UNL     1      -0.069  53.336 -25.770  1.00  0.00     0.098 A 
HETATM   14  H6  UNL     1       0.906  51.871 -23.604  1.00  0.00     0.161 HD
HETATM   15  H7  UNL     1       0.826  55.576 -23.731  1.00  0.00     0.188 HD
ENDROOT
BRANCH   1  16
HETATM   16  C6  UNL     1       1.177  53.328 -22.174  1.00  0.00     0.160 C 
BRANCH  16  17
HETATM   17  C5  UNL     1       0.692  52.484 -21.021  1.00  0.00    -0.039 A 
HETATM   18  C4  UNL     1       0.695  53.001 -19.716  1.00  0.00     0.009 A 
HETATM   19  C3  UNL     1       0.222  52.236 -18.647  1.00  0.00     0.002 A 
HETATM   20  C2  UNL     1      -0.262  50.948 -18.873  1.00  0.00     0.024 A 
HETATM   21  C1  UNL     1      -0.276  50.432 -20.166  1.00  0.00     0.034 A 
HETATM   22 CL1  UNL     1      -0.880  48.845 -20.447  1.00  0.00    -0.084 Cl
HETATM   23  C18 UNL     1       0.193  51.192 -21.238  1.00  0.00     0.032 A 
ENDBRANCH  16  17
ENDBRANCH   1  16
BRANCH  12  24
HETATM   24  N6  UNL     1      -0.637  50.943 -25.548  1.00  0.00    -0.342 N 
HETATM   25  H9  UNL     1       0.112  50.850 -24.870  1.00  0.00     0.167 HD
BRANCH  24  26
HETATM   26  C11 UNL     1      -1.757  50.134 -25.295  1.00  0.00     0.035 A 
HETATM   27  C12 UNL     1      -2.268  49.896 -24.013  1.00  0.00     0.029 A 
HETATM   28  C13 UNL     1      -3.410  49.111 -23.821  1.00  0.00     0.004 A 
HETATM   29  C14 UNL     1      -4.071  48.559 -24.914  1.00  0.00     0.024 A 
HETATM   30  C15 UNL     1      -3.588  48.802 -26.195  1.00  0.00     0.036 A 
HETATM   31 CL2  UNL     1      -4.404  48.137 -27.557  1.00  0.00    -0.084 Cl
HETATM   32  C16 UNL     1      -2.449  49.586 -26.387  1.00  0.00     0.053 A 
ENDBRANCH  24  26
ENDBRANCH  12  24
TORSDOF 4
ENDMDL
MODEL 4
REMARK minimizedAffinity -9.10290909
REMARK  4 active torsions:
REMARK  status: ('A' for Active; 'I' for Inactive)
REMARK    1  A    between atoms: C5_6  and  C6_7 
REMARK    2  A    between atoms: C6_7  and  N1_8 
REMARK    3  A    between atoms: C10_19  and  N6_20 
REMARK    4  A    between atoms: N6_20  and  C11_21 
ROOT
HETATM    1  N1  UNL     1      -2.581  50.155 -24.767  1.00  0.00    -0.370 N 
HETATM    2  C7  UNL     1      -3.774  50.406 -24.153  1.00  0.00     0.134 A 
HETATM    3  N2  UNL     1      -4.940  50.709 -24.822  1.00  0.00    -0.283 N 
HETATM    4  N3  UNL     1      -6.032  50.805 -24.039  1.00  0.00    -0.283 N 
ATOM      5  H3  UNL     1      -6.998  50.978 -24.320  1.00  0.00     0.188 HD
HETATM    6  C8  UNL     1      -5.550  50.620 -22.808  1.00  0.00     0.138 A 
HETATM    7  N4  UNL     1      -6.256  50.629 -21.655  1.00  0.00    -0.337 N 
ATOM      8  H4  UNL     1      -7.264  50.775 -21.592  1.00  0.00     0.168 HD
HETATM    9  C9  UNL     1      -5.440  50.416 -20.593  1.00  0.00     0.183 A 
HETATM   10  N5  UNL     1      -4.082  50.226 -20.540  1.00  0.00    -0.338 N 
ATOM     11  H5  UNL     1      -3.623  50.079 -19.641  1.00  0.00     0.168 HD
HETATM   12  C10 UNL     1      -3.348  50.233 -21.691  1.00  0.00     0.124 A 
HETATM   13  C17 UNL     1      -4.147  50.411 -22.828  1.00  0.00     0.098 A 
HETATM   14  H6  UNL     1      -1.963  49.487 -24.299  1.00  0.00     0.161 HD
HETATM   15  H7  UNL     1      -5.068  50.827 -25.820  1.00  0.00     0.188 HD
ENDROOT
BRANCH   1  16
HETATM   16  C6  UNL     1      -2.448  50.064 -26.215  1.00  0.00     0.160 C 
BRANCH  16  17
HETATM   17  C5  UNL     1      -1.372  51.020 -26.666  1.00  0.00    -0.039 A 
HETATM   18  C4  UNL     1      -1.715  52.223 -27.303  1.00  0.00     0.009 A 
HETATM   19  C3  UNL     1      -0.726  53.126 -27.698  1.00  0.00     0.002 A 
HETATM   20  C2  UNL     1       0.618  52.839 -27.456  1.00  0.00     0.024 A 
HETATM   21  C1  UNL     1       0.965  51.651 -26.816  1.00  0.00     0.034 A 
HETATM   22 CL1  UNL     1       2.621  51.298 -26.511  1.00  0.00    -0.084 Cl
HETATM   23  C18 UNL     1      -0.019  50.745 -26.418  1.00  0.00     0.032 A 
ENDBRANCH  16  17
ENDBRANCH   1  16
BRANCH  12  24
HETATM   24  N6  UNL     1      -1.950  50.141 -21.732  1.00  0.00    -0.342 N 
HETATM   25  H9  UNL     1      -1.661  49.295 -22.210  1.00  0.00     0.167 HD
BRANCH  24  26
HETATM   26  C11 UNL     1      -0.940  51.106 -21.589  1.00  0.00     0.035 A 
HETATM   27  C12 UNL     1      -0.375  51.802 -22.665  1.00  0.00     0.029 A 
HETATM   28  C13 UNL     1       0.605  52.781 -22.464  1.00  0.00     0.004 A 
HETATM   29  C14 UNL     1       1.027  53.092 -21.175  1.00  0.00     0.024 A 
HETATM   30  C15 UNL     1       0.460  52.425 -20.094  1.00  0.00     0.036 A 
HETATM   31 CL2  UNL     1       0.963  52.811 -18.493  1.00  0.00    -0.084 Cl
HETATM   32  C16 UNL     1      -0.517  51.448 -20.295  1.00  0.00     0.053 A 
ENDBRANCH  24  26
ENDBRANCH  12  24
TORSDOF 4
ENDMDL
MODEL 5
REMARK minimizedAffinity -9.02266884
REMARK  4 active torsions:
REMARK  status: ('A' for Active; 'I' for Inactive)
REMARK    1  A    between atoms: C5_6  and  C6_7 
REMARK    2  A    between atoms: C6_7  and  N1_8 
REMARK    3  A    between atoms: C10_19  and  N6_20 
REMARK    4  A    between atoms: N6_20  and  C11_21 
ROOT
HETATM    1  N1  UNL     1       0.541  52.787 -23.446  1.00  0.00    -0.370 N 
HETATM    2  C7  UNL     1       0.319  53.574 -24.540  1.00  0.00     0.134 A 
HETATM    3  N2  UNL     1       0.518  54.937 -24.566  1.00  0.00    -0.283 N 
HETATM    4  N3  UNL     1       0.356  55.509 -25.776  1.00  0.00    -0.283 N 
ATOM      5  H3  UNL     1       0.491  56.486 -26.036  1.00  0.00     0.188 HD
HETATM    6  C8  UNL     1      -0.025  54.492 -26.553  1.00  0.00     0.138 A 
HETATM    7  N4  UNL     1      -0.320  54.549 -27.871  1.00  0.00    -0.337 N 
ATOM      8  H4  UNL     1      -0.279  55.396 -28.438  1.00  0.00     0.168 HD
HETATM    9  C9  UNL     1      -0.677  53.326 -28.335  1.00  0.00     0.183 A 
HETATM   10  N5  UNL     1      -0.789  52.125 -27.680  1.00  0.00    -0.338 N 
ATOM     11  H5  UNL     1      -1.077  51.291 -28.190  1.00  0.00     0.168 HD
HETATM   12  C10 UNL     1      -0.514  52.049 -26.344  1.00  0.00     0.124 A 
HETATM   13  C17 UNL     1      -0.101  53.280 -25.818  1.00  0.00     0.098 A 
HETATM   14  H6  UNL     1       0.855  51.831 -23.632  1.00  0.00     0.161 HD
HETATM   15  H7  UNL     1       0.804  55.536 -23.801  1.00  0.00     0.188 HD
ENDROOT
BRANCH   1  16
HETATM   16  C6  UNL     1       1.132  53.302 -22.218  1.00  0.00     0.160 C 
BRANCH  16  17
HETATM   17  C5  UNL     1       0.601  52.505 -21.052  1.00  0.00    -0.039 A 
HETATM   18  C4  UNL     1      -0.245  51.407 -21.272  1.00  0.00     0.009 A 
HETATM   19  C3  UNL     1      -0.719  50.647 -20.201  1.00  0.00     0.002 A 
HETATM   20  C2  UNL     1      -0.348  50.975 -18.896  1.00  0.00     0.024 A 
HETATM   21  C1  UNL     1       0.498  52.058 -18.671  1.00  0.00     0.034 A 
HETATM   22 CL1  UNL     1       0.962  52.459 -17.063  1.00  0.00    -0.084 Cl
HETATM   23  C18 UNL     1       0.976  52.820 -19.738  1.00  0.00     0.032 A 
ENDBRANCH  16  17
ENDBRANCH   1  16
BRANCH  12  24
HETATM   24  N6  UNL     1      -0.689  50.894 -25.571  1.00  0.00    -0.342 N 
HETATM   25  H9  UNL     1       0.072  50.788 -24.909  1.00  0.00     0.167 HD
BRANCH  24  26
HETATM   26  C11 UNL     1      -1.822  50.113 -25.289  1.00  0.00     0.035 A 
HETATM   27  C12 UNL     1      -2.466  49.311 -26.238  1.00  0.00     0.029 A 
HETATM   28  C13 UNL     1      -3.571  48.523 -25.895  1.00  0.00     0.004 A 
HETATM   29  C14 UNL     1      -4.043  48.514 -24.586  1.00  0.00     0.024 A 
HETATM   30  C15 UNL     1      -3.401  49.290 -23.626  1.00  0.00     0.036 A 
HETATM   31 CL2  UNL     1      -3.966  49.278 -21.999  1.00  0.00    -0.084 Cl
HETATM   32  C16 UNL     1      -2.299  50.076 -23.969  1.00  0.00     0.053 A 
ENDBRANCH  24  26
ENDBRANCH  12  24
TORSDOF 4
ENDMDL
MODEL 6
REMARK minimizedAffinity -8.88327599
REMARK  4 active torsions:
REMARK  status: ('A' for Active; 'I' for Inactive)
REMARK    1  A    between atoms: C5_6  and  C6_7 
REMARK    2  A    between atoms: C6_7  and  N1_8 
REMARK    3  A    between atoms: C10_19  and  N6_20 
REMARK    4  A    between atoms: N6_20  and  C11_21 
ROOT
HETATM    1  N1  UNL     1      -2.428  50.254 -24.910  1.00  0.00    -0.370 N 
HETATM    2  C7  UNL     1      -2.237  51.064 -25.992  1.00  0.00     0.134 A 
HETATM    3  N2  UNL     1      -2.992  51.010 -27.143  1.00  0.00    -0.283 N 
HETATM    4  N3  UNL     1      -2.719  51.974 -28.044  1.00  0.00    -0.283 N 
ATOM      5  H3  UNL     1      -3.176  52.151 -28.939  1.00  0.00     0.188 HD
HETATM    6  C8  UNL     1      -1.706  52.644 -27.487  1.00  0.00     0.138 A 
HETATM    7  N4  UNL     1      -1.063  53.713 -28.007  1.00  0.00    -0.337 N 
ATOM      8  H4  UNL     1      -1.286  54.145 -28.903  1.00  0.00     0.168 HD
HETATM    9  C9  UNL     1      -0.079  54.131 -27.172  1.00  0.00     0.183 A 
HETATM   10  N5  UNL     1       0.331  53.632 -25.962  1.00  0.00    -0.338 N 
ATOM     11  H5  UNL     1       1.101  54.076 -25.461  1.00  0.00     0.168 HD
HETATM   12  C10 UNL     1      -0.294  52.541 -25.428  1.00  0.00     0.124 A 
HETATM   13  C17 UNL     1      -1.347  52.087 -26.232  1.00  0.00     0.098 A 
HETATM   14  H6  UNL     1      -2.215  50.662 -23.996  1.00  0.00     0.161 HD
HETATM   15  H7  UNL     1      -3.738  50.362 -27.364  1.00  0.00     0.188 HD
ENDROOT
BRANCH   1  16
HETATM   16  C6  UNL     1      -3.543  49.320 -24.819  1.00  0.00     0.160 C 
BRANCH  16  17
HETATM   17  C5  UNL     1      -3.505  48.649 -23.468  1.00  0.00    -0.039 A 
HETATM   18  C4  UNL     1      -4.644  47.999 -22.968  1.00  0.00     0.009 A 
HETATM   19  C3  UNL     1      -4.609  47.353 -21.731  1.00  0.00     0.002 A 
HETATM   20  C2  UNL     1      -3.432  47.346 -20.981  1.00  0.00     0.024 A 
HETATM   21  C1  UNL     1      -2.296  47.981 -21.474  1.00  0.00     0.034 A 
HETATM   22 CL1  UNL     1      -0.842  47.967 -20.554  1.00  0.00    -0.084 Cl
HETATM   23  C18 UNL     1      -2.324  48.627 -22.711  1.00  0.00     0.032 A 
ENDBRANCH  16  17
ENDBRANCH   1  16
BRANCH  12  24
HETATM   24  N6  UNL     1       0.112  51.904 -24.247  1.00  0.00    -0.342 N 
HETATM   25  H9  UNL     1       0.512  50.995 -24.451  1.00  0.00     0.167 HD
BRANCH  24  26
HETATM   26  C11 UNL     1       0.403  52.397 -22.965  1.00  0.00     0.035 A 
HETATM   27  C12 UNL     1       1.035  53.625 -22.732  1.00  0.00     0.029 A 
HETATM   28  C13 UNL     1       1.269  54.087 -21.432  1.00  0.00     0.004 A 
HETATM   29  C14 UNL     1       0.860  53.331 -20.337  1.00  0.00     0.024 A 
HETATM   30  C15 UNL     1       0.212  52.118 -20.552  1.00  0.00     0.036 A 
HETATM   31 CL2  UNL     1      -0.312  51.179 -19.207  1.00  0.00    -0.084 Cl
HETATM   32  C16 UNL     1      -0.022  51.658 -21.849  1.00  0.00     0.053 A 
ENDBRANCH  24  26
ENDBRANCH  12  24
TORSDOF 4
ENDMDL
MODEL 7
REMARK minimizedAffinity -8.81293869
REMARK  4 active torsions:
REMARK  status: ('A' for Active; 'I' for Inactive)
REMARK    1  A    between atoms: C5_6  and  C6_7 
REMARK    2  A    between atoms: C6_7  and  N1_8 
REMARK    3  A    between atoms: C10_19  and  N6_20 
REMARK    4  A    between atoms: N6_20  and  C11_21 
ROOT
HETATM    1  N1  UNL     1      -0.585  51.218 -24.654  1.00  0.00    -0.370 N 
HETATM    2  C7  UNL     1       0.116  52.335 -24.301  1.00  0.00     0.134 A 
HETATM    3  N2  UNL     1       0.555  53.288 -25.194  1.00  0.00    -0.283 N 
HETATM    4  N3  UNL     1       1.124  54.371 -24.630  1.00  0.00    -0.283 N 
ATOM      5  H3  UNL     1       1.479  55.210 -25.089  1.00  0.00     0.188 HD
HETATM    6  C8  UNL     1       1.112  54.086 -23.325  1.00  0.00     0.138 A 
HETATM    7  N4  UNL     1       1.583  54.864 -22.325  1.00  0.00    -0.337 N 
ATOM      8  H4  UNL     1       2.006  55.783 -22.454  1.00  0.00     0.168 HD
HETATM    9  C9  UNL     1       1.415  54.254 -21.125  1.00  0.00     0.183 A 
HETATM   10  N5  UNL     1       0.884  53.026 -20.819  1.00  0.00    -0.338 N 
ATOM     11  H5  UNL     1       0.835  52.719 -19.848  1.00  0.00     0.168 HD
HETATM   12  C10 UNL     1       0.421  52.216 -21.817  1.00  0.00     0.124 A 
HETATM   13  C17 UNL     1       0.534  52.814 -23.079  1.00  0.00     0.098 A 
HETATM   14  H6  UNL     1      -1.265  50.875 -23.970  1.00  0.00     0.161 HD
HETATM   15  H7  UNL     1       0.464  53.279 -26.202  1.00  0.00     0.188 HD
ENDROOT
BRANCH   1  16
HETATM   16  C6  UNL     1      -1.048  50.982 -26.015  1.00  0.00     0.160 C 
BRANCH  16  17
HETATM   17  C5  UNL     1      -2.215  50.026 -25.972  1.00  0.00    -0.039 A 
HETATM   18  C4  UNL     1      -2.687  49.539 -24.743  1.00  0.00     0.009 A 
HETATM   19  C3  UNL     1      -3.783  48.677 -24.692  1.00  0.00     0.002 A 
HETATM   20  C2  UNL     1      -4.425  48.295 -25.871  1.00  0.00     0.024 A 
HETATM   21  C1  UNL     1      -3.969  48.782 -27.093  1.00  0.00     0.034 A 
HETATM   22 CL1  UNL     1      -4.763  48.318 -28.547  1.00  0.00    -0.084 Cl
HETATM   23  C18 UNL     1      -2.874  49.645 -27.150  1.00  0.00     0.032 A 
ENDBRANCH  16  17
ENDBRANCH   1  16
BRANCH  12  24
HETATM   24  N6  UNL     1      -0.051  50.913 -21.615  1.00  0.00    -0.342 N 
HETATM   25  H9  UNL     1       0.206  50.315 -22.392  1.00  0.00     0.167 HD
BRANCH  24  26
HETATM   26  C11 UNL     1      -0.450  50.226 -20.456  1.00  0.00     0.035 A 
HETATM   27  C12 UNL     1      -1.075  48.973 -20.474  1.00  0.00     0.029 A 
HETATM   28  C13 UNL     1      -1.419  48.316 -19.288  1.00  0.00     0.004 A 
HETATM   29  C14 UNL     1      -1.128  48.897 -18.057  1.00  0.00     0.024 A 
HETATM   30  C15 UNL     1      -0.488  50.131 -18.022  1.00  0.00     0.036 A 
HETATM   31 CL2  UNL     1      -0.110  50.855 -16.506  1.00  0.00    -0.084 Cl
HETATM   32  C16 UNL     1      -0.145  50.787 -19.206  1.00  0.00     0.053 A 
ENDBRANCH  24  26
ENDBRANCH  12  24
TORSDOF 4
ENDMDL
MODEL 8
REMARK minimizedAffinity -8.79217052
REMARK  4 active torsions:
REMARK  status: ('A' for Active; 'I' for Inactive)
REMARK    1  A    between atoms: C5_6  and  C6_7 
REMARK    2  A    between atoms: C6_7  and  N1_8 
REMARK    3  A    between atoms: C10_19  and  N6_20 
REMARK    4  A    between atoms: N6_20  and  C11_21 
ROOT
HETATM    1  N1  UNL     1       0.279  52.607 -23.046  1.00  0.00    -0.370 N 
HETATM    2  C7  UNL     1       0.627  52.873 -21.753  1.00  0.00     0.134 A 
HETATM    3  N2  UNL     1       1.471  53.894 -21.372  1.00  0.00    -0.283 N 
HETATM    4  N3  UNL     1       1.591  54.061 -20.041  1.00  0.00    -0.283 N 
ATOM      5  H3  UNL     1       2.123  54.773 -19.539  1.00  0.00     0.188 HD
HETATM    6  C8  UNL     1       0.848  53.074 -19.534  1.00  0.00     0.138 A 
HETATM    7  N4  UNL     1       0.646  52.806 -18.225  1.00  0.00    -0.337 N 
ATOM      8  H4  UNL     1       1.044  53.344 -17.454  1.00  0.00     0.168 HD
HETATM    9  C9  UNL     1      -0.158  51.725 -18.076  1.00  0.00     0.183 A 
HETATM   10  N5  UNL     1      -0.737  50.912 -19.018  1.00  0.00    -0.338 N 
ATOM     11  H5  UNL     1      -1.321  50.129 -18.727  1.00  0.00     0.168 HD
HETATM   12  C10 UNL     1      -0.531  51.154 -20.347  1.00  0.00     0.124 A 
HETATM   13  C17 UNL     1       0.264  52.287 -20.561  1.00  0.00     0.098 A 
HETATM   14  H6  UNL     1      -0.660  52.228 -23.194  1.00  0.00     0.161 HD
HETATM   15  H7  UNL     1       1.970  54.540 -21.972  1.00  0.00     0.188 HD
ENDROOT
BRANCH   1  16
HETATM   16  C6  UNL     1       0.678  53.463 -24.156  1.00  0.00     0.160 C 
BRANCH  16  17
HETATM   17  C5  UNL     1       0.335  52.769 -25.452  1.00  0.00    -0.039 A 
HETATM   18  C4  UNL     1       1.354  52.321 -26.307  1.00  0.00     0.009 A 
HETATM   19  C3  UNL     1       1.045  51.654 -27.493  1.00  0.00     0.002 A 
HETATM   20  C2  UNL     1      -0.287  51.421 -27.836  1.00  0.00     0.024 A 
HETATM   21  C1  UNL     1      -1.303  51.854 -26.988  1.00  0.00     0.034 A 
HETATM   22 CL1  UNL     1      -2.947  51.563 -27.406  1.00  0.00    -0.084 Cl
HETATM   23  C18 UNL     1      -1.001  52.521 -25.800  1.00  0.00     0.032 A 
ENDBRANCH  16  17
ENDBRANCH   1  16
BRANCH  12  24
HETATM   24  N6  UNL     1      -1.001  50.329 -21.377  1.00  0.00    -0.342 N 
HETATM   25  H9  UNL     1      -0.664  49.381 -21.258  1.00  0.00     0.167 HD
BRANCH  24  26
HETATM   26  C11 UNL     1      -2.080  50.459 -22.267  1.00  0.00     0.035 A 
HETATM   27  C12 UNL     1      -3.024  51.490 -22.196  1.00  0.00     0.029 A 
HETATM   28  C13 UNL     1      -4.060  51.594 -23.131  1.00  0.00     0.004 A 
HETATM   29  C14 UNL     1      -4.161  50.670 -24.167  1.00  0.00     0.024 A 
HETATM   30  C15 UNL     1      -3.219  49.651 -24.264  1.00  0.00     0.036 A 
HETATM   31 CL2  UNL     1      -3.323  48.509 -25.549  1.00  0.00    -0.084 Cl
HETATM   32  C16 UNL     1      -2.185  49.548 -23.331  1.00  0.00     0.053 A 
ENDBRANCH  24  26
ENDBRANCH  12  24
TORSDOF 4
ENDMDL
MODEL 9
REMARK minimizedAffinity -8.73421383
REMARK  4 active torsions:
REMARK  status: ('A' for Active; 'I' for Inactive)
REMARK    1  A    between atoms: C5_6  and  C6_7 
REMARK    2  A    between atoms: C6_7  and  N1_8 
REMARK    3  A    between atoms: C10_19  and  N6_20 
REMARK    4  A    between atoms: N6_20  and  C11_21 
ROOT
HETATM    1  N1  UNL     1       6.852  64.167 -35.443  1.00  0.00    -0.370 N 
HETATM    2  C7  UNL     1       5.987  63.326 -34.803  1.00  0.00     0.134 A 
HETATM    3  N2  UNL     1       5.878  61.978 -35.069  1.00  0.00    -0.283 N 
HETATM    4  N3  UNL     1       5.051  61.305 -34.245  1.00  0.00    -0.283 N 
ATOM      5  H3  UNL     1       4.852  60.304 -34.230  1.00  0.00     0.188 HD
HETATM    6  C8  UNL     1       4.555  62.259 -33.453  1.00  0.00     0.138 A 
HETATM    7  N4  UNL     1       3.664  62.092 -32.450  1.00  0.00    -0.337 N 
ATOM      8  H4  UNL     1       3.264  61.196 -32.172  1.00  0.00     0.168 HD
HETATM    9  C9  UNL     1       3.377  63.281 -31.863  1.00  0.00     0.183 A 
HETATM   10  N5  UNL     1       3.829  64.545 -32.149  1.00  0.00    -0.338 N 
ATOM     11  H5  UNL     1       3.503  65.339 -31.599  1.00  0.00     0.168 HD
HETATM   12  C10 UNL     1       4.714  64.737 -33.171  1.00  0.00     0.124 A 
HETATM   13  C17 UNL     1       5.077  63.534 -33.791  1.00  0.00     0.098 A 
HETATM   14  H6  UNL     1       7.220  64.945 -34.889  1.00  0.00     0.161 HD
HETATM   15  H7  UNL     1       6.369  61.446 -35.776  1.00  0.00     0.188 HD
ENDROOT
BRANCH   1  16
HETATM   16  C6  UNL     1       7.842  63.691 -36.401  1.00  0.00     0.160 C 
BRANCH  16  17
HETATM   17  C5  UNL     1       9.154  63.492 -35.683  1.00  0.00    -0.039 A 
HETATM   18  C4  UNL     1      10.344  63.998 -36.229  1.00  0.00     0.009 A 
HETATM   19  C3  UNL     1      11.558  63.842 -35.558  1.00  0.00     0.002 A 
HETATM   20  C2  UNL     1      11.596  63.180 -34.331  1.00  0.00     0.024 A 
HETATM   21  C1  UNL     1      10.418  62.683 -33.778  1.00  0.00     0.034 A 
HETATM   22 CL1  UNL     1      10.462  61.872 -32.261  1.00  0.00    -0.084 Cl
HETATM   23  C18 UNL     1       9.201  62.837 -34.444  1.00  0.00     0.032 A 
ENDBRANCH  16  17
ENDBRANCH   1  16
BRANCH  12  24
HETATM   24  N6  UNL     1       5.159  65.996 -33.598  1.00  0.00    -0.342 N 
HETATM   25  H9  UNL     1       6.023  66.247 -33.132  1.00  0.00     0.167 HD
BRANCH  24  26
HETATM   26  C11 UNL     1       4.871  66.756 -34.744  1.00  0.00     0.035 A 
HETATM   27  C12 UNL     1       5.669  67.816 -35.191  1.00  0.00     0.029 A 
HETATM   28  C13 UNL     1       5.356  68.518 -36.361  1.00  0.00     0.004 A 
HETATM   29  C14 UNL     1       4.242  68.159 -37.115  1.00  0.00     0.024 A 
HETATM   30  C15 UNL     1       3.451  67.094 -36.695  1.00  0.00     0.036 A 
HETATM   31 CL2  UNL     1       2.078  66.631 -37.625  1.00  0.00    -0.084 Cl
HETATM   32  C16 UNL     1       3.764  66.394 -35.528  1.00  0.00     0.053 A 
ENDBRANCH  24  26
ENDBRANCH  12  24
TORSDOF 4
ENDMDL
